# generated using pymatgen
data_V73Zn73O256
_symmetry_space_group_name_H-M   'P 1'
_cell_length_a   16.87519111
_cell_length_b   16.88005608
_cell_length_c   16.89062457
_cell_angle_alpha   89.96190285
_cell_angle_beta   90.00878123
_cell_angle_gamma   90.09302120
_symmetry_Int_Tables_number   1
_chemical_formula_structural   V73Zn73O256
_chemical_formula_sum   'V73 Zn73 O256'
_cell_volume   4811.35742059
_cell_formula_units_Z   1
loop_
 _symmetry_equiv_pos_site_id
 _symmetry_equiv_pos_as_xyz
  1  'x, y, z'
loop_
 _atom_site_type_symbol
 _atom_site_label
 _atom_site_symmetry_multiplicity
 _atom_site_fract_x
 _atom_site_fract_y
 _atom_site_fract_z
 _atom_site_occupancy
  V  V0  1  0.49726050  0.50916299  0.00269919  1
  V  V1  1  0.24912337  0.62470582  0.87403545  1
  V  V2  1  0.60157582  0.24103624  0.40882076  1
  V  V3  1  0.50357957  0.75478022  0.24926213  1
  V  V4  1  0.35577773  0.37484655  0.51436173  1
  V  V5  1  0.89487873  0.62618615  0.24101219  1
  V  V6  1  0.12551460  0.38050630  0.74013235  1
  V  V7  1  0.38216403  0.13317617  0.23521021  1
  V  V8  1  0.92337898  0.82008869  0.06011503  1
  V  V9  1  -0.00055109  0.63150249  0.62633176  1
  V  V10  1  -0.00452573  0.36074869  0.37780760  1
  V  V11  1  0.25308634  0.75404069  0.00077098  1
  V  V12  1  0.77165259  0.36685541  0.61435193  1
  V  V13  1  0.00239689  0.88058839  0.85766735  1
  V  V14  1  0.62878254  0.62476430  0.49857581  1
  V  V15  1  0.63445766  0.12830922  -0.04061577  1
  V  V16  1  0.24989758  0.11806944  0.36466560  1
  V  V17  1  0.25148612  0.88544848  0.62882193  1
  V  V18  1  0.11168798  0.61635926  0.01020647  1
  V  V19  1  -0.00828783  0.88039193  0.37542854  1
  V  V20  1  0.64548449  0.87635093  0.73725132  1
  V  V21  1  0.13938379  0.24985935  0.38514806  1
  V  V22  1  0.12595223  0.89703776  0.24805172  1
  V  V23  1  0.51142424  0.37775149  0.86299773  1
  V  V24  1  0.00222500  0.49185615  0.51047098  1
  V  V25  1  0.62800898  0.75468082  0.36761901  1
  V  V26  1  0.63888008  0.74538372  0.87233771  1
  V  V27  1  0.76526282  0.24507832  -0.00603401  1
  V  V28  1  0.38509889  0.87126220  0.50428509  1
  V  V29  1  0.11817554  0.25543902  0.88929044  1
  V  V30  1  0.24383617  0.50301223  0.73462279  1
  V  V31  1  0.36997725  0.36262586  -0.00205358  1
  V  V32  1  0.50022134  0.23408387  0.74587399  1
  V  V33  1  0.75850538  0.76067502  0.49928771  1
  V  V34  1  0.87683110  0.76269132  0.62225719  1
  V  V35  1  0.11947473  0.75731787  0.86413380  1
  V  V36  1  0.37752734  0.48691896  0.36955984  1
  V  V37  1  0.73977214  0.88434610  0.13877214  1
  V  V38  1  0.49690414  0.63004311  0.62433944  1
  V  V39  1  0.12444324  0.62438880  0.50355345  1
  V  V40  1  0.63112295  0.62849113  0.00486209  1
  V  V41  1  -0.01218204  0.14757572  0.14882662  1
  V  V42  1  -0.00885547  0.39254358  0.87764415  1
  V  V43  1  0.49693965  0.75234178  0.74494836  1
  V  V44  1  0.87506626  0.49376999  0.38419386  1
  V  V45  1  -0.00518106  -0.00387565  0.50702773  1
  V  V46  1  0.25575798  0.74885917  0.50297604  1
  V  V47  1  0.86681664  0.00224839  0.88033952  1
  V  V48  1  0.49945903  0.49295784  0.49686043  1
  V  V49  1  0.37337864  -0.00972223  0.36529128  1
  V  V50  1  0.37004357  -0.00394683  0.86691220  1
  V  V51  1  0.86241682  0.12263635  0.74818497  1
  V  V52  1  0.87226892  0.39767295  0.00615130  1
  V  V53  1  0.61631180  0.36354389  0.27014708  1
  V  V54  1  0.75321681  0.61790852  0.36918635  1
  V  V55  1  0.35365622  0.23934767  0.63988164  1
  V  V56  1  0.25423860  0.14365381  0.87240798  1
  V  V57  1  0.14139812  0.11279730  0.51432799  1
  V  V58  1  0.12091689  0.74827288  0.36242456  1
  V  V59  1  0.75475476  0.49868620  0.75883102  1
  V  V60  1  0.74970733  0.75811484  0.00985246  1
  V  V61  1  0.87149639  0.62655593  0.75387805  1
  V  V62  1  0.00752757  0.01232460  0.01305348  1
  V  V63  1  0.62933972  0.49196665  0.62981782  1
  V  V64  1  0.38086799  0.62112005  0.24698097  1
  V  V65  1  0.74969451  0.02571018  0.26115441  1
  V  V66  1  0.25108040  0.88582489  0.12804664  1
  V  V67  1  0.62917085  0.01193508  0.61268388  1
  V  V68  1  0.50365361  0.87753259  0.88119484  1
  V  V69  1  -0.00276230  0.24198276  0.74133761  1
  V  V70  1  0.63175699  0.48979687  0.12496008  1
  V  V71  1  0.37811723  0.74714224  0.12357822  1
  V  V72  1  0.25180812  0.61959210  0.36677595  1
  Zn  Zn73  1  0.51642134  0.88673029  0.37112478  1
  Zn  Zn74  1  0.12276059  -0.00525649  0.65407779  1
  Zn  Zn75  1  0.50549237  0.02320012  0.01637873  1
  Zn  Zn76  1  0.75784268  0.48731537  0.23825341  1
  Zn  Zn77  1  0.37009656  0.62915137  0.74418062  1
  Zn  Zn78  1  0.37642098  0.50420616  0.87105599  1
  Zn  Zn79  1  0.52770319  0.05528029  0.47885514  1
  Zn  Zn80  1  0.16269362  0.16353817  0.04198465  1
  Zn  Zn81  1  0.72636661  0.12913959  0.40378281  1
  Zn  Zn82  1  0.16471319  0.19268535  0.20163914  1
  Zn  Zn83  1  0.18683528  0.18663346  0.69711477  1
  Zn  Zn84  1  0.18830195  0.68375258  0.18380905  1
  Zn  Zn85  1  0.18795162  0.69477540  0.68478829  1
  Zn  Zn86  1  0.71120113  0.22048295  0.19047457  1
  Zn  Zn87  1  0.68417161  0.19250941  0.68788738  1
  Zn  Zn88  1  0.68994399  0.68319485  0.18442336  1
  Zn  Zn89  1  0.69111229  0.68914531  0.68393482  1
  Zn  Zn90  1  0.32292314  0.27302651  0.13919426  1
  Zn  Zn91  1  0.31460599  0.32364434  0.81531659  1
  Zn  Zn92  1  0.30792050  0.80765360  0.30755523  1
  Zn  Zn93  1  0.31520143  0.81580346  0.81499298  1
  Zn  Zn94  1  0.78522958  0.32040704  0.35330068  1
  Zn  Zn95  1  0.80928838  0.31215347  0.81000182  1
  Zn  Zn96  1  0.81824598  0.80538520  0.30598101  1
  Zn  Zn97  1  0.82133968  0.81176746  0.81354504  1
  Zn  Zn98  1  0.18454508  0.43948442  0.43251481  1
  Zn  Zn99  1  0.18488125  0.43823945  0.93619258  1
  Zn  Zn100  1  0.19109452  0.93470725  0.43993418  1
  Zn  Zn101  1  0.18618471  0.94310537  0.93795514  1
  Zn  Zn102  1  0.68456576  0.43087256  0.44276967  1
  Zn  Zn103  1  0.69235135  0.43652393  0.93862691  1
  Zn  Zn104  1  0.69771093  0.94572713  0.43247736  1
  Zn  Zn105  1  0.68209205  0.93676245  0.94241827  1
  Zn  Zn106  1  0.31954090  0.06188487  0.04528591  1
  Zn  Zn107  1  0.33929984  0.06564781  0.55420407  1
  Zn  Zn108  1  0.31331850  0.56984679  0.05622234  1
  Zn  Zn109  1  0.31350765  0.56361197  0.55723898  1
  Zn  Zn110  1  0.81351580  0.06300963  0.06345053  1
  Zn  Zn111  1  0.81612616  0.05086403  0.57816694  1
  Zn  Zn112  1  0.81398434  0.56904979  0.05838864  1
  Zn  Zn113  1  0.81445494  0.56490726  0.56461921  1
  Zn  Zn114  1  0.44161425  0.43074069  0.18201692  1
  Zn  Zn115  1  0.43453012  0.44689776  0.68720927  1
  Zn  Zn116  1  0.42942456  0.94305859  0.18859241  1
  Zn  Zn117  1  0.44709028  0.94457900  0.68534348  1
  Zn  Zn118  1  0.92316072  0.41493192  0.20781721  1
  Zn  Zn119  1  0.93849023  0.43869122  0.69093044  1
  Zn  Zn120  1  0.93215272  0.95030096  0.19811619  1
  Zn  Zn121  1  0.93529398  0.94743334  0.68881474  1
  Zn  Zn122  1  0.05622673  0.06908287  0.32033568  1
  Zn  Zn123  1  0.06670331  0.06524443  0.82356072  1
  Zn  Zn124  1  0.06284654  0.55104684  0.31631604  1
  Zn  Zn125  1  0.06410501  0.57017124  0.81106630  1
  Zn  Zn126  1  0.56601836  0.06516848  0.30152468  1
  Zn  Zn127  1  0.56832328  0.05490574  0.79978950  1
  Zn  Zn128  1  0.56097225  0.56115864  0.30730765  1
  Zn  Zn129  1  0.56763881  0.56532140  0.81428473  1
  Zn  Zn130  1  0.41929763  0.19791754  0.43950942  1
  Zn  Zn131  1  0.44095504  0.18812516  0.92445951  1
  Zn  Zn132  1  0.44085899  0.68494424  0.43235789  1
  Zn  Zn133  1  0.44040022  0.69204110  0.93371337  1
  Zn  Zn134  1  0.94399257  0.18240999  0.47618830  1
  Zn  Zn135  1  0.93744241  0.18677035  0.93515299  1
  Zn  Zn136  1  0.93945690  0.68636485  0.43354023  1
  Zn  Zn137  1  0.93942469  0.68699159  0.93479621  1
  Zn  Zn138  1  0.04164427  0.32062077  0.07007505  1
  Zn  Zn139  1  0.07211430  0.30371263  0.56281749  1
  Zn  Zn140  1  0.08260128  0.81753814  0.05632065  1
  Zn  Zn141  1  0.06819847  0.81482092  0.56075887  1
  Zn  Zn142  1  0.57752387  0.31864556  0.03238179  1
  Zn  Zn143  1  0.54763368  0.31122367  0.58018289  1
  Zn  Zn144  1  0.53790553  0.85937311  0.09054705  1
  Zn  Zn145  1  0.56646178  0.81573936  0.55827069  1
  O  O146  1  0.09566755  0.13002597  0.12904516  1
  O  O147  1  0.14043069  0.11419436  0.61806631  1
  O  O148  1  0.12591601  0.62679595  0.11066134  1
  O  O149  1  0.11466156  0.63800540  0.61291762  1
  O  O150  1  0.54849755  0.17793402  0.12930481  1
  O  O151  1  0.62935663  0.11173680  0.62642589  1
  O  O152  1  0.62539062  0.61696664  0.11167069  1
  O  O153  1  0.62201436  0.62064687  0.61241621  1
  O  O154  1  0.37332157  0.38955289  0.38891332  1
  O  O155  1  0.38599708  0.38587012  0.88408867  1
  O  O156  1  0.36962641  0.88379079  0.37140341  1
  O  O157  1  0.39390076  0.88012233  0.87089550  1
  O  O158  1  0.88028257  0.38178997  0.38457815  1
  O  O159  1  0.88899245  0.37829487  0.87170671  1
  O  O160  1  0.89379630  0.86505907  0.37046024  1
  O  O161  1  0.89354792  0.88292913  0.86815819  1
  O  O162  1  0.26050484  0.00823037  0.37812514  1
  O  O163  1  0.26981706  -0.01787907  0.87315524  1
  O  O164  1  0.26282274  0.50830115  0.37693627  1
  O  O165  1  0.24771542  0.51623618  0.86752822  1
  O  O166  1  0.75429880  0.02410279  0.37305917  1
  O  O167  1  0.76889016  -0.01331784  0.88241900  1
  O  O168  1  0.75925258  0.50549836  0.38586317  1
  O  O169  1  0.74335823  0.50096596  0.85686310  1
  O  O170  1  0.23525002  0.49748975  0.12276811  1
  O  O171  1  0.24527222  0.51271273  0.63568060  1
  O  O172  1  0.25876112  0.98285554  0.11447445  1
  O  O173  1  0.26395739  0.98532511  0.61801034  1
  O  O174  1  0.73546927  0.50362316  0.12136775  1
  O  O175  1  0.74058485  0.49393254  0.62286652  1
  O  O176  1  0.75190479  0.98902793  0.13282321  1
  O  O177  1  0.73149685  0.98824840  0.61212219  1
  O  O178  1  -0.00644393  0.36130478  0.27746541  1
  O  O179  1  0.00826558  0.37243089  0.75813598  1
  O  O180  1  0.01562423  0.88516681  0.26299495  1
  O  O181  1  0.00853405  0.88300954  0.75924684  1
  O  O182  1  0.51928088  0.38423542  0.24869433  1
  O  O183  1  0.50121331  0.39475327  0.76241812  1
  O  O184  1  0.49272836  0.85861625  0.25667905  1
  O  O185  1  0.51192483  0.85959732  0.75181623  1
  O  O186  1  0.48169146  0.12156815  0.25070357  1
  O  O187  1  0.49591032  0.13525200  0.76088919  1
  O  O188  1  0.48851123  0.63484266  0.25247680  1
  O  O189  1  0.50509575  0.63553207  0.74194619  1
  O  O190  1  0.98916913  0.12054848  0.24810350  1
  O  O191  1  1.00814079  0.14168085  0.75675998  1
  O  O192  1  0.99491564  0.61477713  0.25383309  1
  O  O193  1  0.98936287  0.62073085  0.73557720  1
  O  O194  1  0.37811322  0.26169406  -0.00863473  1
  O  O195  1  0.36801079  0.26944772  0.52066346  1
  O  O196  1  0.36532960  0.74214483  0.00882075  1
  O  O197  1  0.36616120  0.75904554  0.48277873  1
  O  O198  1  0.87102452  0.25815468  -0.00564294  1
  O  O199  1  0.83795590  0.20792270  0.50907776  1
  O  O200  1  0.86481512  0.75303380  -0.00255418  1
  O  O201  1  0.86597744  0.74481044  0.50451888  1
  O  O202  1  0.12035139  0.22512921  0.49672542  1
  O  O203  1  0.11472748  0.26664754  0.99133562  1
  O  O204  1  0.13515500  0.74102392  0.48828993  1
  O  O205  1  0.13581004  0.73974863  0.99036350  1
  O  O206  1  0.60890376  0.25007885  0.50816052  1
  O  O207  1  0.63720385  0.23397910  0.99042713  1
  O  O208  1  0.63711901  0.74114852  0.49146869  1
  O  O209  1  0.63785984  0.74481465  0.99213738  1
  O  O210  1  0.50873306  0.23753789  0.11207900  1
  O  O211  1  0.47344990  0.25320080  0.64034369  1
  O  O212  1  0.48563999  0.76039390  0.13189149  1
  O  O213  1  0.51110123  0.74244480  0.63557182  1
  O  O214  1  0.99077463  0.25064251  0.14180363  1
  O  O215  1  1.00305770  0.25343713  0.64146680  1
  O  O216  1  0.98737396  0.76447797  0.11151745  1
  O  O217  1  0.98738980  0.74472197  0.61184468  1
  O  O218  1  -0.00913645  0.26304599  0.40759002  1
  O  O219  1  0.00896490  0.26267118  0.86834100  1
  O  O220  1  0.01625601  0.76009481  0.38257459  1
  O  O221  1  0.01077856  0.76396157  0.87600757  1
  O  O222  1  0.50279757  0.25296840  0.38502784  1
  O  O223  1  0.49121447  0.26977950  0.85516627  1
  O  O224  1  0.51404044  0.74617191  0.36696482  1
  O  O225  1  0.51221142  0.75371590  0.86149331  1
  O  O226  1  0.24429197  0.11604495  0.49177749  1
  O  O227  1  0.23801354  0.10834540  0.97585978  1
  O  O228  1  0.24414972  0.62874684  0.48959572  1
  O  O229  1  0.24280431  0.63415983  0.99012520  1
  O  O230  1  0.78829022  0.14299028  0.50633317  1
  O  O231  1  0.74677384  0.13420834  0.99678020  1
  O  O232  1  0.74386292  0.62817443  0.49099550  1
  O  O233  1  0.74375523  0.64185836  1.00278621  1
  O  O234  1  0.27126592  0.38549121  -0.00889496  1
  O  O235  1  0.25723548  0.38687404  0.50231142  1
  O  O236  1  0.23692797  0.86268086  0.01543624  1
  O  O237  1  0.26122915  0.86475173  0.50380446  1
  O  O238  1  0.76889672  0.37232016  -0.00796207  1
  O  O239  1  0.75190164  0.37479256  0.51370068  1
  O  O240  1  0.74678465  0.86449829  0.01206601  1
  O  O241  1  0.75309783  0.85853535  0.48860575  1
  O  O242  1  0.12199001  0.47479672  0.24654518  1
  O  O243  1  0.13197806  0.49383915  0.75151697  1
  O  O244  1  0.13035208  0.99436275  0.25776023  1
  O  O245  1  0.13020630  0.99571346  0.76538051  1
  O  O246  1  0.62458611  0.49606783  0.23491986  1
  O  O247  1  0.63938440  0.51355090  0.73503043  1
  O  O248  1  0.64696046  0.99729187  0.26159767  1
  O  O249  1  0.62741884  0.98114007  0.73477271  1
  O  O250  1  0.36923061  0.00504941  0.26231520  1
  O  O251  1  0.39224840  0.00043088  0.76703595  1
  O  O252  1  0.38693826  0.50330320  0.26178532  1
  O  O253  1  0.35619034  0.50666873  0.75125542  1
  O  O254  1  0.85012582  -0.00091811  0.25432582  1
  O  O255  1  0.88100783  0.01004295  0.76571881  1
  O  O256  1  0.87377438  0.50167768  0.26683354  1
  O  O257  1  0.86610532  0.51486913  0.74334138  1
  O  O258  1  0.11300683  0.35826503  0.39278361  1
  O  O259  1  0.11515011  0.37180431  0.86926940  1
  O  O260  1  0.13078308  0.86350610  0.36221082  1
  O  O261  1  0.11707381  0.86406743  0.88286456  1
  O  O262  1  0.61602184  0.36285280  0.37734984  1
  O  O263  1  0.61039282  0.37826005  0.88240518  1
  O  O264  1  0.63218526  0.85809139  0.37792188  1
  O  O265  1  0.62121079  0.86587449  0.86174756  1
  O  O266  1  0.36789745  0.11192411  0.13591387  1
  O  O267  1  0.34936548  0.14004777  0.64199056  1
  O  O268  1  0.36732045  0.63272415  0.13624266  1
  O  O269  1  0.39231943  0.62105905  0.62288636  1
  O  O270  1  0.89170128  0.12457325  0.11870306  1
  O  O271  1  0.88490823  0.10969049  0.64977510  1
  O  O272  1  0.87668969  0.60810363  0.14315229  1
  O  O273  1  0.88407032  0.63434934  0.62724139  1
  O  O274  1  0.22276778  0.23545508  0.11571676  1
  O  O275  1  0.25421498  0.26300557  0.64283221  1
  O  O276  1  0.25716583  0.75226414  0.11761081  1
  O  O277  1  0.25260243  0.75115010  0.60772801  1
  O  O278  1  0.74822429  0.26224052  0.09708214  1
  O  O279  1  0.74915180  0.27202966  0.63882445  1
  O  O280  1  0.75128579  0.75549601  0.11482684  1
  O  O281  1  0.76118361  0.74524995  0.60700069  1
  O  O282  1  0.24053252  0.23512528  0.38310062  1
  O  O283  1  0.23813168  0.25021453  0.87221605  1
  O  O284  1  0.24022076  0.73993168  0.37949295  1
  O  O285  1  0.24331869  0.74919162  0.88063689  1
  O  O286  1  0.71221807  0.24016318  0.38014728  1
  O  O287  1  0.75130452  0.25839155  0.88951865  1
  O  O288  1  0.74819758  0.73723151  0.38164755  1
  O  O289  1  0.74484957  0.76048045  0.88665772  1
  O  O290  1  0.00413619  0.11518826  -0.00009218  1
  O  O291  1  0.01889718  0.10322081  0.49691535  1
  O  O292  1  0.01205342  0.62718832  -0.00530946  1
  O  O293  1  0.00771276  0.61989001  0.50460557  1
  O  O294  1  0.52493557  0.13111276  -0.02507671  1
  O  O295  1  0.44030306  0.11348387  0.51140570  1
  O  O296  1  0.50946659  0.61522394  -0.00794343  1
  O  O297  1  0.50988797  0.62074900  0.50490834  1
  O  O298  1  0.48979883  0.39142753  0.50995010  1
  O  O299  1  0.49339514  0.38763999  0.98701832  1
  O  O300  1  0.48858927  0.86059102  0.48730132  1
  O  O301  1  0.51230340  0.85974409  0.97824196  1
  O  O302  1  1.00792097  0.38948410  0.50792090  1
  O  O303  1  0.98707280  0.37996726  0.98605070  1
  O  O304  1  1.01271176  0.88273302  0.48428896  1
  O  O305  1  0.99125002  0.87867238  1.00275469  1
  O  O306  1  0.48857876  0.50910312  0.38544110  1
  O  O307  1  0.50151501  0.49828339  0.88364783  1
  O  O308  1  0.48435507  1.00028741  0.37401263  1
  O  O309  1  0.50999556  0.98075706  0.87118117  1
  O  O310  1  0.99529819  0.48376702  0.38840652  1
  O  O311  1  1.00266063  0.49125077  0.86697842  1
  O  O312  1  1.00455149  0.98682924  0.38537377  1
  O  O313  1  1.00035591  0.98725561  0.88699331  1
  O  O314  1  -0.00717869  0.00040333  0.11418410  1
  O  O315  1  0.01248153  -0.01845164  0.61091824  1
  O  O316  1  0.08120367  0.45581642  0.17841178  1
  O  O317  1  -0.00234295  0.51166958  0.61430402  1
  O  O318  1  0.50421943  -0.03382820  0.11219597  1
  O  O319  1  0.52442472  -0.01512674  0.61650535  1
  O  O320  1  0.51058423  0.49929028  0.10759968  1
  O  O321  1  0.51355698  0.51114437  0.61992379  1
  O  O322  1  0.25992211  0.44873776  0.17285627  1
  O  O323  1  0.23683373  0.39302120  0.75715332  1
  O  O324  1  0.23749753  0.87173493  0.23994054  1
  O  O325  1  0.26646993  0.86367722  0.72603715  1
  O  O326  1  0.73037639  0.37843560  0.26535023  1
  O  O327  1  0.76133110  0.39486712  0.73769745  1
  O  O328  1  0.75304502  0.86789815  0.23949523  1
  O  O329  1  0.74377112  0.86878905  0.75124716  1
  O  O330  1  0.24709098  0.12435331  0.26327014  1
  O  O331  1  0.22895826  0.11569086  0.77838786  1
  O  O332  1  0.26034594  0.62817317  0.25948551  1
  O  O333  1  0.24514191  0.61975476  0.75418194  1
  O  O334  1  0.74444969  0.12566600  0.24120524  1
  O  O335  1  0.76356065  0.13218137  0.74863171  1
  O  O336  1  0.75285471  0.61560003  0.26205840  1
  O  O337  1  0.76261437  0.61557096  0.73867433  1
  O  O338  1  0.36133537  0.11941960  0.36395822  1
  O  O339  1  0.35786267  0.12265983  0.87080588  1
  O  O340  1  0.36840797  0.61820467  0.36686990  1
  O  O341  1  0.36196550  0.62932243  0.87012272  1
  O  O342  1  0.87046724  0.15903592  0.35170554  1
  O  O343  1  0.88177166  0.11028798  0.86674534  1
  O  O344  1  0.87161471  0.61380672  0.36970376  1
  O  O345  1  0.87897555  0.63782085  0.85235761  1
  O  O346  1  0.11117341  0.39203757  0.14235898  1
  O  O347  1  0.12194192  0.37448760  0.64146594  1
  O  O348  1  0.13415454  0.87498634  0.14077259  1
  O  O349  1  0.14614229  0.87724189  0.61800447  1
  O  O350  1  0.62349000  0.38877823  0.11495716  1
  O  O351  1  0.62256743  0.39216183  0.62521512  1
  O  O352  1  0.64228652  0.86798742  0.12999119  1
  O  O353  1  0.63377435  0.86070135  0.63648067  1
  O  O354  1  0.11064477  0.23938938  0.28932748  1
  O  O355  1  0.11691233  0.26593569  0.75942802  1
  O  O356  1  0.12573234  0.74492217  0.26177488  1
  O  O357  1  0.12874867  0.75123724  0.76500204  1
  O  O358  1  0.62054722  0.26452810  0.24611170  1
  O  O359  1  0.59844341  0.25471908  0.73306899  1
  O  O360  1  0.61697748  0.73698299  0.25718799  1
  O  O361  1  0.62546764  0.75278423  0.75617799  1
  O  O362  1  0.36833483  0.23373070  0.23798386  1
  O  O363  1  0.37804631  0.26141729  0.74446596  1
  O  O364  1  0.38123793  0.73985474  0.24536724  1
  O  O365  1  0.39439523  0.74831456  0.75272095  1
  O  O366  1  0.86673245  0.21682266  0.30500991  1
  O  O367  1  0.88897195  0.23703353  0.75991066  1
  O  O368  1  0.87765598  0.72501875  0.25397395  1
  O  O369  1  0.86588390  0.73918825  0.73061268  1
  O  O370  1  0.38100411  0.49815834  0.49034524  1
  O  O371  1  0.38966227  0.50274434  1.00050438  1
  O  O372  1  0.37195923  0.97555050  0.48421869  1
  O  O373  1  0.39536754  1.01273988  0.97294953  1
  O  O374  1  0.89221316  0.50993090  0.49428921  1
  O  O375  1  0.86624484  0.49631974  0.98785674  1
  O  O376  1  0.89515095  1.00181159  0.50679511  1
  O  O377  1  0.88883380  1.00331116  0.98607424  1
  O  O378  1  0.10743608  -0.00671643  0.00071062  1
  O  O379  1  0.12567063  0.00593805  0.50145649  1
  O  O380  1  0.12934751  0.51728323  -0.00466219  1
  O  O381  1  0.11327129  0.51355362  0.49210460  1
  O  O382  1  0.62919076  0.02443187  -0.00655344  1
  O  O383  1  0.62317237  -0.00127988  0.50178545  1
  O  O384  1  0.62120173  0.50812241  0.00431923  1
  O  O385  1  0.61904794  0.50710607  0.50698024  1
  O  O386  1  0.38306338  0.36720976  0.10791219  1
  O  O387  1  0.36815384  0.39034842  0.61472493  1
  O  O388  1  0.35697425  0.86042915  0.13648044  1
  O  O389  1  0.37725700  0.87411029  0.60725520  1
  O  O390  1  0.88631554  0.39321916  0.10750624  1
  O  O391  1  0.87201280  0.37733933  0.62147807  1
  O  O392  1  0.86697499  0.87503869  0.12580116  1
  O  O393  1  0.88004722  0.86100104  0.63015383  1
  O  O394  1  0.13738748  0.12426298  0.38638910  1
  O  O395  1  0.12350040  0.15173608  0.88244822  1
  O  O396  1  0.13033016  0.63009431  0.37894802  1
  O  O397  1  0.13024225  0.63979607  0.87888689  1
  O  O398  1  0.60300585  0.13071012  0.39644547  1
  O  O399  1  0.64160851  0.12157006  0.86045135  1
  O  O400  1  0.63310485  0.62646770  0.38182063  1
  O  O401  1  0.62634538  0.63727074  0.88432331  1
