# generated using pymatgen
data_V73Zn73O256
_symmetry_space_group_name_H-M   'P 1'
_cell_length_a   16.90596457
_cell_length_b   16.94241429
_cell_length_c   16.85160873
_cell_angle_alpha   90.26854128
_cell_angle_beta   89.76218715
_cell_angle_gamma   89.87355020
_symmetry_Int_Tables_number   1
_chemical_formula_structural   V73Zn73O256
_chemical_formula_sum   'V73 Zn73 O256'
_cell_volume   4826.66359716
_cell_formula_units_Z   1
loop_
 _symmetry_equiv_pos_site_id
 _symmetry_equiv_pos_as_xyz
  1  'x, y, z'
loop_
 _atom_site_type_symbol
 _atom_site_label
 _atom_site_symmetry_multiplicity
 _atom_site_fract_x
 _atom_site_fract_y
 _atom_site_fract_z
 _atom_site_occupancy
  V  V0  1  0.64064130  0.25272264  0.39338159  1
  V  V1  1  0.25975988  0.87593991  0.61274125  1
  V  V2  1  0.50852866  0.76203337  0.24262422  1
  V  V3  1  0.49848738  0.86923924  0.38952727  1
  V  V4  1  0.13225719  0.49203463  0.61809533  1
  V  V5  1  0.62260443  0.25708068  0.87718114  1
  V  V6  1  0.87147621  0.36825652  0.00228640  1
  V  V7  1  0.49338663  0.87670111  0.86672123  1
  V  V8  1  0.13688473  0.63272484  0.50325420  1
  V  V9  1  0.86453883  0.01377259  0.37972581  1
  V  V10  1  0.13231972  0.87927723  0.74711676  1
  V  V11  1  0.49895544  0.13067169  0.12828357  1
  V  V12  1  0.25165071  0.62475304  0.86932629  1
  V  V13  1  0.00094696  0.87860186  0.87464587  1
  V  V14  1  -0.01543358  0.63052835  0.13282740  1
  V  V15  1  0.23746183  0.14397386  0.38087110  1
  V  V16  1  0.36828471  0.87438379  0.00040315  1
  V  V17  1  0.90053508  0.24762962  0.12840443  1
  V  V18  1  0.74718169  0.49974869  0.74527618  1
  V  V19  1  0.63686901  0.88132546  0.74860209  1
  V  V20  1  0.36945771  0.00071228  0.37239575  1
  V  V21  1  0.24862134  0.38001674  0.13578177  1
  V  V22  1  0.00411329  0.38053986  0.87049834  1
  V  V23  1  0.00418984  0.50800916  0.00390932  1
  V  V24  1  0.61955561  0.74708750  0.87756722  1
  V  V25  1  0.74295672  0.36486680  0.13054831  1
  V  V26  1  0.74980895  0.51242305  0.25734109  1
  V  V27  1  0.51297848  0.50283557  0.51399463  1
  V  V28  1  0.13484738  0.87646483  0.24210957  1
  V  V29  1  0.12493343  0.12890843  0.00274072  1
  V  V30  1  0.12796540  0.25162503  0.87170308  1
  V  V31  1  0.37563668  0.37673309  -0.00653582  1
  V  V32  1  0.62824528  0.12794643  -0.00170300  1
  V  V33  1  0.74954375  0.12539420  0.86193870  1
  V  V34  1  0.00444855  0.50491318  0.49401946  1
  V  V35  1  0.74583297  0.62030195  0.88285057  1
  V  V36  1  0.44190718  0.57716950  0.18265128  1
  V  V37  1  0.13000724  0.51069561  0.13156963  1
  V  V38  1  0.37404574  0.75230191  0.12664690  1
  V  V39  1  0.37420017  0.24998828  0.13165207  1
  V  V40  1  -0.00745062  0.88090438  0.38154858  1
  V  V41  1  0.87238483  0.50440317  0.87849986  1
  V  V42  1  0.48854568  0.73287057  0.74464382  1
  V  V43  1  0.23672760  0.74962545  0.00074268  1
  V  V44  1  0.50074660  0.37003698  0.36184425  1
  V  V45  1  0.50422981  0.01782810  0.50410269  1
  V  V46  1  0.61702062  0.62266284  0.00299017  1
  V  V47  1  -0.00578542  0.00775316  0.00296059  1
  V  V48  1  0.77201893  0.36501772  0.62302999  1
  V  V49  1  0.10499097  0.36862438  0.25781228  1
  V  V50  1  0.13631195  0.75284877  0.37351178  1
  V  V51  1  0.25087819  0.24944090  -0.00244863  1
  V  V52  1  -0.01123132  0.75248752  0.25288635  1
  V  V53  1  0.37584489  0.50232870  0.86740083  1
  V  V54  1  0.37105259  0.36799694  0.52006974  1
  V  V55  1  0.13536941  0.00235442  0.12682761  1
  V  V56  1  0.36468495  0.01622000  0.87282358  1
  V  V57  1  0.87069206  0.00031020  0.85848575  1
  V  V58  1  0.36749387  0.13167285  0.72682444  1
  V  V59  1  0.50042988  0.24015163  0.73459317  1
  V  V60  1  0.37172230  0.73713204  0.60804717  1
  V  V61  1  0.01575272  0.01426978  0.51038256  1
  V  V62  1  0.25758497  0.61142585  0.35416393  1
  V  V63  1  0.49644662  0.49898257  -0.00528408  1
  V  V64  1  0.25162401  0.49533539  0.74250177  1
  V  V65  1  0.87789894  0.51685175  0.36969255  1
  V  V66  1  0.49941699  0.00353941  -0.00006453  1
  V  V67  1  0.64091816  0.74746114  0.38681966  1
  V  V68  1  0.62462157  0.49972571  0.13556338  1
  V  V69  1  0.62058603  0.37193921  0.73364727  1
  V  V70  1  0.11676781  0.74299334  0.86738541  1
  V  V71  1  -0.04638144  0.19431076  0.70552039  1
  V  V72  1  0.87801318  0.36788337  0.48653423  1
  Zn  Zn73  1  0.36497883  0.11896733  0.24766684  1
  Zn  Zn74  1  0.86968490  0.13086275  0.25232113  1
  Zn  Zn75  1  0.24431794  0.01211000  0.74233383  1
  Zn  Zn76  1  0.61895496  -0.00699354  0.62392265  1
  Zn  Zn77  1  0.81483629  0.80531875  0.06515019  1
  Zn  Zn78  1  0.12207911  0.37104631  0.74000468  1
  Zn  Zn79  1  0.93818386  0.67843461  0.68803482  1
  Zn  Zn80  1  0.72271085  -0.00282362  0.27027847  1
  Zn  Zn81  1  0.65531884  -0.01729098  0.12366174  1
  Zn  Zn82  1  0.18669389  0.18589407  0.19677527  1
  Zn  Zn83  1  0.15808403  0.17149627  0.69010223  1
  Zn  Zn84  1  0.18310091  0.69284002  0.18417159  1
  Zn  Zn85  1  0.19595602  0.68775944  0.68556913  1
  Zn  Zn86  1  0.68738030  0.17659562  0.19228870  1
  Zn  Zn87  1  0.70200740  0.18911189  0.68209397  1
  Zn  Zn88  1  0.68479644  0.68434581  0.17990191  1
  Zn  Zn89  1  0.69908786  0.70252343  0.70776260  1
  Zn  Zn90  1  0.31051448  0.31469961  0.32368162  1
  Zn  Zn91  1  0.31276842  0.31415718  0.80543864  1
  Zn  Zn92  1  0.31660394  0.81635948  0.31295681  1
  Zn  Zn93  1  0.31111608  0.81166008  0.81099304  1
  Zn  Zn94  1  0.81142533  0.31542978  0.30729231  1
  Zn  Zn95  1  0.81228190  0.31345036  0.81391236  1
  Zn  Zn96  1  0.78209431  0.79065708  0.26091901  1
  Zn  Zn97  1  0.82209737  0.79832615  0.85897399  1
  Zn  Zn98  1  0.19848435  0.43389634  0.42896436  1
  Zn  Zn99  1  0.18926377  0.43928775  0.94120072  1
  Zn  Zn100  1  0.18512410  0.93876383  0.43666918  1
  Zn  Zn101  1  0.18440329  0.93633242  0.93596832  1
  Zn  Zn102  1  0.68712654  0.43375774  0.43776035  1
  Zn  Zn103  1  0.68620085  0.43359235  0.94332587  1
  Zn  Zn104  1  0.67876970  0.93036086  0.43290304  1
  Zn  Zn105  1  0.68551001  0.93914386  0.93511477  1
  Zn  Zn106  1  0.30965115  0.06406886  0.06055604  1
  Zn  Zn107  1  0.31232636  0.05493132  0.55185334  1
  Zn  Zn108  1  0.30479474  0.56716254  0.05497154  1
  Zn  Zn109  1  0.32081206  0.55576397  0.54827640  1
  Zn  Zn110  1  0.81757173  0.07525214  0.05584315  1
  Zn  Zn111  1  0.85130422  0.07603082  0.56582059  1
  Zn  Zn112  1  0.80814159  0.56085929  0.06465603  1
  Zn  Zn113  1  0.80833002  0.55636505  0.55663914  1
  Zn  Zn114  1  0.43562422  0.41257499  0.19625588  1
  Zn  Zn115  1  0.43957267  0.44028610  0.67925974  1
  Zn  Zn116  1  0.43581200  0.93742739  0.18576539  1
  Zn  Zn117  1  0.43229605  0.93894033  0.68145973  1
  Zn  Zn118  1  0.93355285  0.43800320  0.18794839  1
  Zn  Zn119  1  0.94823999  0.47802708  0.69617632  1
  Zn  Zn120  1  0.86396965  0.94174053  0.18922193  1
  Zn  Zn121  1  0.94137523  0.92800235  0.68696597  1
  Zn  Zn122  1  0.06704915  0.05902582  0.31619504  1
  Zn  Zn123  1  0.05257385  0.06188567  0.79186945  1
  Zn  Zn124  1  0.06755732  0.56445656  0.31248766  1
  Zn  Zn125  1  0.05985047  0.56759252  0.80475259  1
  Zn  Zn126  1  0.55246343  0.05078759  0.30408538  1
  Zn  Zn127  1  0.55914370  0.06384799  0.81015744  1
  Zn  Zn128  1  0.56113228  0.56548481  0.33654973  1
  Zn  Zn129  1  0.56256144  0.55462643  0.81002444  1
  Zn  Zn130  1  0.43713670  0.19217171  0.43433113  1
  Zn  Zn131  1  0.44264090  0.19480236  0.93334005  1
  Zn  Zn132  1  0.43832064  0.67855278  0.43085677  1
  Zn  Zn133  1  0.43496916  0.68527798  0.93711812  1
  Zn  Zn134  1  0.94345198  0.18160108  0.43764687  1
  Zn  Zn135  1  0.94689932  0.18216769  0.91095232  1
  Zn  Zn136  1  0.94369372  0.68821969  0.43766021  1
  Zn  Zn137  1  0.93519321  0.69048102  0.95105160  1
  Zn  Zn138  1  0.06608227  0.32412181  0.05992567  1
  Zn  Zn139  1  0.04370291  0.32292396  0.56854399  1
  Zn  Zn140  1  0.00621898  0.84975721  0.09279987  1
  Zn  Zn141  1  0.06897329  0.81635240  0.56285344  1
  Zn  Zn142  1  0.56132791  0.31420056  0.06379430  1
  Zn  Zn143  1  0.56077030  0.30815321  0.54890621  1
  Zn  Zn144  1  0.55759466  0.81301669  0.05811813  1
  Zn  Zn145  1  0.56489507  0.80498508  0.56848747  1
  O  O146  1  0.12806325  0.11280216  0.11889714  1
  O  O147  1  0.06195673  0.11718814  0.69017018  1
  O  O148  1  0.11771446  0.61311480  0.12716174  1
  O  O149  1  0.13226670  0.62536935  0.60820374  1
  O  O150  1  0.60757449  0.13358723  0.11347215  1
  O  O151  1  0.68867257  0.09173654  0.61441238  1
  O  O152  1  0.62540784  0.61248782  0.11333370  1
  O  O153  1  0.66578276  0.64416314  0.60308372  1
  O  O154  1  0.39654653  0.36965441  0.37038193  1
  O  O155  1  0.36768195  0.38445069  0.88656198  1
  O  O156  1  0.39026134  0.88447084  0.36769360  1
  O  O157  1  0.37911593  0.88361320  0.87992829  1
  O  O158  1  0.86782385  0.38610834  0.38471724  1
  O  O159  1  0.87986464  0.38409280  0.88491054  1
  O  O160  1  0.89346232  0.88692210  0.37675117  1
  O  O161  1  0.88535495  0.89307270  0.87054944  1
  O  O162  1  0.26922036  -0.00968040  0.37767231  1
  O  O163  1  0.26364280  -0.00122185  0.87185484  1
  O  O164  1  0.24909495  0.51250983  0.36289154  1
  O  O165  1  0.25461294  0.50725180  0.87013919  1
  O  O166  1  0.76175969  -0.00542637  0.38587687  1
  O  O167  1  0.76199992  0.00567324  0.88016001  1
  O  O168  1  0.75612297  0.49737233  0.36411661  1
  O  O169  1  0.75260588  0.50213318  0.87477566  1
  O  O170  1  0.23628540  0.49695421  0.11585721  1
  O  O171  1  0.24102044  0.50922274  0.62912351  1
  O  O172  1  0.23523313  0.99494929  0.11634047  1
  O  O173  1  0.26244496  0.98266867  0.62853329  1
  O  O174  1  0.74220002  0.49555068  0.13541029  1
  O  O175  1  0.75588729  0.49565322  0.64203521  1
  O  O176  1  0.76992264  1.00640898  0.13081495  1
  O  O177  1  0.78026059  0.91292307  0.57858812  1
  O  O178  1  0.00461406  0.37643352  0.25001224  1
  O  O179  1  0.00484522  0.39710677  0.76703884  1
  O  O180  1  0.00840174  0.86031423  0.26124880  1
  O  O181  1  0.01796424  0.87982010  0.76399236  1
  O  O182  1  0.51303172  0.36698403  0.25846739  1
  O  O183  1  0.51571774  0.36352285  0.74080943  1
  O  O184  1  0.50103090  0.86384815  0.24775981  1
  O  O185  1  0.49694083  0.87206076  0.76000270  1
  O  O186  1  0.49076636  0.12149275  0.22855937  1
  O  O187  1  0.49034025  0.13422219  0.74823978  1
  O  O188  1  0.49535316  0.63266288  0.25051274  1
  O  O189  1  0.50698252  0.63513957  0.75142073  1
  O  O190  1  0.99686002  0.15332466  0.28211312  1
  O  O191  1  0.97770170  0.14560426  0.80093339  1
  O  O192  1  1.00604942  0.63674088  0.24176606  1
  O  O193  1  0.97328751  0.58836224  0.73827073  1
  O  O194  1  0.36977561  0.25916492  0.00089804  1
  O  O195  1  0.38460062  0.26742013  0.50091353  1
  O  O196  1  0.37112256  0.75711938  0.00472516  1
  O  O197  1  0.38295714  0.74663042  0.50974065  1
  O  O198  1  0.88539128  0.26449010  0.00728412  1
  O  O199  1  0.89094959  0.26919525  0.49050768  1
  O  O200  1  0.85259916  0.76193681  -0.03403708  1
  O  O201  1  0.87068917  0.70801190  0.52824164  1
  O  O202  1  0.14093536  0.24299750  0.52998320  1
  O  O203  1  0.13356096  0.24868206  0.99958167  1
  O  O204  1  0.12153478  0.73799811  0.49183111  1
  O  O205  1  0.13716341  0.75553217  0.98664556  1
  O  O206  1  0.63522872  0.23988165  0.49486298  1
  O  O207  1  0.61510517  0.24558023  0.98361410  1
  O  O208  1  0.63120675  0.75972324  0.48808913  1
  O  O209  1  0.60661963  0.73423957  0.98688019  1
  O  O210  1  0.48878036  0.23913805  0.11339570  1
  O  O211  1  0.51221827  0.24435758  0.63633880  1
  O  O212  1  0.49226497  0.75274347  0.13211909  1
  O  O213  1  0.48595155  0.75239367  0.63773330  1
  O  O214  1  0.99921540  0.25684931  0.12519378  1
  O  O215  1  1.01428219  0.26096011  0.65390701  1
  O  O216  1  1.00132441  0.73879162  0.13768277  1
  O  O217  1  0.98145953  0.77594824  0.63670096  1
  O  O218  1  0.00107147  0.21185920  0.33504390  1
  O  O219  1  0.01926555  0.27063072  0.88865653  1
  O  O220  1  0.01118050  0.75555072  0.36966386  1
  O  O221  1  0.01250226  0.75578017  0.88148885  1
  O  O222  1  0.51645609  0.26368329  0.38752561  1
  O  O223  1  0.51658825  0.24679100  0.85930828  1
  O  O224  1  0.49449789  0.75903887  0.35944509  1
  O  O225  1  0.50106640  0.75537844  0.86599993  1
  O  O226  1  0.25782470  0.11790919  0.47902985  1
  O  O227  1  0.24089376  0.13969701  1.00351633  1
  O  O228  1  0.23837478  0.61884626  0.48480194  1
  O  O229  1  0.24966443  0.63900153  0.98440063  1
  O  O230  1  0.73612633  0.09094140  0.54746363  1
  O  O231  1  0.73182905  0.12373533  0.99318762  1
  O  O232  1  0.71566366  0.63503827  0.54525543  1
  O  O233  1  0.73303427  0.61546986  0.99209298  1
  O  O234  1  0.25809227  0.37181845  0.01094082  1
  O  O235  1  0.27160363  0.38257724  0.49433804  1
  O  O236  1  0.25831321  0.86022567  -0.01209528  1
  O  O237  1  0.24394416  0.87332233  0.51428658  1
  O  O238  1  0.76043718  0.38348577  0.01606172  1
  O  O239  1  0.76739447  0.38477649  0.51411990  1
  O  O240  1  0.71438782  0.86476171  0.02025037  1
  O  O241  1  0.76375195  0.87116033  0.51944131  1
  O  O242  1  0.11829186  0.49169933  0.23486388  1
  O  O243  1  0.13175744  0.50337704  0.73126812  1
  O  O244  1  0.11760367  0.99110484  0.23570486  1
  O  O245  1  0.13236451  0.98365962  0.76351706  1
  O  O246  1  0.63350783  0.50687718  0.24235805  1
  O  O247  1  0.63443395  0.47899553  0.75871190  1
  O  O248  1  0.61599588  0.99461714  0.23005386  1
  O  O249  1  0.61654114  0.98667479  0.74729165  1
  O  O250  1  0.38712671  0.00149740  0.26505793  1
  O  O251  1  0.37774719  0.01808251  0.75886806  1
  O  O252  1  0.38480246  0.51293330  0.23166912  1
  O  O253  1  0.36955535  0.49157343  0.76059475  1
  O  O254  1  0.89697744  0.01469630  0.27433678  1
  O  O255  1  0.87785342  -0.00129877  0.75845902  1
  O  O256  1  0.86403598  0.49843203  0.26045035  1
  O  O257  1  0.85318487  0.48724748  0.76695751  1
  O  O258  1  0.12635297  0.38563724  0.35605050  1
  O  O259  1  0.11883856  0.37371200  0.87883379  1
  O  O260  1  0.12151535  0.87245947  0.36082024  1
  O  O261  1  0.12415667  0.86221994  0.86700706  1
  O  O262  1  0.62397858  0.35857488  0.37850726  1
  O  O263  1  0.63543818  0.35936743  0.86641132  1
  O  O264  1  0.60685609  0.86246599  0.37064920  1
  O  O265  1  0.61137162  0.86764452  0.87044984  1
  O  O266  1  0.38079289  0.13415870  0.11879015  1
  O  O267  1  0.37659329  0.12263504  0.62965037  1
  O  O268  1  0.37865020  0.63301110  0.11901616  1
  O  O269  1  0.36238585  0.63811288  0.62069256  1
  O  O270  1  0.88352388  0.14791862  0.11484842  1
  O  O271  1  0.89390198  0.13838522  0.64533296  1
  O  O272  1  0.88556418  0.62021489  0.12918951  1
  O  O273  1  0.87981974  0.64869742  0.58384294  1
  O  O274  1  0.25635610  0.25962383  0.11509885  1
  O  O275  1  0.19170290  0.22865910  0.58347779  1
  O  O276  1  0.25513250  0.74392364  0.10658856  1
  O  O277  1  0.26358507  0.76043052  0.62997436  1
  O  O278  1  0.73426467  0.26490666  0.13086639  1
  O  O279  1  0.76557347  0.26569259  0.62871163  1
  O  O280  1  0.76508461  0.75368004  0.15318820  1
  O  O281  1  0.80118448  0.75509465  0.69204941  1
  O  O282  1  0.24586263  0.24505216  0.38075921  1
  O  O283  1  0.24066549  0.26662168  0.88914217  1
  O  O284  1  0.23832609  0.75308536  0.37060570  1
  O  O285  1  0.24321654  0.74227781  0.87877071  1
  O  O286  1  0.74111685  0.25470438  0.37274841  1
  O  O287  1  0.73701241  0.23613305  0.86764541  1
  O  O288  1  0.73773264  0.76497150  0.36468219  1
  O  O289  1  0.72635690  0.73261152  0.86271868  1
  O  O290  1  0.01461851  0.11732575  -0.01228501  1
  O  O291  1  0.00763356  0.11596361  0.50279788  1
  O  O292  1  -0.00421195  0.61934941  0.01643312  1
  O  O293  1  0.02109976  0.61263709  0.48729636  1
  O  O294  1  0.50570881  0.11965170  -0.00067249  1
  O  O295  1  0.50765529  0.11553479  0.49278221  1
  O  O296  1  0.50415883  0.61102842  -0.00298644  1
  O  O297  1  0.50068729  0.60072379  0.48091832  1
  O  O298  1  0.49300029  0.38370345  0.50053417  1
  O  O299  1  0.48811423  0.38834096  1.00876503  1
  O  O300  1  0.49625255  0.86474919  0.48938547  1
  O  O301  1  0.48981797  0.88402035  0.98885895  1
  O  O302  1  0.98870796  0.39067204  0.49654872  1
  O  O303  1  0.99121012  0.39020004  0.99590555  1
  O  O304  1  1.01006518  0.87321589  0.48366193  1
  O  O305  1  1.01478578  0.89646519  0.98265816  1
  O  O306  1  0.51600949  0.47549745  0.38178293  1
  O  O307  1  0.48955430  0.49987989  0.88299250  1
  O  O308  1  0.50096485  0.98578206  0.38550987  1
  O  O309  1  0.48827100  0.99608839  0.88152294  1
  O  O310  1  0.98553530  0.50559596  0.37490287  1
  O  O311  1  0.99276302  0.50113753  0.88668465  1
  O  O312  1  1.00460679  0.99122743  0.38696526  1
  O  O313  1  0.99094621  0.99801829  0.87552316  1
  O  O314  1  0.01226657  0.00305903  0.10291961  1
  O  O315  1  -0.01077423  -0.01055331  0.60633889  1
  O  O316  1  0.00405365  0.51158084  0.12345043  1
  O  O317  1  0.02051058  0.50114314  0.60792338  1
  O  O318  1  0.48691898  0.01377697  0.10796737  1
  O  O319  1  0.49691732  -0.00072643  0.60967132  1
  O  O320  1  0.50260302  0.50663906  0.12400776  1
  O  O321  1  0.50509891  0.50692378  0.61792986  1
  O  O322  1  0.25602511  0.37723879  0.23645469  1
  O  O323  1  0.24356070  0.39164429  0.75436514  1
  O  O324  1  0.23384033  0.87084104  0.24558755  1
  O  O325  1  0.24152554  0.87733945  0.74868731  1
  O  O326  1  0.75195737  0.38751752  0.23374974  1
  O  O327  1  0.74363252  0.37901406  0.74088226  1
  O  O328  1  0.77891526  0.90016825  0.25285386  1
  O  O329  1  0.73209137  0.87369075  0.76961100  1
  O  O330  1  0.25289917  0.12665481  0.26667728  1
  O  O331  1  0.26151138  0.13158207  0.73587207  1
  O  O332  1  0.24338601  0.62960462  0.25452164  1
  O  O333  1  0.24645440  0.61344096  0.76093421  1
  O  O334  1  0.75952999  0.10123941  0.23013337  1
  O  O335  1  0.74287706  0.11698370  0.76321966  1
  O  O336  1  0.74956152  0.61017565  0.24794791  1
  O  O337  1  0.73478741  0.60429635  0.76434949  1
  O  O338  1  0.37559362  0.11303802  0.37105366  1
  O  O339  1  0.37411444  0.11708422  0.87742099  1
  O  O340  1  0.35439226  0.63614957  0.36919387  1
  O  O341  1  0.36582018  0.61234860  0.87866778  1
  O  O342  1  0.86460872  0.11814094  0.38144641  1
  O  O343  1  0.85429381  0.11692699  0.88337534  1
  O  O344  1  0.87100208  0.61528928  0.37890953  1
  O  O345  1  0.86129043  0.61160671  0.88574126  1
  O  O346  1  0.13183018  0.38803880  0.13214596  1
  O  O347  1  0.13044759  0.38963812  0.61894892  1
  O  O348  1  0.11343547  0.88489226  0.13409349  1
  O  O349  1  0.13847343  0.86472500  0.64098311  1
  O  O350  1  0.63385867  0.38739877  0.11646138  1
  O  O351  1  0.64035810  0.36663953  0.63321822  1
  O  O352  1  0.65382013  0.87197101  0.08321645  1
  O  O353  1  0.62721929  0.86982314  0.64320580  1
  O  O354  1  0.12703205  0.27159006  0.23879491  1
  O  O355  1  0.14014839  0.25875169  0.76872901  1
  O  O356  1  0.11905218  0.76194309  0.25354834  1
  O  O357  1  0.12916027  0.75635322  0.76166681  1
  O  O358  1  0.61602085  0.20418747  0.28346735  1
  O  O359  1  0.62072689  0.25322797  0.75161332  1
  O  O360  1  0.60860471  0.74666280  0.24755886  1
  O  O361  1  0.60864539  0.76008850  0.75700652  1
  O  O362  1  0.36987543  0.25272281  0.23256981  1
  O  O363  1  0.38697839  0.24076336  0.75251876  1
  O  O364  1  0.37902857  0.75792243  0.23174865  1
  O  O365  1  0.38676009  0.74497199  0.75480884  1
  O  O366  1  0.87116836  0.25005633  0.23167392  1
  O  O367  1  0.88792829  0.25685988  0.75424387  1
  O  O368  1  0.89247621  0.74839932  0.26659758  1
  O  O369  1  0.85424349  0.73876952  0.75284303  1
  O  O370  1  0.39297664  0.48286271  0.50302834  1
  O  O371  1  0.37775899  0.49525198  0.99301555  1
  O  O372  1  0.39388162  1.00063692  0.48414115  1
  O  O373  1  0.37617119  0.99578698  0.98822943  1
  O  O374  1  0.88200078  0.49966873  0.48716837  1
  O  O375  1  0.88144266  0.49364903  0.99708663  1
  O  O376  1  0.89230625  1.00547641  0.48514779  1
  O  O377  1  0.89187025  1.01105502  0.99006622  1
  O  O378  1  0.12488212  0.01089418  0.00281846  1
  O  O379  1  0.11558399  -0.00359943  0.50477652  1
  O  O380  1  0.11220065  0.49494973  0.01389605  1
  O  O381  1  0.12610334  0.50617091  0.50366980  1
  O  O382  1  0.61341215  0.00973986  0.00080997  1
  O  O383  1  0.60861290  -0.01393571  0.50402591  1
  O  O384  1  0.61276588  0.50221134  0.00670899  1
  O  O385  1  0.61608501  0.48876737  0.50577937  1
  O  O386  1  0.36839275  0.36895280  0.11453455  1
  O  O387  1  0.37168374  0.36966436  0.62336061  1
  O  O388  1  0.37796347  0.86956845  0.10897598  1
  O  O389  1  0.36486295  0.86228243  0.62917297  1
  O  O390  1  0.86512533  0.36535086  0.12145924  1
  O  O391  1  0.87277940  0.38717632  0.61858819  1
  O  O392  1  0.89738355  0.87253976  0.10916874  1
  O  O393  1  0.91919283  0.82837812  0.62802225  1
  O  O394  1  0.13858745  0.12213180  0.37481052  1
  O  O395  1  0.12769264  0.14821869  0.88462610  1
  O  O396  1  0.13544669  0.63423540  0.37732425  1
  O  O397  1  0.12854637  0.63718405  0.86909172  1
  O  O398  1  0.62139548  0.14496043  0.34454268  1
  O  O399  1  0.63106950  0.12928404  0.87832168  1
  O  O400  1  0.62655157  0.64817338  0.37012303  1
  O  O401  1  0.62531954  0.62499079  0.88326322  1
