# generated using pymatgen
data_V73Zn73O256
_symmetry_space_group_name_H-M   'P 1'
_cell_length_a   16.87045033
_cell_length_b   16.82766933
_cell_length_c   16.86705053
_cell_angle_alpha   90.06907913
_cell_angle_beta   89.88157811
_cell_angle_gamma   89.94759065
_symmetry_Int_Tables_number   1
_chemical_formula_structural   V73Zn73O256
_chemical_formula_sum   'V73 Zn73 O256'
_cell_volume   4788.37731663
_cell_formula_units_Z   1
loop_
 _symmetry_equiv_pos_site_id
 _symmetry_equiv_pos_as_xyz
  1  'x, y, z'
loop_
 _atom_site_type_symbol
 _atom_site_label
 _atom_site_symmetry_multiplicity
 _atom_site_fract_x
 _atom_site_fract_y
 _atom_site_fract_z
 _atom_site_occupancy
  V  V0  1  0.12335390  0.37391343  0.23867766  1
  V  V1  1  0.24348188  0.25665033  0.00537400  1
  V  V2  1  0.74547645  0.37505368  0.12877447  1
  V  V3  1  0.86470338  0.00529651  0.87166047  1
  V  V4  1  0.74566448  0.24549345  -0.01098820  1
  V  V5  1  0.88960768  0.24194785  0.11988733  1
  V  V6  1  0.74887733  0.87427019  0.11250052  1
  V  V7  1  0.63393061  0.71756566  0.39249982  1
  V  V8  1  0.87682105  0.75698136  0.60055345  1
  V  V9  1  0.74318964  0.73440223  -0.00469144  1
  V  V10  1  0.01741077  0.37481918  0.87165452  1
  V  V11  1  -0.00189594  0.87529069  0.87078396  1
  V  V12  1  0.39277512  0.37798336  0.01402417  1
  V  V13  1  0.02655331  0.25143672  0.74814375  1
  V  V14  1  0.11262543  0.76102968  0.38535016  1
  V  V15  1  0.40239500  0.56530403  0.69193517  1
  V  V16  1  0.24246399  -0.00598569  0.74407328  1
  V  V17  1  0.62669087  0.73736755  0.87162051  1
  V  V18  1  0.86785240  0.50086284  0.86073875  1
  V  V19  1  0.86945721  0.63883846  0.75303066  1
  V  V20  1  0.12223284  0.87312504  0.24347103  1
  V  V21  1  0.24291645  0.49739929  0.75907424  1
  V  V22  1  0.75149896  0.00603711  0.24266219  1
  V  V23  1  0.49562776  0.75043113  0.73838651  1
  V  V24  1  0.62712403  0.12628438  0.49066379  1
  V  V25  1  0.61749828  0.50678832  0.11680174  1
  V  V26  1  0.25065129  0.00732051  0.25479166  1
  V  V27  1  0.87370072  0.36939845  0.51027312  1
  V  V28  1  0.86802832  0.13342949  0.74508629  1
  V  V29  1  0.62661011  0.12721126  -0.01985352  1
  V  V30  1  -0.00298264  0.61244719  0.11598584  1
  V  V31  1  0.63706233  0.88363929  0.74444380  1
  V  V32  1  0.88357397  -0.01257434  0.37896771  1
  V  V33  1  0.49965893  0.00881114  0.00726674  1
  V  V34  1  0.00470407  0.61263241  0.63450228  1
  V  V35  1  0.37275698  0.51293468  0.38023098  1
  V  V36  1  0.87262285  0.75362146  0.11422594  1
  V  V37  1  0.37964970  0.23324096  0.13276871  1
  V  V38  1  0.25117802  0.33776919  0.59235808  1
  V  V39  1  -0.00772753  0.75483775  0.25096677  1
  V  V40  1  -0.00198035  0.00986552  0.00036037  1
  V  V41  1  0.37349645  0.13735796  0.73457678  1
  V  V42  1  0.11994749  0.60330658  0.50156191  1
  V  V43  1  0.88036574  0.38321360  -0.00439968  1
  V  V44  1  0.74758084  0.49744338  0.26059010  1
  V  V45  1  0.37522041  0.86729214  0.49380641  1
  V  V46  1  0.38186910  0.00776819  0.36944293  1
  V  V47  1  0.39574982  0.49569210  0.88750895  1
  V  V48  1  0.49916218  0.64118926  0.12002270  1
  V  V49  1  0.12557960  0.01454539  0.11666670  1
  V  V50  1  0.24900851  0.50616001  0.23839955  1
  V  V51  1  0.51359603  0.24449797  0.75535034  1
  V  V52  1  0.62387437  0.38553088  0.77723087  1
  V  V53  1  0.86948417  0.61800881  0.25813267  1
  V  V54  1  0.61965934  0.87137611  0.25501247  1
  V  V55  1  0.36082628  0.75686895  0.63447499  1
  V  V56  1  0.72852187  0.36992377  0.62120915  1
  V  V57  1  0.62441016  0.01449478  0.12061617  1
  V  V58  1  0.49261020  0.00311512  0.51849447  1
  V  V59  1  0.37504687  0.01116270  0.87495774  1
  V  V60  1  0.36790251  0.86698161  0.00167993  1
  V  V61  1  0.89464667  0.12352788  0.24032970  1
  V  V62  1  0.00578729  0.39623565  0.38326583  1
  V  V63  1  0.50521122  0.24427577  0.25455288  1
  V  V64  1  0.26008035  0.63256192  0.88226505  1
  V  V65  1  0.12598670  0.61705612  0.00353185  1
  V  V66  1  0.62572599  0.60961342  0.54469226  1
  V  V67  1  0.49089470  0.37568978  0.38100820  1
  V  V68  1  0.64680463  0.00433440  0.62468022  1
  V  V69  1  0.49925034  0.87972615  0.87211355  1
  V  V70  1  0.12032250  0.75499432  0.87509613  1
  V  V71  1  0.23875763  0.13342807  0.88338182  1
  V  V72  1  0.24000158  0.21599080  0.46347554  1
  Zn  Zn73  1  0.49274922  0.49588966  0.51908100  1
  Zn  Zn74  1  0.24384413  0.85819525  0.11470670  1
  Zn  Zn75  1  0.33532046  0.69922122  0.18936113  1
  Zn  Zn76  1  0.49351804  0.74224712  0.26853275  1
  Zn  Zn77  1  0.00480452  0.13671472  0.62007778  1
  Zn  Zn78  1  0.23018103  0.76065483  0.51352782  1
  Zn  Zn79  1  0.64695355  0.27946122  0.37813789  1
  Zn  Zn80  1  0.25319666  0.63403636  0.37395661  1
  Zn  Zn81  1  0.76017258  0.13383298  0.38184685  1
  Zn  Zn82  1  0.19088613  0.19474491  0.19052323  1
  Zn  Zn83  1  0.17987882  0.16597741  0.67864191  1
  Zn  Zn84  1  0.17494098  0.68368246  0.18981788  1
  Zn  Zn85  1  0.18321975  0.67720771  0.69606598  1
  Zn  Zn86  1  0.71191666  0.21672090  0.22045602  1
  Zn  Zn87  1  0.69310055  0.19192236  0.67593897  1
  Zn  Zn88  1  0.68455293  0.68561057  0.18934414  1
  Zn  Zn89  1  0.70144915  0.70013452  0.68582172  1
  Zn  Zn90  1  0.30987890  0.31848356  0.31384351  1
  Zn  Zn91  1  0.31684234  0.31734154  0.82012565  1
  Zn  Zn92  1  0.29931742  0.81684806  0.32071136  1
  Zn  Zn93  1  0.30716138  0.81342661  0.82106046  1
  Zn  Zn94  1  0.83657578  0.31187548  0.32056948  1
  Zn  Zn95  1  0.80972913  0.31222729  0.80399450  1
  Zn  Zn96  1  0.80380536  0.80930970  0.31003847  1
  Zn  Zn97  1  0.81336806  0.81646959  0.81971108  1
  Zn  Zn98  1  0.19748040  0.42399096  0.42742365  1
  Zn  Zn99  1  0.19704298  0.44085802  0.94745461  1
  Zn  Zn100  1  0.19177503  0.93459487  0.43658552  1
  Zn  Zn101  1  0.18596760  0.94162322  0.93191116  1
  Zn  Zn102  1  0.68222821  0.44445598  0.45014513  1
  Zn  Zn103  1  0.68925694  0.44403153  0.93823339  1
  Zn  Zn104  1  0.71239431  0.93426690  0.42618961  1
  Zn  Zn105  1  0.68524680  0.93575531  0.93550769  1
  Zn  Zn106  1  0.30994777  0.05970218  0.06515528  1
  Zn  Zn107  1  0.29747448  0.06724431  0.55700024  1
  Zn  Zn108  1  0.31698346  0.56730273  0.06085062  1
  Zn  Zn109  1  0.30182708  0.56889955  0.55319936  1
  Zn  Zn110  1  0.81256060  0.06356962  0.05649783  1
  Zn  Zn111  1  0.82051407  0.07155641  0.56099444  1
  Zn  Zn112  1  0.81219149  0.56149233  0.06499642  1
  Zn  Zn113  1  0.81339476  0.54536676  0.57383578  1
  Zn  Zn114  1  0.43559837  0.43699949  0.19899999  1
  Zn  Zn115  1  0.43979549  0.37120372  0.66317219  1
  Zn  Zn116  1  0.41201691  0.89111676  0.20877919  1
  Zn  Zn117  1  0.42535744  0.93551261  0.69057795  1
  Zn  Zn118  1  0.93696174  0.43193412  0.18937184  1
  Zn  Zn119  1  0.94325492  0.42988057  0.68705226  1
  Zn  Zn120  1  0.93871898  0.93671511  0.17897794  1
  Zn  Zn121  1  0.91945982  0.92590257  0.69684092  1
  Zn  Zn122  1  0.06191634  0.05773232  0.31056705  1
  Zn  Zn123  1  0.05938274  0.06698787  0.81453724  1
  Zn  Zn124  1  0.06240040  0.56585411  0.31196541  1
  Zn  Zn125  1  0.05976701  0.55916486  0.81935362  1
  Zn  Zn126  1  0.55948477  0.05777524  0.30842135  1
  Zn  Zn127  1  0.55964571  0.06651483  0.80380496  1
  Zn  Zn128  1  0.55874524  0.55567889  0.30242139  1
  Zn  Zn129  1  0.57904306  0.58118604  0.75246531  1
  Zn  Zn130  1  0.43121657  0.18700114  0.44048051  1
  Zn  Zn131  1  0.43809387  0.19460709  0.93873721  1
  Zn  Zn132  1  0.45601388  0.68354270  0.44828037  1
  Zn  Zn133  1  0.45154407  0.68460941  0.94126316  1
  Zn  Zn134  1  0.93640777  0.20614155  0.41735062  1
  Zn  Zn135  1  0.94141038  0.18920303  0.92945098  1
  Zn  Zn136  1  0.94085695  0.67139586  0.44030625  1
  Zn  Zn137  1  0.93726738  0.68722856  0.93612610  1
  Zn  Zn138  1  0.06551545  0.32341092  0.06315870  1
  Zn  Zn139  1  0.07685059  0.31980583  0.55917661  1
  Zn  Zn140  1  0.05853687  0.81404156  0.05332352  1
  Zn  Zn141  1  0.02817647  0.82010362  0.56845792  1
  Zn  Zn142  1  0.56497508  0.30617335  0.06911830  1
  Zn  Zn143  1  0.55368772  0.30295701  0.55977091  1
  Zn  Zn144  1  0.56397113  0.81832590  0.05911706  1
  Zn  Zn145  1  0.59339834  0.83280110  0.53291833  1
  O  O146  1  0.12810646  0.11285005  0.12968475  1
  O  O147  1  0.10953160  0.10426085  0.61589621  1
  O  O148  1  0.10603070  0.62921886  0.11549082  1
  O  O149  1  0.11540472  0.62859272  0.61510805  1
  O  O150  1  0.62858708  0.11410083  0.11448192  1
  O  O151  1  0.63074725  0.11058416  0.61453275  1
  O  O152  1  0.62099908  0.61372440  0.12467905  1
  O  O153  1  0.62071244  0.62583452  0.64920561  1
  O  O154  1  0.38132615  0.39061691  0.37511680  1
  O  O155  1  0.38086266  0.38908666  0.88933710  1
  O  O156  1  0.37311965  0.87973993  0.39029196  1
  O  O157  1  0.38275397  0.88786823  0.88026729  1
  O  O158  1  0.88332796  0.39339198  0.38754400  1
  O  O159  1  0.87281859  0.38119152  0.88356210  1
  O  O160  1  0.86153397  0.88748347  0.37070548  1
  O  O161  1  0.88623918  0.88948570  0.87289293  1
  O  O162  1  0.25212302  -0.00542408  0.36060810  1
  O  O163  1  0.25940805  0.01517271  0.87687584  1
  O  O164  1  0.26227919  0.50927040  0.37611804  1
  O  O165  1  0.25200750  0.51522761  0.87497926  1
  O  O166  1  0.76376516  0.00932592  0.35723467  1
  O  O167  1  0.76582386  -0.00319141  0.88128330  1
  O  O168  1  0.74433579  0.48834870  0.35849410  1
  O  O169  1  0.76928408  0.50164260  0.88094672  1
  O  O170  1  0.25559985  0.50702658  0.13873625  1
  O  O171  1  0.29122398  0.53384061  0.66326887  1
  O  O172  1  0.23788221  0.99311323  0.13122829  1
  O  O173  1  0.25093338  1.00513997  0.64351840  1
  O  O174  1  0.74597626  0.48843411  0.12550598  1
  O  O175  1  0.76397252  0.46608131  0.64124018  1
  O  O176  1  0.74447882  0.99267901  0.12100186  1
  O  O177  1  0.74486916  0.99726530  0.61986684  1
  O  O178  1  0.01697727  0.39749024  0.25937886  1
  O  O179  1  0.00572594  0.36485130  0.76126482  1
  O  O180  1  0.00385522  0.86264176  0.24138781  1
  O  O181  1  0.00247147  0.88322346  0.77039252  1
  O  O182  1  0.49400284  0.36366275  0.26761586  1
  O  O183  1  0.51995815  0.36184984  0.75333273  1
  O  O184  1  0.51949162  0.87798056  0.23982071  1
  O  O185  1  0.49961712  0.87132826  0.75909304  1
  O  O186  1  0.49596317  0.14369664  0.26441421  1
  O  O187  1  0.48366854  0.13137677  0.74668534  1
  O  O188  1  0.50837416  0.63092193  0.23290812  1
  O  O189  1  0.47371284  0.63053381  0.74435709  1
  O  O190  1  0.99353353  0.12379715  0.24132290  1
  O  O191  1  0.99828747  0.14286354  0.75489162  1
  O  O192  1  0.98922179  0.63307459  0.23793745  1
  O  O193  1  0.99585927  0.61968960  0.74051914  1
  O  O194  1  0.37780762  0.25957163  0.01441339  1
  O  O195  1  0.34167037  0.22037813  0.49862467  1
  O  O196  1  0.38449370  0.76929058  -0.01278131  1
  O  O197  1  0.38058610  0.76038235  0.50853810  1
  O  O198  1  0.86516660  0.25077578  0.00632646  1
  O  O199  1  0.86911594  0.26547613  0.48572558  1
  O  O200  1  0.86300714  0.74509148  0.00665301  1
  O  O201  1  0.87263019  0.74029183  0.50150146  1
  O  O202  1  0.14362215  0.24683658  0.49839691  1
  O  O203  1  0.14413373  0.25731277  1.01155739  1
  O  O204  1  0.10765222  0.77185377  0.49035848  1
  O  O205  1  0.11844358  0.73704189  0.98975668  1
  O  O206  1  0.61289449  0.23003559  0.48965520  1
  O  O207  1  0.63711728  0.24229917  1.00449357  1
  O  O208  1  0.62407222  0.72075985  0.50033917  1
  O  O209  1  0.62569080  0.75183375  0.97925178  1
  O  O210  1  0.49134900  0.25369130  0.14175596  1
  O  O211  1  0.48741468  0.26463091  0.64565312  1
  O  O212  1  0.50771534  0.74442056  0.12557205  1
  O  O213  1  0.49470200  0.75845587  0.63874838  1
  O  O214  1  0.98763792  0.25256253  0.11458150  1
  O  O215  1  1.01614983  0.25736412  0.64249928  1
  O  O216  1  0.98722407  0.74672821  0.12959524  1
  O  O217  1  0.98481579  0.72820348  0.62182322  1
  O  O218  1  -0.04312128  0.29441941  0.34666542  1
  O  O219  1  0.00034502  0.26490645  0.86653592  1
  O  O220  1  0.00413551  0.74479723  0.36437853  1
  O  O221  1  0.00538804  0.76482118  0.88301433  1
  O  O222  1  0.48715702  0.26201751  0.37054960  1
  O  O223  1  0.49463948  0.24736872  0.85627001  1
  O  O224  1  0.52896785  0.74683046  0.37913753  1
  O  O225  1  0.50958710  0.75827880  0.86508442  1
  O  O226  1  0.23097913  0.11065284  0.47831799  1
  O  O227  1  0.25742282  0.13563728  0.99104046  1
  O  O228  1  0.22816396  0.64065433  0.50146240  1
  O  O229  1  0.23533896  0.62294350  0.99643446  1
  O  O230  1  0.73411045  0.11933182  0.49739361  1
  O  O231  1  0.74345964  0.13827951  1.00209758  1
  O  O232  1  0.72739248  0.60902371  0.52796191  1
  O  O233  1  0.74829715  0.63439585  1.00185785  1
  O  O234  1  0.26454625  0.36084025  -0.00387989  1
  O  O235  1  0.25883144  0.34794383  0.48627844  1
  O  O236  1  0.26435361  0.88005922  -0.00743850  1
  O  O237  1  0.26544975  0.87408776  0.50254314  1
  O  O238  1  0.76141027  0.36541762  0.00960537  1
  O  O239  1  0.75555294  0.37601767  0.51024897  1
  O  O240  1  0.74185397  0.86326513  0.00738846  1
  O  O241  1  0.69910908  0.87078275  0.51196883  1
  O  O242  1  0.14254811  0.50634437  0.25687856  1
  O  O243  1  0.14405013  0.51540813  0.75105224  1
  O  O244  1  0.12967448  0.99385829  0.24127373  1
  O  O245  1  0.14395076  1.00756072  0.76612586  1
  O  O246  1  0.64441355  0.50021558  0.23653522  1
  O  O247  1  0.62848356  0.48454317  0.76520981  1
  O  O248  1  0.63236537  0.99823776  0.23679774  1
  O  O249  1  0.62268030  0.99567222  0.73628481  1
  O  O250  1  0.36043561  -0.01404556  0.25815321  1
  O  O251  1  0.36888404  0.01193851  0.75958022  1
  O  O252  1  0.35972806  0.49935390  0.26309083  1
  O  O253  1  0.36996880  0.50970583  0.77894928  1
  O  O254  1  0.87106059  0.01050618  0.23925238  1
  O  O255  1  0.88261586  0.00877760  0.76298218  1
  O  O256  1  0.86630143  0.51171027  0.24179849  1
  O  O257  1  0.87521907  0.49856988  0.75879169  1
  O  O258  1  0.10924387  0.37652809  0.37037162  1
  O  O259  1  0.11469341  0.38231048  0.88695697  1
  O  O260  1  0.12153329  0.86677903  0.36142537  1
  O  O261  1  0.11848487  0.86315373  0.88097542  1
  O  O262  1  0.60328900  0.38371579  0.38597855  1
  O  O263  1  0.63041021  0.36969375  0.87639706  1
  O  O264  1  0.62975557  0.89267134  0.35255082  1
  O  O265  1  0.61446652  0.87996126  0.86083421  1
  O  O266  1  0.38054090  0.13347263  0.12275591  1
  O  O267  1  0.36520121  0.12233526  0.63747752  1
  O  O268  1  0.39234801  0.62545774  0.12356568  1
  O  O269  1  0.37945478  0.64624434  0.62017792  1
  O  O270  1  0.87846824  0.13245637  0.12429261  1
  O  O271  1  0.89535407  0.11109944  0.63768177  1
  O  O272  1  0.88192090  0.63376065  0.12763102  1
  O  O273  1  0.88242960  0.62838134  0.63721638  1
  O  O274  1  0.26630991  0.24317100  0.11387354  1
  O  O275  1  0.24581614  0.24007390  0.62426740  1
  O  O276  1  0.24876036  0.74619970  0.13163140  1
  O  O277  1  0.25755201  0.74796661  0.63186887  1
  O  O278  1  0.75878624  0.26398773  0.12151197  1
  O  O279  1  0.75615177  0.26764158  0.62276847  1
  O  O280  1  0.75201712  0.75389396  0.11575895  1
  O  O281  1  0.78079534  0.76093639  0.63494773  1
  O  O282  1  0.24729351  0.23486429  0.36291508  1
  O  O283  1  0.25936334  0.24125791  0.89002604  1
  O  O284  1  0.22558417  0.75101992  0.38092607  1
  O  O285  1  0.24052015  0.74060141  0.88272891  1
  O  O286  1  0.74590092  0.24151892  0.33724603  1
  O  O287  1  0.75520920  0.25445900  0.89193599  1
  O  O288  1  0.72763503  0.75437306  0.37341683  1
  O  O289  1  0.73473927  0.75509290  0.87947412  1
  O  O290  1  0.00455215  0.11065950  -0.01131714  1
  O  O291  1  0.02350661  0.13394067  0.45453367  1
  O  O292  1  0.00227097  0.62537915  0.01030218  1
  O  O293  1  0.01344505  0.61818596  0.50996239  1
  O  O294  1  0.51036605  0.11743926  -0.00785940  1
  O  O295  1  0.50628937  0.10864731  0.49263435  1
  O  O296  1  0.50751082  0.62470336  0.01858525  1
  O  O297  1  0.51673036  0.61375993  0.51419268  1
  O  O298  1  0.49103554  0.37739873  0.49160247  1
  O  O299  1  0.49244185  0.37029236  1.00601188  1
  O  O300  1  0.48970261  0.89081867  0.50431903  1
  O  O301  1  0.49598406  0.88657259  0.98733223  1
  O  O302  1  0.99617586  0.36894602  0.48837108  1
  O  O303  1  0.98584622  0.36585051  0.98756123  1
  O  O304  1  1.03093410  0.92668705  0.49742056  1
  O  O305  1  1.00268225  0.89232454  0.98829394  1
  O  O306  1  0.48659820  0.49325645  0.36965365  1
  O  O307  1  0.49027818  0.51146238  0.88176236  1
  O  O308  1  0.48381771  0.99504060  0.37191383  1
  O  O309  1  0.49349396  0.99655566  0.87802380  1
  O  O310  1  1.00005039  0.49831490  0.38017709  1
  O  O311  1  0.98793386  0.48112520  0.87099158  1
  O  O312  1  0.98230327  0.99136937  0.35609681  1
  O  O313  1  1.00086097  0.99333142  0.88444019  1
  O  O314  1  0.01120433  -0.00175152  0.11179957  1
  O  O315  1  0.07543153  -0.04152820  0.64657400  1
  O  O316  1  -0.00998721  0.51444615  0.12478200  1
  O  O317  1  -0.00267099  0.51219932  0.62648125  1
  O  O318  1  0.51039926  -0.00535510  0.10892602  1
  O  O319  1  0.48774818  0.00458173  0.61859790  1
  O  O320  1  0.51667614  0.49776642  0.13703504  1
  O  O321  1  0.45981242  0.49752459  0.64308094  1
  O  O322  1  0.23503910  0.39315355  0.25984121  1
  O  O323  1  0.25039551  0.39745868  0.76999390  1
  O  O324  1  0.23431122  0.88248147  0.24537264  1
  O  O325  1  0.25672836  0.89419261  0.76111927  1
  O  O326  1  0.76999149  0.38588311  0.23427823  1
  O  O327  1  0.72323098  0.35543865  0.74397734  1
  O  O328  1  0.74252606  0.88658385  0.23477891  1
  O  O329  1  0.73579440  0.87612356  0.75343256  1
  O  O330  1  0.24496821  0.10648842  0.24529420  1
  O  O331  1  0.26083582  0.12110164  0.76509609  1
  O  O332  1  0.25184935  0.62135461  0.25420984  1
  O  O333  1  0.25299691  0.62672048  0.77732104  1
  O  O334  1  0.75627050  0.11030604  0.23408233  1
  O  O335  1  0.76879797  0.12650748  0.73754738  1
  O  O336  1  0.76145262  0.61348868  0.24259987  1
  O  O337  1  0.76994037  0.62853007  0.75065914  1
  O  O338  1  0.37254225  0.10562683  0.37233809  1
  O  O339  1  0.37264244  0.11895989  0.87223718  1
  O  O340  1  0.37958068  0.62028787  0.37933793  1
  O  O341  1  0.36357140  0.61850449  0.89912977  1
  O  O342  1  0.87711093  0.12212134  0.34965032  1
  O  O343  1  0.87892850  0.11429608  0.86239323  1
  O  O344  1  0.87774762  0.62634539  0.35624282  1
  O  O345  1  0.89003185  0.61044508  0.86333069  1
  O  O346  1  0.11822944  0.38968578  0.13792508  1
  O  O347  1  0.16120639  0.38263116  0.61452947  1
  O  O348  1  0.12263651  0.87952736  0.13189447  1
  O  O349  1  0.10583971  0.89079221  0.63925999  1
  O  O350  1  0.64199175  0.37804362  0.12571306  1
  O  O351  1  0.62615130  0.37336343  0.61977883  1
  O  O352  1  0.63404583  0.88396208  0.12768410  1
  O  O353  1  0.61653411  0.88757595  0.64026364  1
  O  O354  1  0.12754522  0.27193735  0.24209537  1
  O  O355  1  0.12440300  0.24250188  0.75712127  1
  O  O356  1  0.11031408  0.75483474  0.25859713  1
  O  O357  1  0.12459025  0.73939177  0.77484109  1
  O  O358  1  0.60821882  0.25250641  0.25611056  1
  O  O359  1  0.61372484  0.23042475  0.75087100  1
  O  O360  1  0.62893013  0.76408559  0.25363463  1
  O  O361  1  0.61937920  0.76564242  0.75535471  1
  O  O362  1  0.37460594  0.25454310  0.23524691  1
  O  O363  1  0.37340210  0.24024093  0.75308113  1
  O  O364  1  0.38462825  0.78140632  0.25224978  1
  O  O365  1  0.37728970  0.75961691  0.74076390  1
  O  O366  1  0.87108571  0.23410670  0.22789361  1
  O  O367  1  0.88085656  0.23670726  0.75455364  1
  O  O368  1  0.87395693  0.73978139  0.23991555  1
  O  O369  1  0.88083815  0.73961851  0.76360491  1
  O  O370  1  0.37474575  0.50757850  0.48786593  1
  O  O371  1  0.37358450  0.48811601  0.99806731  1
  O  O372  1  0.37981687  0.99507869  0.49198992  1
  O  O373  1  0.38363760  0.99860053  0.99186403  1
  O  O374  1  0.87200882  0.47889942  0.49977870  1
  O  O375  1  0.87454535  0.48584201  0.99686578  1
  O  O376  1  0.87501698  1.01342504  0.47682788  1
  O  O377  1  0.88757050  1.00729032  0.98744441  1
  O  O378  1  0.12216097  0.00087577  0.01133545  1
  O  O379  1  0.09295734  -0.02884024  0.49578385  1
  O  O380  1  0.12263531  0.51616973  -0.00158865  1
  O  O381  1  0.13738643  0.50689190  0.49561815  1
  O  O382  1  0.61974794  0.00777909  0.00118550  1
  O  O383  1  0.60841213  0.00313894  0.51650339  1
  O  O384  1  0.62737735  0.49400314  0.01764381  1
  O  O385  1  0.61489723  0.50562419  0.52161070  1
  O  O386  1  0.37773654  0.37478975  0.11624921  1
  O  O387  1  0.33410480  0.38248468  0.63289975  1
  O  O388  1  0.37151774  0.88209457  0.10376674  1
  O  O389  1  0.37399870  0.86273684  0.61624508  1
  O  O390  1  0.87485595  0.36607209  0.11161900  1
  O  O391  1  0.88755303  0.36622306  0.61175435  1
  O  O392  1  0.86237790  0.86347393  0.12870435  1
  O  O393  1  0.91367889  0.86090578  0.60684252  1
  O  O394  1  0.08363912  0.12848359  0.40535110  1
  O  O395  1  0.14068920  0.12728688  0.87956517  1
  O  O396  1  0.11785248  0.63945036  0.39225244  1
  O  O397  1  0.12530820  0.63159907  0.88896133  1
  O  O398  1  0.62891804  0.10856769  0.38788268  1
  O  O399  1  0.62911878  0.11725541  0.88124258  1
  O  O400  1  0.63341235  0.61917565  0.37041296  1
  O  O401  1  0.61860594  0.64120225  0.85161573  1
