# generated using pymatgen
data_V73Zn73O256
_symmetry_space_group_name_H-M   'P 1'
_cell_length_a   16.84484938
_cell_length_b   16.84498706
_cell_length_c   16.85617542
_cell_angle_alpha   90.10114051
_cell_angle_beta   89.99069659
_cell_angle_gamma   90.06244197
_symmetry_Int_Tables_number   1
_chemical_formula_structural   V73Zn73O256
_chemical_formula_sum   'V73 Zn73 O256'
_cell_volume   4782.95082666
_cell_formula_units_Z   1
loop_
 _symmetry_equiv_pos_site_id
 _symmetry_equiv_pos_as_xyz
  1  'x, y, z'
loop_
 _atom_site_type_symbol
 _atom_site_label
 _atom_site_symmetry_multiplicity
 _atom_site_fract_x
 _atom_site_fract_y
 _atom_site_fract_z
 _atom_site_occupancy
  V  V0  1  0.00046848  0.63256351  0.11804367  1
  V  V1  1  0.50210152  0.87368957  0.89287179  1
  V  V2  1  0.63094240  0.61047578  0.50077121  1
  V  V3  1  0.50772348  0.38542564  0.87114376  1
  V  V4  1  0.75039511  0.75362436  0.49608783  1
  V  V5  1  0.24170668  0.25149044  -0.01305640  1
  V  V6  1  0.11995188  0.00376993  0.63695649  1
  V  V7  1  0.09436337  0.38257931  0.74487736  1
  V  V8  1  0.36753644  0.85866760  0.50463178  1
  V  V9  1  0.51120090  0.75139052  0.24609430  1
  V  V10  1  0.10507706  0.86809566  0.75775916  1
  V  V11  1  0.88068460  0.63370544  0.75423800  1
  V  V12  1  0.62604362  0.24835325  0.37161453  1
  V  V13  1  0.48558447  0.12393292  0.62399878  1
  V  V14  1  0.62610841  0.63570837  -0.00472143  1
  V  V15  1  0.25490882  0.49565283  0.25061011  1
  V  V16  1  0.86771108  0.50097750  0.37663949  1
  V  V17  1  0.88415990  -0.01533725  0.39004298  1
  V  V18  1  0.50018928  0.24632046  0.75451805  1
  V  V19  1  0.62578265  0.49909125  0.11439078  1
  V  V20  1  0.12593738  0.50464253  0.11832528  1
  V  V21  1  0.12542370  -0.03423297  0.17716106  1
  V  V22  1  0.75283830  0.62950563  0.87238904  1
  V  V23  1  0.63084909  0.16043041  -0.02895667  1
  V  V24  1  0.38582609  0.23834203  0.11758431  1
  V  V25  1  0.49490013  0.37277532  0.38434843  1
  V  V26  1  0.37910336  0.38185251  -0.00657000  1
  V  V27  1  0.24258110  0.62800861  0.38267430  1
  V  V28  1  0.63409587  0.38937853  0.73254804  1
  V  V29  1  0.37181295  0.63847941  0.74183679  1
  V  V30  1  0.50193797  0.62098693  0.11934603  1
  V  V31  1  0.60693372  -0.00004764  0.11477387  1
  V  V32  1  -0.00807299  0.22896720  0.74577216  1
  V  V33  1  0.87247532  0.62907691  0.24758138  1
  V  V34  1  0.00082249  0.48397025  -0.00394733  1
  V  V35  1  0.25337917  0.86940826  0.63776366  1
  V  V36  1  0.74944895  0.49703457  0.24807705  1
  V  V37  1  0.11653962  0.37127956  0.25435587  1
  V  V38  1  0.62107484  -0.00305046  0.63508062  1
  V  V39  1  0.37022794  0.50422425  0.87154863  1
  V  V40  1  0.12132575  0.12236854  0.51048347  1
  V  V41  1  0.38023132  0.62407850  0.24681589  1
  V  V42  1  0.12067577  0.74892914  0.89588866  1
  V  V43  1  0.51297733  0.86974113  0.37806500  1
  V  V44  1  0.73983517  0.00147879  0.25427432  1
  V  V45  1  0.52214209  0.76012336  0.74925788  1
  V  V46  1  0.86448631  0.23660418  0.61929976  1
  V  V47  1  0.00785758  0.62358810  0.62339957  1
  V  V48  1  0.50996140  0.61826337  0.62504092  1
  V  V49  1  0.75425679  0.36528554  0.10918759  1
  V  V50  1  0.85578398  0.37018773  0.50474021  1
  V  V51  1  0.87803856  0.48937213  0.87840422  1
  V  V52  1  0.76395857  0.75612480  -0.00228556  1
  V  V53  1  0.01167375  0.50158538  0.50230203  1
  V  V54  1  0.75248623  0.12766102  0.37873818  1
  V  V55  1  0.37478340  0.00281563  0.84924460  1
  V  V56  1  0.35735240  0.00034871  0.37407729  1
  V  V57  1  0.88346349  0.90233959  -0.00625695  1
  V  V58  1  0.75230133  0.87091025  0.13597045  1
  V  V59  1  0.00672977  0.75683937  0.26313025  1
  V  V60  1  0.88028899  0.75942138  0.62687315  1
  V  V61  1  0.74403240  0.87478487  0.63363801  1
  V  V62  1  0.25317148  0.26582270  0.49971119  1
  V  V63  1  0.11306210  0.10971378  -0.00996484  1
  V  V64  1  0.38397029  0.49375955  0.38845757  1
  V  V65  1  0.37702300  0.27730619  0.61338518  1
  V  V66  1  0.76182375  0.01334366  0.75685225  1
  V  V67  1  0.24488115  0.49026064  0.73178334  1
  V  V68  1  0.25412365  0.37437682  0.12012594  1
  V  V69  1  0.88877565  0.24617369  0.12529946  1
  V  V70  1  0.12067061  0.24149057  0.37892883  1
  V  V71  1  0.49742087  -0.00362968  0.49717170  1
  V  V72  1  0.62511520  0.12826605  0.50000993  1
  Zn  Zn73  1  0.49713571  0.24427828  0.24529649  1
  Zn  Zn74  1  0.00723054  0.11524461  0.13297867  1
  Zn  Zn75  1  0.36588670  0.10964846  0.24428722  1
  Zn  Zn76  1  0.62201565  0.36999465  0.24351458  1
  Zn  Zn77  1  0.24975822  0.11838613  0.85460718  1
  Zn  Zn78  1  0.89630719  0.12770755  0.25941282  1
  Zn  Zn79  1  0.24317199  0.63209826  0.87599006  1
  Zn  Zn80  1  -0.00594497  0.37373120  0.37688624  1
  Zn  Zn81  1  0.63430706  0.74185688  0.37434709  1
  Zn  Zn82  1  0.18214459  0.14785383  0.18163668  1
  Zn  Zn83  1  0.17806804  0.20066177  0.68610576  1
  Zn  Zn84  1  0.18550733  0.69086802  0.20251666  1
  Zn  Zn85  1  0.18945730  0.69200593  0.69221577  1
  Zn  Zn86  1  0.68363661  0.17969710  0.18021968  1
  Zn  Zn87  1  0.68158773  0.19178380  0.68905494  1
  Zn  Zn88  1  0.68986487  0.68667339  0.18359402  1
  Zn  Zn89  1  0.69185602  0.68500193  0.68695358  1
  Zn  Zn90  1  0.27981956  0.26528532  0.28470595  1
  Zn  Zn91  1  0.29157205  0.28573406  0.78101559  1
  Zn  Zn92  1  0.33571723  0.79358829  0.33877302  1
  Zn  Zn93  1  0.30862002  0.81827599  0.82703843  1
  Zn  Zn94  1  0.81233717  0.31200087  0.30629137  1
  Zn  Zn95  1  0.81931142  0.31017974  0.80173411  1
  Zn  Zn96  1  0.82277271  0.81287254  0.31468611  1
  Zn  Zn97  1  0.81735473  0.82114213  0.81416746  1
  Zn  Zn98  1  0.19214977  0.44119758  0.43859808  1
  Zn  Zn99  1  0.18413312  0.43259721  0.92442532  1
  Zn  Zn100  1  0.17989540  0.93438103  0.44598688  1
  Zn  Zn101  1  0.18782368  0.94305154  0.92742196  1
  Zn  Zn102  1  0.68350590  0.43502329  0.43339635  1
  Zn  Zn103  1  0.69315192  0.44148673  0.93248081  1
  Zn  Zn104  1  0.69338682  0.93939359  0.44479466  1
  Zn  Zn105  1  0.68829097  0.94184361  0.93818612  1
  Zn  Zn106  1  0.28381455  0.06552400  0.07095809  1
  Zn  Zn107  1  0.29738688  0.06236944  0.55781124  1
  Zn  Zn108  1  0.31715901  0.56261877  0.06249935  1
  Zn  Zn109  1  0.31559964  0.56986686  0.56282413  1
  Zn  Zn110  1  0.80542012  0.07618216  0.06487625  1
  Zn  Zn111  1  0.81010166  0.05906345  0.56572424  1
  Zn  Zn112  1  0.81452754  0.56099956  0.06031852  1
  Zn  Zn113  1  0.81038320  0.56369686  0.56849211  1
  Zn  Zn114  1  0.44333174  0.43252481  0.19114901  1
  Zn  Zn115  1  0.43815906  0.44101407  0.69096903  1
  Zn  Zn116  1  0.42868634  0.92709883  0.19289393  1
  Zn  Zn117  1  0.43730011  0.93228339  0.68710575  1
  Zn  Zn118  1  0.93424898  0.43767169  0.18097970  1
  Zn  Zn119  1  0.91007864  0.44975524  0.68012140  1
  Zn  Zn120  1  0.93136325  0.94382142  0.19229013  1
  Zn  Zn121  1  0.93785843  0.94730422  0.68362583  1
  Zn  Zn122  1  0.06144405  0.05423349  0.31646465  1
  Zn  Zn123  1  0.05559997  0.06065950  0.81867505  1
  Zn  Zn124  1  0.05743755  0.56166581  0.31166109  1
  Zn  Zn125  1  0.06485276  0.56814745  0.81283273  1
  Zn  Zn126  1  0.55534562  0.06516945  0.30246513  1
  Zn  Zn127  1  0.56124264  0.05816078  0.82468649  1
  Zn  Zn128  1  0.56748430  0.56094606  0.31201366  1
  Zn  Zn129  1  0.56521709  0.56551804  0.80845718  1
  Zn  Zn130  1  0.43469965  0.18433844  0.43315953  1
  Zn  Zn131  1  0.44438002  0.18066680  0.94117200  1
  Zn  Zn132  1  0.44504454  0.67814828  0.43622886  1
  Zn  Zn133  1  0.43866979  0.69210578  0.93365576  1
  Zn  Zn134  1  0.93943171  0.18491367  0.44348073  1
  Zn  Zn135  1  0.94167518  0.20401022  0.94256208  1
  Zn  Zn136  1  0.93211573  0.68435220  0.43913818  1
  Zn  Zn137  1  0.94364988  0.69694658  0.93930754  1
  Zn  Zn138  1  0.06768506  0.30684922  0.06401783  1
  Zn  Zn139  1  0.05593992  0.31946530  0.57223112  1
  Zn  Zn140  1  0.06094206  0.82248179  0.06991885  1
  Zn  Zn141  1  0.07633427  0.80651806  0.57563733  1
  Zn  Zn142  1  0.56748865  0.31078900  0.05095847  1
  Zn  Zn143  1  0.56810755  0.31513122  0.56214165  1
  Zn  Zn144  1  0.56813934  0.81804735  0.06487140  1
  Zn  Zn145  1  0.56303667  0.80603688  0.56502429  1
  O  O146  1  0.11259734  0.15496922  0.09473556  1
  O  O147  1  0.13120135  0.11363365  0.62377919  1
  O  O148  1  0.11492144  0.61255177  0.13635829  1
  O  O149  1  0.10644281  0.63794894  0.62655756  1
  O  O150  1  0.61101939  0.09665117  0.14964252  1
  O  O151  1  0.61156746  0.11895918  0.61575750  1
  O  O152  1  0.62155113  0.61920235  0.11554385  1
  O  O153  1  0.61842505  0.62492391  0.62091242  1
  O  O154  1  0.38678477  0.38500161  0.37532486  1
  O  O155  1  0.38105174  0.39121479  0.87703173  1
  O  O156  1  0.38782043  0.88057573  0.38671254  1
  O  O157  1  0.38273574  0.89190708  0.87010687  1
  O  O158  1  0.87467155  0.38182841  0.38021827  1
  O  O159  1  0.86849944  0.39115181  0.86986187  1
  O  O160  1  0.87915244  0.88407609  0.37924279  1
  O  O161  1  0.87367231  0.87232556  0.89620716  1
  O  O162  1  0.25906572  -0.01614063  0.38193784  1
  O  O163  1  0.26845912  0.00149491  0.87056156  1
  O  O164  1  0.26596470  0.50131203  0.36767046  1
  O  O165  1  0.26023745  0.50922853  0.86782665  1
  O  O166  1  0.75499607  0.00503355  0.37090196  1
  O  O167  1  0.74400157  -0.00655871  0.85480028  1
  O  O168  1  0.75490710  0.49521710  0.36006158  1
  O  O169  1  0.77064496  0.51750383  0.88976905  1
  O  O170  1  0.24569446  0.49535077  0.12764150  1
  O  O171  1  0.25531870  0.50427265  0.63298872  1
  O  O172  1  0.20734607  1.02766983  0.14963330  1
  O  O173  1  0.23296214  0.98129546  0.61111972  1
  O  O174  1  0.74680998  0.48994929  0.12749518  1
  O  O175  1  0.80466332  0.49270206  0.65281532  1
  O  O176  1  0.74035342  0.99639256  0.14422583  1
  O  O177  1  0.73952600  0.99334356  0.63133591  1
  O  O178  1  0.01460375  0.38343248  0.24862486  1
  O  O179  1  -0.00613026  0.39696687  0.74296513  1
  O  O180  1  -0.01815219  0.85178640  0.23985069  1
  O  O181  1  0.00607846  0.88013552  0.75153642  1
  O  O182  1  0.50569489  0.36733417  0.25999802  1
  O  O183  1  0.50927277  0.37343839  0.75630540  1
  O  O184  1  0.49775425  0.85614500  0.26058077  1
  O  O185  1  0.50332824  0.86220415  0.74797878  1
  O  O186  1  0.47610479  0.13322828  0.26401010  1
  O  O187  1  0.50204199  0.14115201  0.74066746  1
  O  O188  1  0.49943898  0.62825376  0.24158823  1
  O  O189  1  0.49452318  0.63728323  0.74536004  1
  O  O190  1  1.01247408  0.13029294  0.25003652  1
  O  O191  1  1.00560330  0.13013900  0.74089941  1
  O  O192  1  0.98964434  0.62741432  0.24334603  1
  O  O193  1  0.99300128  0.62372167  0.73543442  1
  O  O194  1  0.37191511  0.26134265  0.00623001  1
  O  O195  1  0.36456600  0.24962322  0.50273704  1
  O  O196  1  0.34028513  0.71364638  -0.00355288  1
  O  O197  1  0.38314644  0.75965835  0.49300185  1
  O  O198  1  0.87237214  0.24420101  0.02321500  1
  O  O199  1  0.87800718  0.26439476  0.50171846  1
  O  O200  1  0.86449158  0.75159985  0.00865899  1
  O  O201  1  0.85904360  0.73864260  0.51463820  1
  O  O202  1  0.13225925  0.25399845  0.49607499  1
  O  O203  1  0.14151041  0.26950812  0.98601064  1
  O  O204  1  0.11369995  0.73067868  0.48792758  1
  O  O205  1  0.12769868  0.76361358  0.99541879  1
  O  O206  1  0.61677954  0.23682747  0.48835671  1
  O  O207  1  0.63510314  0.26337343  0.97442849  1
  O  O208  1  0.63848339  0.74125359  0.50220099  1
  O  O209  1  0.63888295  0.74091195  1.00612430  1
  O  O210  1  0.48844456  0.25692767  0.11749334  1
  O  O211  1  0.48888450  0.24227283  0.61608118  1
  O  O212  1  0.51022928  0.74154087  0.13961634  1
  O  O213  1  0.50548374  0.74132161  0.64211090  1
  O  O214  1  0.98946434  0.25999683  0.13053810  1
  O  O215  1  0.98228916  0.25659411  0.63393344  1
  O  O216  1  1.00563235  0.73377162  0.13360786  1
  O  O217  1  0.98588296  0.74404857  0.61006780  1
  O  O218  1  0.01725460  0.25817652  0.38405026  1
  O  O219  1  -0.02460952  0.24973937  0.84687887  1
  O  O220  1  -0.01459979  0.74562796  0.36226104  1
  O  O221  1  0.01853550  0.75338235  0.87815460  1
  O  O222  1  0.50267643  0.26025235  0.37593954  1
  O  O223  1  0.48671290  0.26389728  0.85759278  1
  O  O224  1  0.50576652  0.75273928  0.36792271  1
  O  O225  1  0.49101169  0.76267180  0.85997025  1
  O  O226  1  0.23340208  0.14683844  0.50881740  1
  O  O227  1  0.23694146  0.14264466  0.99634568  1
  O  O228  1  0.25787730  0.62391027  0.48217025  1
  O  O229  1  0.28535383  0.65351374  0.99372568  1
  O  O230  1  0.73380964  0.11558770  0.49048333  1
  O  O231  1  0.71608483  0.13203190  1.02556467  1
  O  O232  1  0.73892418  0.63474840  0.51210121  1
  O  O233  1  0.74884911  0.63811454  0.99805845  1
  O  O234  1  0.25879171  0.37623468  0.00194059  1
  O  O235  1  0.24611688  0.36661270  0.50516055  1
  O  O236  1  0.27279385  0.90406294  0.01434251  1
  O  O237  1  0.26572727  0.86830705  0.49760062  1
  O  O238  1  0.75153156  0.37948439  0.00998558  1
  O  O239  1  0.75642380  0.37179786  0.49425300  1
  O  O240  1  0.75547934  0.86627597  0.00506111  1
  O  O241  1  0.74699712  0.86076619  0.51366577  1
  O  O242  1  0.13553379  0.49011706  0.24125078  1
  O  O243  1  0.13840941  0.49989490  0.74970978  1
  O  O244  1  0.12630339  0.96610405  0.27985696  1
  O  O245  1  0.12423204  0.99263846  0.74207032  1
  O  O246  1  0.63623544  0.50497740  0.23600419  1
  O  O247  1  0.62707812  0.48997419  0.74984737  1
  O  O248  1  0.63781751  0.99024892  0.26341590  1
  O  O249  1  0.62087240  1.00432769  0.73643005  1
  O  O250  1  0.37222776  -0.00883088  0.26845387  1
  O  O251  1  0.37913424  0.00949543  0.74903386  1
  O  O252  1  0.36956659  0.50299652  0.25375830  1
  O  O253  1  0.36575497  0.50801687  0.75536874  1
  O  O254  1  0.86279466  0.00585875  0.26576718  1
  O  O255  1  0.86211884  0.00580583  0.74150662  1
  O  O256  1  0.86933110  0.50175157  0.25594227  1
  O  O257  1  0.88684392  0.52012507  0.77692082  1
  O  O258  1  0.12439642  0.38051652  0.36150718  1
  O  O259  1  0.12587798  0.37992633  0.84567783  1
  O  O260  1  0.12024353  0.78374864  0.43134447  1
  O  O261  1  0.12936682  0.86960610  0.86316496  1
  O  O262  1  0.61676245  0.36480509  0.37076123  1
  O  O263  1  0.60886874  0.38860515  0.87377253  1
  O  O264  1  0.61550908  0.87023850  0.38703607  1
  O  O265  1  0.60236297  0.88204692  0.88555005  1
  O  O266  1  0.36972105  0.13619216  0.11470861  1
  O  O267  1  0.38523505  0.11913949  0.61390093  1
  O  O268  1  0.38983167  0.61386054  0.13575628  1
  O  O269  1  0.38769408  0.62714027  0.63629397  1
  O  O270  1  0.88615868  0.13149636  0.12991466  1
  O  O271  1  0.88060973  0.13767106  0.60376732  1
  O  O272  1  0.89039924  0.61210375  0.13642606  1
  O  O273  1  0.88111943  0.63949989  0.63698947  1
  O  O274  1  0.26189940  0.26578862  0.10785839  1
  O  O275  1  0.27008121  0.25913165  0.61668375  1
  O  O276  1  0.26487076  0.75246922  0.13693968  1
  O  O277  1  0.23646192  0.77000683  0.61922941  1
  O  O278  1  0.74101946  0.26451144  0.12710489  1
  O  O279  1  0.76237616  0.24276863  0.62390812  1
  O  O280  1  0.74784097  0.76414535  0.11899993  1
  O  O281  1  0.75773456  0.75740368  0.62248358  1
  O  O282  1  0.23567117  0.26167218  0.39027950  1
  O  O283  1  0.27030932  0.26102428  0.89173496  1
  O  O284  1  0.25026601  0.72807865  0.35702331  1
  O  O285  1  0.23089393  0.74904649  0.86650519  1
  O  O286  1  0.73843222  0.23926810  0.36941034  1
  O  O287  1  0.78287439  0.21003271  0.87516470  1
  O  O288  1  0.75406089  0.75454242  0.39155793  1
  O  O289  1  0.75445774  0.74587033  0.88998225  1
  O  O290  1  0.00974507  0.12352163  -0.01154344  1
  O  O291  1  0.02219192  0.14037715  0.50728864  1
  O  O292  1  -0.00217569  0.62246117  0.01604287  1
  O  O293  1  -0.01094632  0.61326370  0.51003984  1
  O  O294  1  0.53263087  0.14282574  0.00188491  1
  O  O295  1  0.50435302  0.11389447  0.50307261  1
  O  O296  1  0.50966488  0.63748507  0.00977242  1
  O  O297  1  0.51336481  0.63100722  0.51655330  1
  O  O298  1  0.50925712  0.37759975  0.48334810  1
  O  O299  1  0.49080251  0.37226975  0.98094956  1
  O  O300  1  0.49375163  0.87852539  0.49873772  1
  O  O301  1  0.48771171  0.85417443  0.99162475  1
  O  O302  1  0.99024205  0.39302810  0.50167720  1
  O  O303  1  1.00156826  0.38508661  1.00109161  1
  O  O304  1  1.09070286  0.85888945  0.45982266  1
  O  O305  1  0.98006471  0.88379594  1.01894224  1
  O  O306  1  0.49218629  0.48975435  0.36714251  1
  O  O307  1  0.48760507  0.49244092  0.86366530  1
  O  O308  1  0.49807595  0.98902427  0.38512744  1
  O  O309  1  0.48698650  0.98679746  0.87433715  1
  O  O310  1  0.98860875  0.50111802  0.38674447  1
  O  O311  1  0.99518912  0.50760697  0.89040450  1
  O  O312  1  0.98232428  1.00897153  0.38490559  1
  O  O313  1  0.97717369  1.00172180  0.87024114  1
  O  O314  1  0.02784695  -0.00296179  0.14800597  1
  O  O315  1  0.02176185  -0.01181827  0.61640906  1
  O  O316  1  0.00738004  0.50311166  0.11403808  1
  O  O317  1  -0.00638069  0.51429499  0.61370817  1
  O  O318  1  0.50913364  -0.02778655  0.12826120  1
  O  O319  1  0.50290751  0.00300326  0.61631806  1
  O  O320  1  0.51325357  0.50917604  0.12866304  1
  O  O321  1  0.49959483  0.51922510  0.63386141  1
  O  O322  1  0.24609098  0.38116989  0.23895769  1
  O  O323  1  0.25949535  0.39079275  0.74706528  1
  O  O324  1  0.29423912  0.81866423  0.17246632  1
  O  O325  1  0.25170267  0.87627596  0.73858503  1
  O  O326  1  0.74373780  0.38505867  0.23931224  1
  O  O327  1  0.72693994  0.36164923  0.76472655  1
  O  O328  1  0.75764594  0.88021082  0.24253347  1
  O  O329  1  0.75269389  0.88258139  0.73809363  1
  O  O330  1  0.26183438  0.15434956  0.25600986  1
  O  O331  1  0.25732217  0.17727856  0.75979331  1
  O  O332  1  0.26090696  0.61032706  0.25071752  1
  O  O333  1  0.26211766  0.61799707  0.74647427  1
  O  O334  1  0.74447770  0.11132771  0.26235041  1
  O  O335  1  0.74202272  0.11197766  0.74304389  1
  O  O336  1  0.76453053  0.61273614  0.23472558  1
  O  O337  1  0.76187247  0.63370449  0.76403597  1
  O  O338  1  0.36819648  0.10138504  0.38820030  1
  O  O339  1  0.37975029  0.10363511  0.88777949  1
  O  O340  1  0.37559853  0.61041745  0.36574866  1
  O  O341  1  0.38292816  0.61428338  0.85983495  1
  O  O342  1  0.86186168  0.12612134  0.37982658  1
  O  O343  1  0.83081560  0.15360518  0.88467542  1
  O  O344  1  0.87504743  0.61217563  0.35931304  1
  O  O345  1  0.87115177  0.63567528  0.87056506  1
  O  O346  1  0.13481202  0.38108656  0.13356478  1
  O  O347  1  0.12376283  0.37981411  0.64414302  1
  O  O348  1  0.13740809  0.87226628  0.14018316  1
  O  O349  1  0.13161029  0.88244095  0.63986555  1
  O  O350  1  0.63185401  0.38403321  0.12059279  1
  O  O351  1  0.62756178  0.38016667  0.63161471  1
  O  O352  1  0.64314121  0.88599864  0.12281121  1
  O  O353  1  0.63177517  0.88507770  0.61957226  1
  O  O354  1  0.13347014  0.26555781  0.26586561  1
  O  O355  1  0.09609175  0.26659800  0.74002876  1
  O  O356  1  0.10780060  0.74872772  0.25862675  1
  O  O357  1  0.11790976  0.76676293  0.74635576  1
  O  O358  1  0.62017509  0.24413968  0.26142816  1
  O  O359  1  0.60364481  0.26390656  0.73699155  1
  O  O360  1  0.61665144  0.73746614  0.25752915  1
  O  O361  1  0.62110343  0.74792245  0.75616251  1
  O  O362  1  0.37417742  0.26663131  0.21843150  1
  O  O363  1  0.39414983  0.26707715  0.72386437  1
  O  O364  1  0.39528805  0.73214294  0.25934193  1
  O  O365  1  0.37028241  0.73764814  0.75507990  1
  O  O366  1  0.86316620  0.24112426  0.23462089  1
  O  O367  1  0.87787583  0.24577808  0.73008565  1
  O  O368  1  0.87294670  0.73123018  0.24846920  1
  O  O369  1  0.87394184  0.74854235  0.73786162  1
  O  O370  1  0.37915967  0.50477331  0.48667697  1
  O  O371  1  0.37180597  0.49755284  0.98255140  1
  O  O372  1  0.38235860  0.98682941  0.49409936  1
  O  O373  1  0.32530421  0.95774381  1.03103831  1
  O  O374  1  0.86916679  0.49149297  0.48907612  1
  O  O375  1  0.89096785  0.50299449  0.99325578  1
  O  O376  1  0.86209513  0.99504393  0.48929911  1
  O  O377  1  0.86137265  1.00125621  0.99895447  1
  O  O378  1  0.12909434  0.01034990  0.00233786  1
  O  O379  1  0.12698049  0.01933673  0.50293681  1
  O  O380  1  0.11808198  0.49384682  0.00807177  1
  O  O381  1  0.11057717  0.49964998  0.49683037  1
  O  O382  1  0.62365241  0.00128432  0.01455844  1
  O  O383  1  0.61470076  0.00595391  0.50752448  1
  O  O384  1  0.63436312  0.51442445  0.00887252  1
  O  O385  1  0.63533176  0.51085502  0.50415587  1
  O  O386  1  0.36998949  0.38636535  0.10875894  1
  O  O387  1  0.39009013  0.37544642  0.60784065  1
  O  O388  1  0.35873577  0.84665873  0.13465996  1
  O  O389  1  0.36460232  0.87610432  0.61431327  1
  O  O390  1  0.86146316  0.36448935  0.12992674  1
  O  O391  1  0.86966675  0.36571361  0.60753403  1
  O  O392  1  0.85455846  0.89054440  0.11378069  1
  O  O393  1  0.86960934  0.86364891  0.62615455  1
  O  O394  1  0.12503306  0.13898399  0.38675257  1
  O  O395  1  0.13235960  0.11988150  0.88461916  1
  O  O396  1  0.14466789  0.60742690  0.36740532  1
  O  O397  1  0.12560219  0.63943899  0.87899852  1
  O  O398  1  0.62795398  0.12865286  0.38135963  1
  O  O399  1  0.63211464  0.13079668  0.87191239  1
  O  O400  1  0.61823802  0.62332967  0.39515190  1
  O  O401  1  0.63805728  0.61717772  0.88513522  1
