# generated using pymatgen
data_V73Zn73O256
_symmetry_space_group_name_H-M   'P 1'
_cell_length_a   16.84731106
_cell_length_b   16.84799073
_cell_length_c   16.84787145
_cell_angle_alpha   90.04523032
_cell_angle_beta   89.97490112
_cell_angle_gamma   89.95322697
_symmetry_Int_Tables_number   1
_chemical_formula_structural   V73Zn73O256
_chemical_formula_sum   'V73 Zn73 O256'
_cell_volume   4782.15256982
_cell_formula_units_Z   1
loop_
 _symmetry_equiv_pos_site_id
 _symmetry_equiv_pos_as_xyz
  1  'x, y, z'
loop_
 _atom_site_type_symbol
 _atom_site_label
 _atom_site_symmetry_multiplicity
 _atom_site_fract_x
 _atom_site_fract_y
 _atom_site_fract_z
 _atom_site_occupancy
  V  V0  1  0.62839759  0.38191532  0.24866707  1
  V  V1  1  0.61551245  0.74681411  0.86828534  1
  V  V2  1  0.76046463  0.38308622  0.12411859  1
  V  V3  1  0.00786114  -0.00151907  0.48907218  1
  V  V4  1  -0.00493014  0.48202850  0.49241821  1
  V  V5  1  0.37080269  -0.00741058  0.87410964  1
  V  V6  1  0.12948421  0.76040238  0.89358208  1
  V  V7  1  0.86606110  0.61005356  0.25154078  1
  V  V8  1  0.49889106  0.24422523  0.24265530  1
  V  V9  1  -0.01104292  0.12043420  0.63530043  1
  V  V10  1  0.63200272  0.24708700  0.37603960  1
  V  V11  1  0.61879923  0.25800520  0.87619641  1
  V  V12  1  0.87615947  0.01673289  0.36631955  1
  V  V13  1  0.87486558  0.75254168  0.63260730  1
  V  V14  1  0.75773069  0.25392300  0.00407503  1
  V  V15  1  0.63307256  0.12672942  0.49814191  1
  V  V16  1  0.27207676  0.75765925  0.49295537  1
  V  V17  1  0.62460639  0.00133021  0.62891366  1
  V  V18  1  0.24366944  0.49156421  0.24221605  1
  V  V19  1  0.75302889  0.12320996  0.87138920  1
  V  V20  1  0.76352453  0.78182220  -0.02080862  1
  V  V21  1  0.25998674  0.87132055  0.63133953  1
  V  V22  1  0.87554889  0.48937344  0.88273625  1
  V  V23  1  -0.01208941  -0.02510340  -0.01196880  1
  V  V24  1  0.62358390  0.85794471  0.27081839  1
  V  V25  1  0.49902161  0.49271343  -0.02336009  1
  V  V26  1  0.24070847  0.61458152  0.88985663  1
  V  V27  1  0.61282432  0.50450722  0.12745064  1
  V  V28  1  0.38055226  0.51139195  0.37505424  1
  V  V29  1  0.00968682  0.34891622  0.88193414  1
  V  V30  1  0.36791783  0.37209794  -0.00611030  1
  V  V31  1  0.49852480  -0.01282590  0.49415259  1
  V  V32  1  0.36825034  0.25237078  0.61972937  1
  V  V33  1  0.62171825  0.62572098  -0.00039573  1
  V  V34  1  0.87068909  0.74929427  0.12088817  1
  V  V35  1  0.11579544  0.76533424  0.37154814  1
  V  V36  1  0.75933610  0.26473750  0.50165035  1
  V  V37  1  0.01292128  0.50573164  -0.00792876  1
  V  V38  1  0.01261601  0.76454805  0.75179465  1
  V  V39  1  0.63063581  0.37945952  0.73476199  1
  V  V40  1  0.12866153  -0.00973372  0.63867782  1
  V  V41  1  0.01135999  0.61905631  0.11781397  1
  V  V42  1  0.74568891  0.01373175  0.25330740  1
  V  V43  1  0.49783442  -0.00197878  0.00875489  1
  V  V44  1  0.36677956  0.37756995  0.50334487  1
  V  V45  1  0.49695592  0.62343498  0.63481203  1
  V  V46  1  0.50216989  0.37808589  0.38303416  1
  V  V47  1  -0.00956017  0.62459187  0.62320261  1
  V  V48  1  0.87531793  0.87458868  0.48924252  1
  V  V49  1  0.13811936  0.13684370  0.49408721  1
  V  V50  1  0.36647813  0.12356249  0.74945218  1
  V  V51  1  0.74213124  0.87844281  0.13104411  1
  V  V52  1  0.35764782  0.62732397  0.74891938  1
  V  V53  1  0.87246334  0.26410545  0.63870238  1
  V  V54  1  0.75826965  0.49544482  0.73639291  1
  V  V55  1  0.23864783  -0.00592802  0.24544978  1
  V  V56  1  0.75283437  0.87376226  0.62461119  1
  V  V57  1  0.24576733  0.13835429  0.88983568  1
  V  V58  1  0.37010333  0.12647525  0.25144839  1
  V  V59  1  0.50110320  0.12787942  0.62385074  1
  V  V60  1  -0.00124118  0.24866010  0.27073142  1
  V  V61  1  0.37219328  -0.00611989  0.37663955  1
  V  V62  1  0.76171204  0.00385438  0.75424951  1
  V  V63  1  0.37740103  0.74934857  0.12772084  1
  V  V64  1  0.61234869  0.12624041  0.01177792  1
  V  V65  1  0.86747132  0.48617242  0.36999130  1
  V  V66  1  0.61846523  0.87195941  0.75255718  1
  V  V67  1  0.75472631  0.61990209  0.87054308  1
  V  V68  1  0.50078058  0.25869148  0.75160528  1
  V  V69  1  0.13055432  0.50446023  0.63266710  1
  V  V70  1  0.24184566  0.62217080  0.37098046  1
  V  V71  1  0.62187384  0.59128448  0.51016495  1
  V  V72  1  0.00120965  0.75752916  0.24954805  1
  Zn  Zn73  1  0.25243864  0.38966378  0.63995897  1
  Zn  Zn74  1  0.89549781  0.24967830  0.12166964  1
  Zn  Zn75  1  0.12641459  -0.00662862  0.11287272  1
  Zn  Zn76  1  0.12016617  0.37890311  0.24783561  1
  Zn  Zn77  1  0.69656994  0.71669466  0.42972357  1
  Zn  Zn78  1  0.49172236  0.87110407  0.87627772  1
  Zn  Zn79  1  0.13368274  0.34604938  0.76756722  1
  Zn  Zn80  1  0.11306861  0.63088327  0.49568522  1
  Zn  Zn81  1  0.33613129  0.25888738  0.11321172  1
  Zn  Zn82  1  0.18867930  0.18812496  0.22205749  1
  Zn  Zn83  1  0.18221501  0.18085886  0.68170936  1
  Zn  Zn84  1  0.18601107  0.68310351  0.18936407  1
  Zn  Zn85  1  0.18675057  0.69062165  0.67723376  1
  Zn  Zn86  1  0.68619264  0.19282200  0.18639737  1
  Zn  Zn87  1  0.69106750  0.19139923  0.68648102  1
  Zn  Zn88  1  0.68957724  0.68821397  0.18567319  1
  Zn  Zn89  1  0.68665831  0.68241156  0.68103144  1
  Zn  Zn90  1  0.31406780  0.32172047  0.31045988  1
  Zn  Zn91  1  0.31446898  0.32042896  0.81520886  1
  Zn  Zn92  1  0.31187993  0.81697616  0.31419703  1
  Zn  Zn93  1  0.30673399  0.79951911  0.81396805  1
  Zn  Zn94  1  0.81895478  0.30585951  0.30500630  1
  Zn  Zn95  1  0.81191248  0.31134051  0.81629519  1
  Zn  Zn96  1  0.81163132  0.80850981  0.30889558  1
  Zn  Zn97  1  0.81094190  0.81262890  0.80686702  1
  Zn  Zn98  1  0.18540283  0.44385141  0.45127846  1
  Zn  Zn99  1  0.18845080  0.43202493  0.93264858  1
  Zn  Zn100  1  0.19168085  0.93837300  0.43369017  1
  Zn  Zn101  1  0.17032302  0.95783421  0.91648530  1
  Zn  Zn102  1  0.69400150  0.43724874  0.43666519  1
  Zn  Zn103  1  0.68475563  0.43791331  0.93753601  1
  Zn  Zn104  1  0.69220027  0.94335719  0.43748117  1
  Zn  Zn105  1  0.68185522  0.94241698  0.93523963  1
  Zn  Zn106  1  0.31680506  0.06725875  0.06640805  1
  Zn  Zn107  1  0.31183816  0.05776507  0.56337166  1
  Zn  Zn108  1  0.31403302  0.55238153  0.05741315  1
  Zn  Zn109  1  0.31880697  0.57206076  0.55775621  1
  Zn  Zn110  1  0.80789474  0.05865205  0.05830951  1
  Zn  Zn111  1  0.81258977  0.05763393  0.55915881  1
  Zn  Zn112  1  0.81050419  0.56485554  0.06281964  1
  Zn  Zn113  1  0.81133124  0.56590460  0.54895606  1
  Zn  Zn114  1  0.43170759  0.43235284  0.18857986  1
  Zn  Zn115  1  0.43636786  0.44826450  0.69534732  1
  Zn  Zn116  1  0.44700812  0.93751343  0.19723756  1
  Zn  Zn117  1  0.43550995  0.93702226  0.68689899  1
  Zn  Zn118  1  0.98771450  0.39789854  0.14270708  1
  Zn  Zn119  1  0.94739313  0.43823842  0.70049803  1
  Zn  Zn120  1  0.93478624  0.93991427  0.17968986  1
  Zn  Zn121  1  0.94142334  0.93932592  0.68704613  1
  Zn  Zn122  1  0.06367248  0.07300357  0.31239257  1
  Zn  Zn123  1  0.06213258  0.06121805  0.81658073  1
  Zn  Zn124  1  0.05404164  0.56202231  0.30944852  1
  Zn  Zn125  1  0.06165865  0.57974570  0.80977765  1
  Zn  Zn126  1  0.56305925  0.06098335  0.31209237  1
  Zn  Zn127  1  0.56209568  0.06444745  0.81796947  1
  Zn  Zn128  1  0.57601447  0.56045730  0.32562159  1
  Zn  Zn129  1  0.56417202  0.56239304  0.80146045  1
  Zn  Zn130  1  0.43846491  0.18783028  0.43444170  1
  Zn  Zn131  1  0.43102364  0.18908578  0.93643159  1
  Zn  Zn132  1  0.48362278  0.71600262  0.47702183  1
  Zn  Zn133  1  0.43179473  0.67770165  0.92935885  1
  Zn  Zn134  1  0.94545945  0.18873877  0.44923657  1
  Zn  Zn135  1  0.95379308  0.15058122  0.93058049  1
  Zn  Zn136  1  0.90821687  0.69112238  0.43238291  1
  Zn  Zn137  1  0.94043385  0.68904843  0.93094663  1
  Zn  Zn138  1  0.12440767  0.28679626  0.10286867  1
  Zn  Zn139  1  0.06970623  0.30111762  0.59542485  1
  Zn  Zn140  1  0.03819560  0.82807915  0.05580348  1
  Zn  Zn141  1  0.06153753  0.81316932  0.55931358  1
  Zn  Zn142  1  0.56018917  0.31661759  0.06218166  1
  Zn  Zn143  1  0.56264855  0.31525121  0.56093408  1
  Zn  Zn144  1  0.57512415  0.81823671  0.05924214  1
  Zn  Zn145  1  0.57087672  0.80529174  0.57159458  1
  O  O146  1  0.11540218  0.12062670  0.12298026  1
  O  O147  1  0.11783549  0.10411978  0.61482533  1
  O  O148  1  0.11025165  0.62818025  0.12379808  1
  O  O149  1  0.10947043  0.62212941  0.61663979  1
  O  O150  1  0.62329491  0.13110093  0.11088553  1
  O  O151  1  0.61912528  0.12272068  0.61998249  1
  O  O152  1  0.63520079  0.61686450  0.11218143  1
  O  O153  1  0.61028165  0.62465612  0.62152678  1
  O  O154  1  0.38165780  0.37809087  0.38832005  1
  O  O155  1  0.38232024  0.37051955  0.89159310  1
  O  O156  1  0.38268758  0.89398673  0.36420177  1
  O  O157  1  0.37214186  0.88821562  0.86510485  1
  O  O158  1  0.87399859  0.38599006  0.36652122  1
  O  O159  1  0.88168030  0.38527455  0.87485066  1
  O  O160  1  0.87483633  0.88282505  0.38776977  1
  O  O161  1  0.80636194  0.85110876  0.91432230  1
  O  O162  1  0.26573979  0.00027503  0.36790168  1
  O  O163  1  0.26697009  0.00839183  0.87988560  1
  O  O164  1  0.25330314  0.51028767  0.37674093  1
  O  O165  1  0.22926111  0.51646071  0.86658156  1
  O  O166  1  0.76583906  0.00235782  0.36549742  1
  O  O167  1  0.74239878  0.01597228  0.87118372  1
  O  O168  1  0.76753267  0.50050925  0.37828629  1
  O  O169  1  0.75825415  0.50198230  0.87067238  1
  O  O170  1  0.25580435  0.51426419  0.14560850  1
  O  O171  1  0.23347431  0.51280275  0.61494836  1
  O  O172  1  0.24514706  1.01034289  0.13952009  1
  O  O173  1  0.23794339  0.98600178  0.61947355  1
  O  O174  1  0.73849796  0.48644938  0.11499278  1
  O  O175  1  0.76622064  0.50136108  0.63870750  1
  O  O176  1  0.75949975  0.98826611  0.14158315  1
  O  O177  1  0.74448926  0.99510175  0.63428355  1
  O  O178  1  0.00311429  0.36707465  0.25447752  1
  O  O179  1  0.00736779  0.37845205  0.77967682  1
  O  O180  1  -0.00815406  0.85522724  0.24747731  1
  O  O181  1  0.00033707  0.86503507  0.74935021  1
  O  O182  1  0.50723152  0.36559062  0.26110865  1
  O  O183  1  0.51309998  0.36712097  0.74211822  1
  O  O184  1  0.52456861  0.87988041  0.25516422  1
  O  O185  1  0.51493309  0.88058504  0.74998808  1
  O  O186  1  0.49838251  0.13858998  0.25265594  1
  O  O187  1  0.49819315  0.13360203  0.73803474  1
  O  O188  1  0.50444671  0.66069824  0.29203189  1
  O  O189  1  0.50173166  0.63360751  0.73945445  1
  O  O190  1  1.00816823  0.14650581  0.24735950  1
  O  O191  1  1.00359189  0.11792197  0.73390497  1
  O  O192  1  0.99258736  0.62595543  0.23110717  1
  O  O193  1  0.99631873  0.63739234  0.72921290  1
  O  O194  1  0.38240916  0.26350986  0.00509344  1
  O  O195  1  0.38431738  0.26513638  0.50578909  1
  O  O196  1  0.37582361  0.74844189  0.02239968  1
  O  O197  1  0.37000096  0.74981487  0.47704042  1
  O  O198  1  0.85659920  0.25154184  0.00112200  1
  O  O199  1  0.86054050  0.24467262  0.50327598  1
  O  O200  1  0.86433421  0.73820191  0.00750959  1
  O  O201  1  0.88764774  0.77176899  0.51594984  1
  O  O202  1  0.11838698  0.23369372  0.51456228  1
  O  O203  1  0.10257571  0.16328011  1.06154427  1
  O  O204  1  0.12067343  0.75094132  0.47997639  1
  O  O205  1  0.10662204  0.75962348  0.99232878  1
  O  O206  1  0.63629713  0.24638909  0.49586332  1
  O  O207  1  0.62262540  0.24234460  0.99414102  1
  O  O208  1  0.59854154  0.74942642  0.47672228  1
  O  O209  1  0.64186211  0.74709515  0.98795825  1
  O  O210  1  0.50425567  0.25567312  0.14397977  1
  O  O211  1  0.49620838  0.24428835  0.63040247  1
  O  O212  1  0.48365175  0.75593917  0.12179863  1
  O  O213  1  0.48965510  0.73053721  0.60093193  1
  O  O214  1  1.00657920  0.28311170  0.11521012  1
  O  O215  1  0.97538401  0.22950168  0.61233037  1
  O  O216  1  0.99195853  0.74206061  0.12867149  1
  O  O217  1  0.99479100  0.74757240  0.63136474  1
  O  O218  1  -0.00641288  0.25281789  0.37103173  1
  O  O219  1  -0.00892916  0.25086921  0.89230481  1
  O  O220  1  0.00652962  0.74236377  0.36080552  1
  O  O221  1  0.01101110  0.74111289  0.85777717  1
  O  O222  1  0.51305155  0.25968591  0.37103983  1
  O  O223  1  0.50645002  0.24167178  0.85966025  1
  O  O224  1  0.49110012  0.71652002  0.33973227  1
  O  O225  1  0.51225154  0.75138994  0.88657301  1
  O  O226  1  0.23845001  0.12315318  0.50765093  1
  O  O227  1  0.25522153  0.12701775  0.99036403  1
  O  O228  1  0.24885203  0.64150928  0.48693348  1
  O  O229  1  0.24705259  0.61452827  0.99125964  1
  O  O230  1  0.73640644  0.12521839  0.50330579  1
  O  O231  1  0.73757900  0.13373537  0.99545137  1
  O  O232  1  0.72423629  0.63333216  0.52355028  1
  O  O233  1  0.73671624  0.61598871  0.98238041  1
  O  O234  1  0.26743708  0.38948933  0.00131226  1
  O  O235  1  0.26486130  0.37929115  0.51161661  1
  O  O236  1  0.23533222  0.87443345  0.02240685  1
  O  O237  1  0.25256055  0.86131255  0.49417313  1
  O  O238  1  0.73814140  0.36273171  0.01094506  1
  O  O239  1  0.75331237  0.36323532  0.50443925  1
  O  O240  1  0.72646083  0.88446836  0.02592433  1
  O  O241  1  0.76492642  0.88836826  0.51264554  1
  O  O242  1  0.13899088  0.49803130  0.26282001  1
  O  O243  1  0.11314822  0.50934596  0.73221008  1
  O  O244  1  0.13568247  1.00738634  0.24909595  1
  O  O245  1  0.12027490  0.99401728  0.73763895  1
  O  O246  1  0.62164330  0.49119650  0.24557462  1
  O  O247  1  0.63632589  0.48476131  0.75098244  1
  O  O248  1  0.64307226  0.99348848  0.26197472  1
  O  O249  1  0.63163279  0.99382877  0.74708777  1
  O  O250  1  0.37615409  0.01122976  0.25643306  1
  O  O251  1  0.38581532  0.01276895  0.76189639  1
  O  O252  1  0.36038836  0.48909132  0.26890442  1
  O  O253  1  0.37986332  0.52371922  0.75729654  1
  O  O254  1  0.87306434  -0.00288954  0.26057257  1
  O  O255  1  0.86102596  -0.00730953  0.75282228  1
  O  O256  1  0.87682623  0.50600286  0.25547375  1
  O  O257  1  0.86330589  0.49562860  0.76304449  1
  O  O258  1  0.16107867  0.34377169  0.38470888  1
  O  O259  1  0.11547812  0.35557842  0.88623262  1
  O  O260  1  0.12455839  0.86398976  0.36955948  1
  O  O261  1  0.13606916  0.86003344  0.87031283  1
  O  O262  1  0.62198765  0.37141926  0.36799536  1
  O  O263  1  0.62943264  0.36227637  0.86708208  1
  O  O264  1  0.63944360  0.87082630  0.37120962  1
  O  O265  1  0.62764784  0.86477840  0.86655457  1
  O  O266  1  0.37069962  0.13670336  0.14669691  1
  O  O267  1  0.38400215  0.13036351  0.62773810  1
  O  O268  1  0.38631606  0.64416003  0.12750927  1
  O  O269  1  0.37892146  0.62828336  0.63642179  1
  O  O270  1  0.90099288  0.13144498  0.09742853  1
  O  O271  1  0.88659070  0.11094757  0.62673911  1
  O  O272  1  0.87751720  0.63105315  0.13129818  1
  O  O273  1  0.87992339  0.64043934  0.61762058  1
  O  O274  1  0.22647398  0.24475047  0.12999216  1
  O  O275  1  0.26848493  0.25151588  0.62692602  1
  O  O276  1  0.27362333  0.74173786  0.13109168  1
  O  O277  1  0.24757318  0.75952769  0.60136610  1
  O  O278  1  0.74912584  0.25843795  0.11432616  1
  O  O279  1  0.76200194  0.24485489  0.61343498  1
  O  O280  1  0.75429791  0.76026795  0.11107055  1
  O  O281  1  0.75814750  0.76506565  0.63464388  1
  O  O282  1  0.21784471  0.29047661  0.38379407  1
  O  O283  1  0.25531547  0.23737569  0.87182536  1
  O  O284  1  0.24052871  0.74473062  0.37518271  1
  O  O285  1  0.23638572  0.74258827  0.88515814  1
  O  O286  1  0.74113932  0.25711898  0.38439899  1
  O  O287  1  0.74037752  0.24539757  0.88675605  1
  O  O288  1  0.79803902  0.73672036  0.39221363  1
  O  O289  1  0.74068611  0.72906493  0.87059892  1
  O  O290  1  -0.03475437  0.12382268  0.04814255  1
  O  O291  1  0.00622700  0.10900313  0.50955802  1
  O  O292  1  -0.00653278  0.62097057  0.00902307  1
  O  O293  1  -0.00904620  0.62985935  0.51181164  1
  O  O294  1  0.50703503  0.12125314  -0.00288503  1
  O  O295  1  0.51028951  0.12587426  0.51050123  1
  O  O296  1  0.51299050  0.61387037  -0.00963693  1
  O  O297  1  0.51412646  0.60691359  0.50676649  1
  O  O298  1  0.49759573  0.37610095  0.48814621  1
  O  O299  1  0.50364647  0.38964867  0.99638840  1
  O  O300  1  0.50186480  0.89050973  0.50966238  1
  O  O301  1  0.51441820  0.89270357  0.99460553  1
  O  O302  1  1.00225946  0.38592431  0.51062193  1
  O  O303  1  0.99471593  0.40014671  0.97845610  1
  O  O304  1  0.98771487  0.89109032  0.50628996  1
  O  O305  1  0.98531783  0.87966737  0.95806431  1
  O  O306  1  0.48722419  0.49303387  0.36401595  1
  O  O307  1  0.50584496  0.49703261  0.87764620  1
  O  O308  1  0.49904442  1.00068716  0.38927387  1
  O  O309  1  0.48913042  0.99976462  0.88214540  1
  O  O310  1  0.99892560  0.49480604  0.38729305  1
  O  O311  1  0.98272096  0.52150758  0.87991101  1
  O  O312  1  0.99287467  1.00261806  0.38295068  1
  O  O313  1  0.98781959  1.04085928  0.90044099  1
  O  O314  1  0.02275221  -0.06389833  0.10664114  1
  O  O315  1  0.00950792  0.00263886  0.61580627  1
  O  O316  1  -0.00791650  0.51091328  0.10438834  1
  O  O317  1  -0.00397603  0.51250217  0.61787375  1
  O  O318  1  0.48801658  -0.00121480  0.10868638  1
  O  O319  1  0.50354461  0.01015200  0.61614688  1
  O  O320  1  0.51077056  0.50097373  0.12873510  1
  O  O321  1  0.49288317  0.51909915  0.62632500  1
  O  O322  1  0.24464732  0.38593701  0.24708756  1
  O  O323  1  0.24257519  0.37659898  0.75100175  1
  O  O324  1  0.25199009  0.89372505  0.25173228  1
  O  O325  1  0.25012026  0.85804892  0.72948506  1
  O  O326  1  0.73831279  0.36384391  0.23427262  1
  O  O327  1  0.74125203  0.38287172  0.75263531  1
  O  O328  1  0.74547969  0.88028785  0.24642784  1
  O  O329  1  0.74186016  0.88519044  0.74341425  1
  O  O330  1  0.26472157  0.11616088  0.26433576  1
  O  O331  1  0.26461297  0.12729232  0.74465464  1
  O  O332  1  0.24845695  0.61881814  0.26609941  1
  O  O333  1  0.25382130  0.63149862  0.74797862  1
  O  O334  1  0.74808510  0.11326629  0.24160514  1
  O  O335  1  0.74119734  0.11990434  0.76306738  1
  O  O336  1  0.76656297  0.62432931  0.24387957  1
  O  O337  1  0.73756791  0.60616403  0.76062323  1
  O  O338  1  0.38775766  0.11393126  0.36336881  1
  O  O339  1  0.36688378  0.12065578  0.86575766  1
  O  O340  1  0.36404803  0.61105690  0.37864714  1
  O  O341  1  0.35118130  0.62728426  0.86998968  1
  O  O342  1  0.87941703  0.11455243  0.37811840  1
  O  O343  1  0.85058191  0.13454451  0.88071621  1
  O  O344  1  0.89061326  0.60899698  0.35550192  1
  O  O345  1  0.85743391  0.62081192  0.87334612  1
  O  O346  1  0.10648471  0.39531163  0.12696737  1
  O  O347  1  0.12649915  0.40051105  0.61828391  1
  O  O348  1  0.18822003  0.86684694  0.07914176  1
  O  O349  1  0.13146611  0.88580824  0.61549663  1
  O  O350  1  0.62720607  0.38425930  0.13377151  1
  O  O351  1  0.63138670  0.36835941  0.63577383  1
  O  O352  1  0.63765837  0.86592268  0.14656789  1
  O  O353  1  0.63412943  0.87985080  0.63194248  1
  O  O354  1  0.10959279  0.26120179  0.25022902  1
  O  O355  1  0.10735626  0.26008290  0.70001228  1
  O  O356  1  0.11267748  0.74504539  0.25619143  1
  O  O357  1  0.11340089  0.75330844  0.74153176  1
  O  O358  1  0.61758286  0.25652223  0.25781557  1
  O  O359  1  0.62169634  0.25949728  0.75424386  1
  O  O360  1  0.63905275  0.75582129  0.26157005  1
  O  O361  1  0.63314374  0.75897543  0.75765745  1
  O  O362  1  0.38647420  0.24344943  0.26224741  1
  O  O363  1  0.38623775  0.24472408  0.74099875  1
  O  O364  1  0.38092422  0.74896801  0.23290290  1
  O  O365  1  0.38208035  0.73052509  0.76293660  1
  O  O366  1  0.89145214  0.25136602  0.23794293  1
  O  O367  1  0.86358409  0.24591566  0.73748238  1
  O  O368  1  0.88601579  0.73679401  0.24124752  1
  O  O369  1  0.88567968  0.75820736  0.74022184  1
  O  O370  1  0.37257408  0.48934753  0.48742877  1
  O  O371  1  0.39543611  0.49440005  1.00322130  1
  O  O372  1  0.38779836  1.00725480  0.48871585  1
  O  O373  1  0.38705621  1.00833437  0.98701330  1
  O  O374  1  0.88518132  0.50353476  0.48558016  1
  O  O375  1  0.87190300  0.50380779  0.98455330  1
  O  O376  1  0.88362824  0.99531014  0.48825159  1
  O  O377  1  0.89186492  0.99112441  1.02377968  1
  O  O378  1  0.10241998  -0.00331442  -0.00256253  1
  O  O379  1  0.11389968  -0.00092923  0.49662029  1
  O  O380  1  0.11072158  0.50663187  -0.01300868  1
  O  O381  1  0.10727662  0.50891829  0.50579652  1
  O  O382  1  0.61304004  0.01832494  -0.00610723  1
  O  O383  1  0.61629297  0.00742199  0.50516329  1
  O  O384  1  0.61429035  0.50495879  0.00490725  1
  O  O385  1  0.63098149  0.49081763  0.51486898  1
  O  O386  1  0.38101561  0.36943339  0.11128048  1
  O  O387  1  0.38162018  0.37253784  0.61537510  1
  O  O388  1  0.37606879  0.85465964  0.13130269  1
  O  O389  1  0.35982855  0.88635720  0.61992263  1
  O  O390  1  0.86032539  0.38042773  0.12439353  1
  O  O391  1  0.88704813  0.36262010  0.63412246  1
  O  O392  1  0.85939810  0.85754321  0.13448773  1
  O  O393  1  0.86753971  0.87452545  0.62126940  1
  O  O394  1  0.12447034  0.12547627  0.39372120  1
  O  O395  1  0.14898354  0.11619301  0.86538912  1
  O  O396  1  0.13371817  0.63077571  0.37487070  1
  O  O397  1  0.13291626  0.64347674  0.87104236  1
  O  O398  1  0.61819140  0.13753222  0.38490877  1
  O  O399  1  0.63117819  0.13902560  0.88191482  1
  O  O400  1  0.63569217  0.61079093  0.40328480  1
  O  O401  1  0.62878164  0.62922146  0.87843010  1
