# generated using pymatgen
data_V73Zn73O256
_symmetry_space_group_name_H-M   'P 1'
_cell_length_a   16.93211231
_cell_length_b   16.93989911
_cell_length_c   16.95881952
_cell_angle_alpha   90.08942590
_cell_angle_beta   89.93508669
_cell_angle_gamma   89.90770125
_symmetry_Int_Tables_number   1
_chemical_formula_structural   V73Zn73O256
_chemical_formula_sum   'V73 Zn73 O256'
_cell_volume   4864.25356325
_cell_formula_units_Z   1
loop_
 _symmetry_equiv_pos_site_id
 _symmetry_equiv_pos_as_xyz
  1  'x, y, z'
loop_
 _atom_site_type_symbol
 _atom_site_label
 _atom_site_symmetry_multiplicity
 _atom_site_fract_x
 _atom_site_fract_y
 _atom_site_fract_z
 _atom_site_occupancy
  V  V0  1  0.11531740  0.12127277  0.51102491  1
  V  V1  1  0.74750468  0.62448301  0.87495764  1
  V  V2  1  0.13198268  0.38578701  0.74974573  1
  V  V3  1  0.61727284  0.62391357  0.50900253  1
  V  V4  1  0.00626796  -0.00615617  0.50525008  1
  V  V5  1  0.75530818  0.33896464  0.62758400  1
  V  V6  1  0.24495998  0.88479306  0.62348045  1
  V  V7  1  0.74271176  -0.00095417  0.25003986  1
  V  V8  1  0.24858390  0.24926169  0.50879856  1
  V  V9  1  0.87849888  0.01441913  0.85971318  1
  V  V10  1  0.24429169  0.73812660  0.01158162  1
  V  V11  1  0.25257397  0.74440615  0.49952023  1
  V  V12  1  0.25385984  -0.00840022  0.24880794  1
  V  V13  1  0.88604352  0.01442546  0.35727581  1
  V  V14  1  0.86593419  0.76048015  0.13023427  1
  V  V15  1  0.88045208  0.62435907  0.74119254  1
  V  V16  1  -0.00940559  -0.00330109  0.00429419  1
  V  V17  1  0.75446823  0.50428408  0.25274809  1
  V  V18  1  0.13236147  0.74089182  0.87851094  1
  V  V19  1  0.57959077  0.41004436  0.73532408  1
  V  V20  1  0.39832824  0.37000730  0.50037658  1
  V  V21  1  0.87213068  0.75863667  0.62563097  1
  V  V22  1  0.73157856  0.38232778  0.11686311  1
  V  V23  1  0.50394824  0.12665490  0.10479360  1
  V  V24  1  0.38307212  -0.00288545  0.37961598  1
  V  V25  1  0.00332038  0.74719308  0.74512328  1
  V  V26  1  0.87401517  0.49905034  0.87394822  1
  V  V27  1  0.38371492  0.74427532  0.13693757  1
  V  V28  1  0.00559170  0.37230600  0.87704306  1
  V  V29  1  0.48162398  0.37487110  0.88071840  1
  V  V30  1  0.49692543  0.87489614  0.88004492  1
  V  V31  1  0.26587270  0.24625821  0.01026516  1
  V  V32  1  -0.00392847  0.24187520  0.74109161  1
  V  V33  1  0.61590380  0.75861162  0.36694282  1
  V  V34  1  -0.00664897  0.87580630  0.87844040  1
  V  V35  1  0.88369741  0.87049250  0.48217135  1
  V  V36  1  0.74963868  0.49290852  0.73707700  1
  V  V37  1  0.12645095  -0.00885860  0.12817876  1
  V  V38  1  0.62525046  -0.00495725  0.09982116  1
  V  V39  1  0.75192825  0.75332868  0.49744376  1
  V  V40  1  0.36226703  0.87805416  0.00787899  1
  V  V41  1  0.62597619  0.36942888  0.27864702  1
  V  V42  1  0.75384721  0.76928856  -0.00798067  1
  V  V43  1  0.87502236  0.37681530  0.00259717  1
  V  V44  1  0.12786933  0.88812514  0.74697069  1
  V  V45  1  0.10896915  0.87356027  0.26929701  1
  V  V46  1  0.01035164  0.51028906  0.00309279  1
  V  V47  1  0.38736110  0.87803966  0.50410367  1
  V  V48  1  0.26478400  0.37713008  0.12293571  1
  V  V49  1  0.24771164  0.38557797  0.62558848  1
  V  V50  1  0.65060124  0.12185619  0.47208930  1
  V  V51  1  0.73827968  0.24411453  -0.00142802  1
  V  V52  1  0.13294554  0.38381907  0.24271450  1
  V  V53  1  0.25208621  0.12718204  0.37415113  1
  V  V54  1  0.73975009  0.12801389  0.87202042  1
  V  V55  1  0.51213752  0.10195684  0.62630429  1
  V  V56  1  0.51840633  0.23320847  0.76216984  1
  V  V57  1  0.38126994  0.53116483  0.35432664  1
  V  V58  1  0.89261004  0.49717247  0.39628943  1
  V  V59  1  0.61583027  0.74334931  0.86915254  1
  V  V60  1  0.12059892  0.25633224  0.37463425  1
  V  V61  1  0.24582195  0.11714220  0.87478941  1
  V  V62  1  0.61545039  0.61437730  0.00466396  1
  V  V63  1  0.87453549  0.24944362  0.12779030  1
  V  V64  1  0.36557957  0.11973464  0.74983961  1
  V  V65  1  -0.00472486  0.12528783  0.13184231  1
  V  V66  1  0.50503906  0.24238335  0.27526024  1
  V  V67  1  -0.01027391  0.63253046  0.13424967  1
  V  V68  1  0.36737577  -0.00605799  0.87344442  1
  V  V69  1  0.48400664  0.74718027  0.73590371  1
  V  V70  1  0.10944804  0.62224482  0.53314593  1
  V  V71  1  0.00180434  0.25719288  0.24824496  1
  V  V72  1  0.12407409  0.12751510  0.00504632  1
  Zn  Zn73  1  0.75072698  0.92237285  0.63060871  1
  Zn  Zn74  1  0.17396320  0.56413482  0.08598999  1
  Zn  Zn75  1  0.63134101  0.88557835  0.73404291  1
  Zn  Zn76  1  0.61704913  0.87141646  0.23914149  1
  Zn  Zn77  1  0.75532512  0.62867433  0.37065639  1
  Zn  Zn78  1  0.12920941  0.25023563  0.87694895  1
  Zn  Zn79  1  0.38194674  0.24487966  0.63299848  1
  Zn  Zn80  1  0.75362788  0.16119385  0.34994973  1
  Zn  Zn81  1  0.37043443  0.14685138  0.23182804  1
  Zn  Zn82  1  0.18537665  0.18676573  0.18905551  1
  Zn  Zn83  1  0.17698652  0.18936158  0.69434726  1
  Zn  Zn84  1  0.17813371  0.69983578  0.18872193  1
  Zn  Zn85  1  0.19312003  0.69761604  0.68236460  1
  Zn  Zn86  1  0.67986533  0.18165833  0.18489072  1
  Zn  Zn87  1  0.72369177  0.12434854  0.66601247  1
  Zn  Zn88  1  0.68749421  0.69129171  0.18126708  1
  Zn  Zn89  1  0.68519329  0.68946250  0.68871540  1
  Zn  Zn90  1  0.31507948  0.31613014  0.31900698  1
  Zn  Zn91  1  0.30935791  0.30526692  0.81479419  1
  Zn  Zn92  1  0.30968963  0.81108159  0.32046390  1
  Zn  Zn93  1  0.30824522  0.80834592  0.81049945  1
  Zn  Zn94  1  0.81708423  0.33521078  0.30667396  1
  Zn  Zn95  1  0.80884349  0.30570449  0.81104076  1
  Zn  Zn96  1  0.80455606  0.81849897  0.30797829  1
  Zn  Zn97  1  0.81079789  0.81754750  0.81003547  1
  Zn  Zn98  1  0.18846044  0.44488653  0.42734171  1
  Zn  Zn99  1  0.19669933  0.43680397  0.94300380  1
  Zn  Zn100  1  0.19127531  0.93677163  0.43710644  1
  Zn  Zn101  1  0.17991499  0.93225766  0.94044146  1
  Zn  Zn102  1  0.70480759  0.43538364  0.45218433  1
  Zn  Zn103  1  0.65677134  0.44916391  0.90648450  1
  Zn  Zn104  1  0.69353705  0.94160676  0.43869606  1
  Zn  Zn105  1  0.68242103  0.94693168  0.90437756  1
  Zn  Zn106  1  0.31583229  0.06031533  0.06532132  1
  Zn  Zn107  1  0.30800444  0.05984642  0.56399450  1
  Zn  Zn108  1  0.31376894  0.56472683  0.18055195  1
  Zn  Zn109  1  0.28704950  0.53767449  0.51382951  1
  Zn  Zn110  1  0.80659286  0.06063197  0.06633109  1
  Zn  Zn111  1  0.82372246  0.06644864  0.53386414  1
  Zn  Zn112  1  0.80826936  0.56592757  0.06382129  1
  Zn  Zn113  1  0.81133596  0.56745188  0.55911122  1
  Zn  Zn114  1  0.43485939  0.41271825  0.20897195  1
  Zn  Zn115  1  0.41725867  0.46669389  0.63915571  1
  Zn  Zn116  1  0.44607790  0.93927094  0.18157357  1
  Zn  Zn117  1  0.43035265  0.92612604  0.69526968  1
  Zn  Zn118  1  0.93945594  0.43904198  0.18598436  1
  Zn  Zn119  1  0.92658752  0.41213476  0.69003665  1
  Zn  Zn120  1  0.93464704  0.93115219  0.18450332  1
  Zn  Zn121  1  0.93876959  0.93802457  0.68490507  1
  Zn  Zn122  1  0.06522614  0.06561615  0.31519752  1
  Zn  Zn123  1  0.06025703  0.06430029  0.81582678  1
  Zn  Zn124  1  0.05293070  0.56031059  0.31116284  1
  Zn  Zn125  1  0.06417998  0.56309256  0.81301943  1
  Zn  Zn126  1  0.56226521  0.06196612  0.30983856  1
  Zn  Zn127  1  0.56120274  0.05538989  0.81587162  1
  Zn  Zn128  1  0.58428662  0.53882663  0.36149023  1
  Zn  Zn129  1  0.46797967  0.55523003  0.78975192  1
  Zn  Zn130  1  0.43878892  0.18016508  0.45038867  1
  Zn  Zn131  1  0.43661010  0.18403922  0.93255748  1
  Zn  Zn132  1  0.43969832  0.69613404  0.43896970  1
  Zn  Zn133  1  0.43244284  0.68582503  0.94516278  1
  Zn  Zn134  1  0.90557256  0.22330819  0.40868132  1
  Zn  Zn135  1  0.93875666  0.18955677  0.94298863  1
  Zn  Zn136  1  0.93346983  0.66654819  0.44500281  1
  Zn  Zn137  1  0.93386158  0.69117620  0.93249371  1
  Zn  Zn138  1  0.06656280  0.31748036  0.06552216  1
  Zn  Zn139  1  0.07044437  0.30937247  0.56792025  1
  Zn  Zn140  1  0.05662585  0.80796094  0.06470182  1
  Zn  Zn141  1  0.06699731  0.80816631  0.55978055  1
  Zn  Zn142  1  0.55036623  0.30556876  0.05856603  1
  Zn  Zn143  1  0.57580345  0.28763732  0.57963429  1
  Zn  Zn144  1  0.56226512  0.80863634  0.05606798  1
  Zn  Zn145  1  0.57356819  0.82253852  0.56260021  1
  O  O146  1  0.11669812  0.11651882  0.12121768  1
  O  O147  1  0.12614842  0.12766019  0.60937584  1
  O  O148  1  0.08975568  0.64496282  0.10852092  1
  O  O149  1  0.12690244  0.61757856  0.63217867  1
  O  O150  1  0.61481869  0.11052867  0.12257458  1
  O  O151  1  0.61114314  0.10665442  0.64310650  1
  O  O152  1  0.63589116  0.62916922  0.10251242  1
  O  O153  1  0.63469671  0.62716675  0.60860151  1
  O  O154  1  0.37913373  0.36745624  0.40113471  1
  O  O155  1  0.38060563  0.36543196  0.87617202  1
  O  O156  1  0.36865645  0.88962330  0.38707613  1
  O  O157  1  0.37354861  0.87805721  0.87975362  1
  O  O158  1  0.89186623  0.40205508  0.35757558  1
  O  O159  1  0.88308765  0.38206316  0.88369412  1
  O  O160  1  0.88228342  0.87121077  0.38048268  1
  O  O161  1  0.88861733  0.88888625  0.86810135  1
  O  O162  1  0.24918547  0.01089880  0.36409375  1
  O  O163  1  0.25146921  0.00917365  0.88544924  1
  O  O164  1  0.29039125  0.49940360  0.40120825  1
  O  O165  1  0.27192795  0.51084618  0.88547162  1
  O  O166  1  0.77150833  -0.00353181  0.36175157  1
  O  O167  1  0.77424190  0.01807626  0.88723001  1
  O  O168  1  0.76000135  0.49301996  0.35946851  1
  O  O169  1  0.76129327  0.50226461  0.86516484  1
  O  O170  1  0.25847761  0.47780192  0.10514200  1
  O  O171  1  0.25254265  0.48320843  0.61752704  1
  O  O172  1  0.24133837  1.00917924  0.14186598  1
  O  O173  1  0.23931773  0.98558016  0.61909135  1
  O  O174  1  0.74808390  0.48547704  0.12663238  1
  O  O175  1  0.75843380  0.50175363  0.63833813  1
  O  O176  1  0.73423117  1.00573730  0.13374602  1
  O  O177  1  0.78162203  1.03201218  0.62898569  1
  O  O178  1  0.01724734  0.36559398  0.23475136  1
  O  O179  1  0.01223748  0.37282470  0.76063033  1
  O  O180  1  0.01041168  0.88228869  0.25218153  1
  O  O181  1  0.00907147  0.86786762  0.75625818  1
  O  O182  1  0.51818116  0.36087866  0.26124940  1
  O  O183  1  0.49409807  0.34272907  0.75239675  1
  O  O184  1  0.50739684  0.89219148  0.25936879  1
  O  O185  1  0.49712070  0.86495419  0.76865166  1
  O  O186  1  0.49872392  0.13818416  0.24967864  1
  O  O187  1  0.48673152  0.12154917  0.75789411  1
  O  O188  1  0.51150283  0.55588803  0.16082006  1
  O  O189  1  0.50539730  0.64830458  0.74552323  1
  O  O190  1  1.01012264  0.13962480  0.23799143  1
  O  O191  1  1.01202074  0.14290945  0.75435092  1
  O  O192  1  0.99169296  0.61609713  0.23206106  1
  O  O193  1  0.99048305  0.63508331  0.75964211  1
  O  O194  1  0.36365274  0.24024616  0.00417735  1
  O  O195  1  0.36335994  0.25391204  0.50917300  1
  O  O196  1  0.35794364  0.75434682  0.00480621  1
  O  O197  1  0.36867289  0.77267945  0.49484691  1
  O  O198  1  0.87526292  0.26188620  0.00992305  1
  O  O199  1  0.90023102  0.23288913  0.53007921  1
  O  O200  1  0.85729396  0.75448903  -0.01216149  1
  O  O201  1  0.87647277  0.75383902  0.50646186  1
  O  O202  1  0.12576517  0.24110282  0.49271027  1
  O  O203  1  0.12615054  0.23590407  1.00379911  1
  O  O204  1  0.13697787  0.72749546  0.51104696  1
  O  O205  1  0.13303049  0.76303463  0.98705244  1
  O  O206  1  0.61919958  0.20917464  0.51449129  1
  O  O207  1  0.64097917  0.25115171  1.00240196  1
  O  O208  1  0.63659829  0.74732954  0.49360352  1
  O  O209  1  0.63602369  0.73972419  0.98900266  1
  O  O210  1  0.50781354  0.23006380  0.12938325  1
  O  O211  1  0.49768386  0.22353570  0.64775070  1
  O  O212  1  0.48326168  0.75841618  0.12290728  1
  O  O213  1  0.50449586  0.77036761  0.64003652  1
  O  O214  1  0.99570224  0.24428995  0.12762363  1
  O  O215  1  1.00578944  0.25789625  0.64202770  1
  O  O216  1  0.97879875  0.74368247  0.11766149  1
  O  O217  1  0.99256018  0.75638857  0.63932516  1
  O  O218  1  0.00808604  0.24925836  0.36158712  1
  O  O219  1  0.00435811  0.26513963  0.88120859  1
  O  O220  1  0.02308803  0.71777929  0.36924792  1
  O  O221  1  0.00638542  0.75936772  0.86874348  1
  O  O222  1  0.50490085  0.23640340  0.37393251  1
  O  O223  1  0.49680869  0.25113505  0.86656877  1
  O  O224  1  0.51687840  0.75372084  0.37409857  1
  O  O225  1  0.49873600  0.75172667  0.86774935  1
  O  O226  1  0.23917457  0.13074120  0.49371544  1
  O  O227  1  0.24339261  0.13007981  1.00042294  1
  O  O228  1  0.27665439  0.64882403  0.52071149  1
  O  O229  1  0.23546744  0.63974467  1.00925058  1
  O  O230  1  0.75453948  0.13039611  0.47233290  1
  O  O231  1  0.75915158  0.14095831  0.99764385  1
  O  O232  1  0.74779026  0.64110420  0.49787881  1
  O  O233  1  0.74924171  0.62676467  0.98193335  1
  O  O234  1  0.24532993  0.35458550  0.01065145  1
  O  O235  1  0.23932272  0.36483482  0.51385224  1
  O  O236  1  0.25821041  0.86595143  -0.00641943  1
  O  O237  1  0.24466335  0.86888129  0.51160877  1
  O  O238  1  0.75752463  0.36560479  0.00779142  1
  O  O239  1  0.72094599  0.36236976  0.53477552  1
  O  O240  1  0.74162023  0.86565729  -0.02381917  1
  O  O241  1  0.76949410  0.86930116  0.50113456  1
  O  O242  1  0.12264025  0.48046795  0.26536761  1
  O  O243  1  0.12548123  0.48544271  0.75832702  1
  O  O244  1  0.13251210  0.99613944  0.24645901  1
  O  O245  1  0.11821018  0.98641618  0.75448500  1
  O  O246  1  0.63284973  0.47798543  0.26768052  1
  O  O247  1  0.64935104  0.49995128  0.75359503  1
  O  O248  1  0.63786281  0.99536777  0.25736515  1
  O  O249  1  0.63536713  0.97523705  0.80225194  1
  O  O250  1  0.36076635  -0.00269224  0.26144249  1
  O  O251  1  0.36817198  0.00309172  0.76607008  1
  O  O252  1  0.37422358  0.50100466  0.25246767  1
  O  O253  1  0.36505494  0.53489596  0.72455604  1
  O  O254  1  0.87187316  -0.00127648  0.25343588  1
  O  O255  1  0.88835016  0.00745513  0.76140370  1
  O  O256  1  0.85509359  0.49589720  0.23753661  1
  O  O257  1  0.87590337  0.50361279  0.75589517  1
  O  O258  1  0.13765809  0.36261223  0.36470598  1
  O  O259  1  0.12325316  0.37674762  0.87073169  1
  O  O260  1  0.12063795  0.88119759  0.36868599  1
  O  O261  1  0.11629823  0.86997195  0.86285794  1
  O  O262  1  0.64210372  0.36299437  0.37496809  1
  O  O263  1  0.60572619  0.37866598  0.83813162  1
  O  O264  1  0.63645163  0.85938315  0.38196332  1
  O  O265  1  0.60046729  0.85647405  0.89369703  1
  O  O266  1  0.39611976  0.10933838  0.12736859  1
  O  O267  1  0.37102043  0.11705919  0.64134201  1
  O  O268  1  0.37458839  0.64382006  0.12723377  1
  O  O269  1  0.32645597  0.60380270  0.69719553  1
  O  O270  1  0.88576953  0.13697366  0.11907692  1
  O  O271  1  0.89010638  0.17235025  0.57289509  1
  O  O272  1  0.88080862  0.63992209  0.10954058  1
  O  O273  1  0.87432914  0.63431456  0.63683834  1
  O  O274  1  0.24874914  0.24991105  0.11550249  1
  O  O275  1  0.24363450  0.24905430  0.61557260  1
  O  O276  1  0.25085849  0.75766173  0.11203354  1
  O  O277  1  0.24914942  0.77062161  0.61570759  1
  O  O278  1  0.75643896  0.25803179  0.11653843  1
  O  O279  1  0.74562310  0.24033761  0.64064886  1
  O  O280  1  0.75580261  0.75049109  0.10061543  1
  O  O281  1  0.76476520  0.74723352  0.61620722  1
  O  O282  1  0.24405041  0.24480371  0.38659834  1
  O  O283  1  0.24782466  0.23617885  0.89316155  1
  O  O284  1  0.24827672  0.75541855  0.39877641  1
  O  O285  1  0.23637854  0.74995676  0.87979358  1
  O  O286  1  0.80102690  0.25732604  0.38292149  1
  O  O287  1  0.75797199  0.24285880  0.89121631  1
  O  O288  1  0.75556646  0.75070633  0.38793063  1
  O  O289  1  0.74228588  0.74257916  0.87597201  1
  O  O290  1  0.00769028  0.11819603  0.01112152  1
  O  O291  1  0.01414079  0.11300610  0.49354930  1
  O  O292  1  -0.00680983  0.60855675  -0.01323580  1
  O  O293  1  0.01016830  0.62598128  0.51936379  1
  O  O294  1  0.50082884  0.12567736  0.00521787  1
  O  O295  1  0.49040422  0.11488523  0.52665448  1
  O  O296  1  0.51600233  0.62761103  -0.00564456  1
  O  O297  1  0.51752933  0.63801052  0.50069849  1
  O  O298  1  0.49384988  0.35016472  0.52007810  1
  O  O299  1  0.50575020  0.36795671  0.97884252  1
  O  O300  1  0.48511223  0.87875749  0.50675072  1
  O  O301  1  0.47482727  0.85858375  0.98539368  1
  O  O302  1  1.01111585  0.41057493  0.53409701  1
  O  O303  1  0.99545938  0.38681583  0.99771313  1
  O  O304  1  1.00053076  0.88398057  0.50015282  1
  O  O305  1  1.01031253  0.88606463  0.98855142  1
  O  O306  1  0.47624189  0.50451640  0.37753425  1
  O  O307  1  0.48962677  0.47660360  0.86334261  1
  O  O308  1  0.48024603  1.01098306  0.37396253  1
  O  O309  1  0.48348589  0.98148239  0.87860163  1
  O  O310  1  0.99419260  0.51415386  0.39433578  1
  O  O311  1  0.99349981  0.49122667  0.88340286  1
  O  O312  1  0.99144819  1.00215036  0.37509765  1
  O  O313  1  0.99331208  0.99667015  0.88522704  1
  O  O314  1  0.00533889  0.00820060  0.12224051  1
  O  O315  1  -0.00798720  0.00185266  0.60322726  1
  O  O316  1  -0.01105988  0.51348989  0.10805105  1
  O  O317  1  -0.00194301  0.45736530  0.59263292  1
  O  O318  1  0.51631100  0.01035854  0.12231083  1
  O  O319  1  0.49150291  0.00484797  0.64445866  1
  O  O320  1  0.49773030  0.49366195  0.12418090  1
  O  O321  1  0.51435254  0.48050263  0.69411432  1
  O  O322  1  0.24355711  0.36650357  0.23795321  1
  O  O323  1  0.24050662  0.36817886  0.74224078  1
  O  O324  1  0.24052097  0.89198490  0.25760041  1
  O  O325  1  0.23617538  0.87255462  0.74075454  1
  O  O326  1  0.73655747  0.37710931  0.23295414  1
  O  O327  1  0.75942001  0.38551850  0.74301643  1
  O  O328  1  0.74721105  0.89376199  0.24480524  1
  O  O329  1  0.75162560  0.87619264  0.73911596  1
  O  O330  1  0.25499125  0.12390939  0.25891170  1
  O  O331  1  0.24848401  0.12857420  0.76665276  1
  O  O332  1  0.20833772  0.59563859  0.19494424  1
  O  O333  1  0.26787785  0.62399745  0.74399131  1
  O  O334  1  0.74835845  0.11145455  0.24714162  1
  O  O335  1  0.75674650  0.13601306  0.77535196  1
  O  O336  1  0.73642868  0.60440426  0.24530100  1
  O  O337  1  0.76006945  0.61691288  0.75698249  1
  O  O338  1  0.36139295  0.11538950  0.38321907  1
  O  O339  1  0.36408546  0.11226232  0.87279364  1
  O  O340  1  0.37940796  0.63119844  0.36443142  1
  O  O341  1  0.36801271  0.60236415  0.88226616  1
  O  O342  1  0.88193634  0.11357194  0.36751942  1
  O  O343  1  0.88432443  0.11581986  0.87809903  1
  O  O344  1  0.86905168  0.60531174  0.37567615  1
  O  O345  1  0.86859625  0.61596225  0.86460633  1
  O  O346  1  0.13744646  0.37521457  0.13625833  1
  O  O347  1  0.13551916  0.37390632  0.64064559  1
  O  O348  1  0.11720933  0.89010512  0.12742213  1
  O  O349  1  0.12734993  0.87231804  0.63911188  1
  O  O350  1  0.63292006  0.37280634  0.11569986  1
  O  O351  1  0.62743623  0.36029853  0.65917745  1
  O  O352  1  0.61693346  0.88988302  0.11944640  1
  O  O353  1  0.64077957  0.88831739  0.62124750  1
  O  O354  1  0.12038320  0.25824933  0.25650023  1
  O  O355  1  0.11573748  0.26335333  0.76002758  1
  O  O356  1  0.13014306  0.77731059  0.24714862  1
  O  O357  1  0.11945453  0.75558967  0.76089607  1
  O  O358  1  0.61928588  0.25915720  0.25009016  1
  O  O359  1  0.61352740  0.22700335  0.75996497  1
  O  O360  1  0.63996061  0.75634080  0.26186422  1
  O  O361  1  0.62228928  0.75718767  0.76208484  1
  O  O362  1  0.39699406  0.25807805  0.25976747  1
  O  O363  1  0.37064638  0.22786020  0.75351749  1
  O  O364  1  0.36170910  0.76434706  0.23347429  1
  O  O365  1  0.38294970  0.75355905  0.74702919  1
  O  O366  1  0.88765407  0.26484409  0.23340398  1
  O  O367  1  0.89774152  0.25889652  0.76025567  1
  O  O368  1  0.85244830  0.74954335  0.22865503  1
  O  O369  1  0.88276958  0.74422981  0.74545701  1
  O  O370  1  0.38950762  0.47436003  0.52719233  1
  O  O371  1  0.32931379  0.54634630  0.92657376  1
  O  O372  1  0.36341503  0.99195868  0.48739151  1
  O  O373  1  0.36509617  0.98447380  0.99119762  1
  O  O374  1  0.86076122  0.48988411  0.49295213  1
  O  O375  1  0.87738799  0.49203438  0.99061342  1
  O  O376  1  0.89126054  0.99066416  0.47929894  1
  O  O377  1  0.88948316  1.00411668  1.00454317  1
  O  O378  1  0.11862622  0.00853899  0.00975145  1
  O  O379  1  0.11625779  0.00964578  0.49252577  1
  O  O380  1  0.11467561  0.50040021  0.00231992  1
  O  O381  1  0.15421263  0.54022164  0.48502530  1
  O  O382  1  0.63339553  -0.00327159  0.00232233  1
  O  O383  1  0.63480386  0.02214573  0.49454028  1
  O  O384  1  0.63269422  0.51404271  -0.00850713  1
  O  O385  1  0.63150922  0.52364171  0.47531083  1
  O  O386  1  0.36395408  0.36757639  0.13244775  1
  O  O387  1  0.35663294  0.36171497  0.62245078  1
  O  O388  1  0.37436677  0.87684420  0.10948168  1
  O  O389  1  0.35919782  0.88634398  0.61247331  1
  O  O390  1  0.87024842  0.36985862  0.11509832  1
  O  O391  1  0.85523473  0.35871769  0.62297789  1
  O  O392  1  0.87800638  0.86050820  0.11712450  1
  O  O393  1  0.87863865  0.86715884  0.61435573  1
  O  O394  1  0.13470078  0.13779200  0.37853447  1
  O  O395  1  0.13036307  0.12223558  0.88999528  1
  O  O396  1  0.08319867  0.67231435  0.36099500  1
  O  O397  1  0.11992329  0.64220611  0.87396774  1
  O  O398  1  0.63367065  0.13024090  0.37029614  1
  O  O399  1  0.64195924  0.11745900  0.88139598  1
  O  O400  1  0.63542828  0.64457670  0.38205681  1
  O  O401  1  0.63456905  0.63285344  0.88012194  1
