# generated using pymatgen
data_V73Zn73O256
_symmetry_space_group_name_H-M   'P 1'
_cell_length_a   16.91828455
_cell_length_b   16.91320939
_cell_length_c   16.96995455
_cell_angle_alpha   90.02268050
_cell_angle_beta   90.10971634
_cell_angle_gamma   90.09004860
_symmetry_Int_Tables_number   1
_chemical_formula_structural   V73Zn73O256
_chemical_formula_sum   'V73 Zn73 O256'
_cell_volume   4855.80974698
_cell_formula_units_Z   1
loop_
 _symmetry_equiv_pos_site_id
 _symmetry_equiv_pos_as_xyz
  1  'x, y, z'
loop_
 _atom_site_type_symbol
 _atom_site_label
 _atom_site_symmetry_multiplicity
 _atom_site_fract_x
 _atom_site_fract_y
 _atom_site_fract_z
 _atom_site_occupancy
  V  V0  1  -0.03068593  0.12352015  0.12930582  1
  V  V1  1  0.87400342  0.88274460  0.49552760  1
  V  V2  1  0.00851333  0.00717200  0.50961098  1
  V  V3  1  0.62570297  0.36400493  0.25011856  1
  V  V4  1  0.24204087  0.63481193  0.39208186  1
  V  V5  1  0.00497980  0.37357599  0.87174214  1
  V  V6  1  0.87370044  0.35230445  0.52666272  1
  V  V7  1  0.64200141  -0.01017377  0.12169585  1
  V  V8  1  0.87736677  0.75119555  0.61653682  1
  V  V9  1  0.88194784  0.50237730  0.87568904  1
  V  V10  1  0.22911434  0.86760508  0.13366952  1
  V  V11  1  0.11995454  0.23855866  0.88236316  1
  V  V12  1  0.74126729  0.87400738  0.62836987  1
  V  V13  1  0.85560097  0.82733114  0.03541236  1
  V  V14  1  0.88412303  0.49572996  0.37660775  1
  V  V15  1  0.61910995  0.00966185  0.62411768  1
  V  V16  1  0.89087940  -0.00978827  0.87876139  1
  V  V17  1  0.74667475  0.00169013  0.75075305  1
  V  V18  1  0.13656480  0.73474397  0.87659278  1
  V  V19  1  0.62903420  0.49463316  0.62390112  1
  V  V20  1  0.23844251  0.24973126  0.51145968  1
  V  V21  1  0.26003631  0.25435593  0.00543736  1
  V  V22  1  0.74777395  0.62819399  0.37255767  1
  V  V23  1  0.30409285  0.05430763  0.70412156  1
  V  V24  1  0.25083812  0.11481078  0.89841742  1
  V  V25  1  0.87533863  0.63415723  0.24366487  1
  V  V26  1  0.75863060  0.37185080  0.12538231  1
  V  V27  1  0.75541821  0.48587399  0.74332040  1
  V  V28  1  0.25126353  0.87007663  0.62946976  1
  V  V29  1  0.37097937  0.50169421  0.37369741  1
  V  V30  1  0.36707005  0.61962575  0.24919233  1
  V  V31  1  0.25252633  0.51489022  0.75048512  1
  V  V32  1  0.01563591  0.61947802  0.61145066  1
  V  V33  1  0.00296196  0.75588256  0.75043030  1
  V  V34  1  0.70177922  0.16089619  0.38621250  1
  V  V35  1  0.23969588  0.10465643  0.38704085  1
  V  V36  1  0.76098199  0.24747657  0.00063339  1
  V  V37  1  0.50111386  0.63022411  0.64303419  1
  V  V38  1  0.01444580  0.75149543  0.25202442  1
  V  V39  1  0.13136491  0.88273480  0.75355891  1
  V  V40  1  0.88296643  0.13371315  0.73484250  1
  V  V41  1  0.61559716  0.24815755  0.86726029  1
  V  V42  1  0.00740940  0.62776531  0.11989780  1
  V  V43  1  0.88354139  0.38139527  -0.00022424  1
  V  V44  1  0.75235499  0.12478056  0.87330491  1
  V  V45  1  0.00714099  0.87642527  0.36647048  1
  V  V46  1  0.51712138  0.86891166  0.87183685  1
  V  V47  1  0.74944260  0.50094883  0.24676469  1
  V  V48  1  0.13161960  0.37204946  0.74260415  1
  V  V49  1  0.87688609  0.62268501  0.74555004  1
  V  V50  1  0.50037147  0.61938303  0.12365967  1
  V  V51  1  0.13468631  0.25677704  0.35082137  1
  V  V52  1  0.49718375  -0.01370704  0.01339527  1
  V  V53  1  0.86189538  0.00807878  0.35759913  1
  V  V54  1  0.50864541  0.37000895  0.36659550  1
  V  V55  1  0.37656861  0.36013982  0.50227691  1
  V  V56  1  0.50070871  0.50771763  0.49443755  1
  V  V57  1  0.37858500  0.74630673  0.64319819  1
  V  V58  1  0.12288165  0.48917582  0.13136252  1
  V  V59  1  0.60396281  0.38340403  0.76048313  1
  V  V60  1  0.38510063  0.39277417  -0.00293821  1
  V  V61  1  0.49084436  0.75742141  0.25260859  1
  V  V62  1  0.63847463  0.87942614  0.25046992  1
  V  V63  1  0.50293696  -0.00512835  0.48317259  1
  V  V64  1  0.62484418  0.50086911  0.11785108  1
  V  V65  1  0.25246859  0.37809524  0.14163273  1
  V  V66  1  0.58074232  0.16517307  0.05183946  1
  V  V67  1  0.37772939  0.09284917  0.27419410  1
  V  V68  1  0.37438350  -0.00775378  0.88298694  1
  V  V69  1  -0.02298134  0.25736103  0.24860130  1
  V  V70  1  0.38073973  0.86845755  0.48893755  1
  V  V71  1  0.62011594  0.75406972  0.37337750  1
  V  V72  1  0.73885425  0.63158960  0.87132265  1
  Zn  Zn73  1  0.43547675  0.20601968  0.17443929  1
  Zn  Zn74  1  0.10849166  -0.00448331  0.09171906  1
  Zn  Zn75  1  0.01323579  0.50205884  0.48907781  1
  Zn  Zn76  1  0.42660523  0.19958987  0.69672002  1
  Zn  Zn77  1  0.62483309  0.62701142  0.49904441  1
  Zn  Zn78  1  0.36465712  0.76127193  0.11176456  1
  Zn  Zn79  1  0.74751026  0.75276748  0.49554699  1
  Zn  Zn80  1  0.06523141  0.56217970  -0.04457065  1
  Zn  Zn81  1  0.62540814  0.62748288  -0.00668521  1
  Zn  Zn82  1  0.25691102  0.19651416  0.20524019  1
  Zn  Zn83  1  0.24863084  0.23600610  0.72914301  1
  Zn  Zn84  1  0.18450327  0.68519818  0.18391498  1
  Zn  Zn85  1  0.19293542  0.68636696  0.68574664  1
  Zn  Zn86  1  0.71318939  0.18376555  0.19663483  1
  Zn  Zn87  1  0.58425628  0.18195961  0.68804320  1
  Zn  Zn88  1  0.68350783  0.69121433  0.18740917  1
  Zn  Zn89  1  0.69104579  0.68277261  0.68491390  1
  Zn  Zn90  1  0.32079285  0.30436007  0.32749446  1
  Zn  Zn91  1  0.34158077  0.37144089  0.79674653  1
  Zn  Zn92  1  0.29752637  0.81671268  0.30669772  1
  Zn  Zn93  1  0.31320295  0.80714854  0.81828914  1
  Zn  Zn94  1  0.80575909  0.31048921  0.32868253  1
  Zn  Zn95  1  0.81430747  0.30806766  0.81327237  1
  Zn  Zn96  1  0.81598486  0.81597281  0.30934303  1
  Zn  Zn97  1  0.81235462  0.81255764  0.80962969  1
  Zn  Zn98  1  0.18999045  0.43718992  0.42595429  1
  Zn  Zn99  1  0.19299727  0.43740487  0.93878508  1
  Zn  Zn100  1  0.18124136  0.91253360  0.45312092  1
  Zn  Zn101  1  0.18803848  0.92533080  0.93931073  1
  Zn  Zn102  1  0.69480246  0.43084607  0.44123076  1
  Zn  Zn103  1  0.69458788  0.44096065  0.93396560  1
  Zn  Zn104  1  0.68595613  0.94076569  0.43946728  1
  Zn  Zn105  1  0.69756775  0.93163472  0.94168405  1
  Zn  Zn106  1  0.31477054  0.05142714  0.07579796  1
  Zn  Zn107  1  0.36288832  0.09259551  0.52422305  1
  Zn  Zn108  1  0.30659599  0.55881122  0.06541673  1
  Zn  Zn109  1  0.30829158  0.55772655  0.56631006  1
  Zn  Zn110  1  0.81496220  0.05575157  0.05411934  1
  Zn  Zn111  1  0.80783925  0.07406042  0.54986093  1
  Zn  Zn112  1  0.83924833  0.60839777  0.03882942  1
  Zn  Zn113  1  0.81101771  0.56102524  0.55732826  1
  Zn  Zn114  1  0.43460943  0.43462554  0.18422580  1
  Zn  Zn115  1  0.43066449  0.45359801  0.67840090  1
  Zn  Zn116  1  0.42639042  0.93206475  0.18671881  1
  Zn  Zn117  1  0.44300602  0.93232090  0.69368158  1
  Zn  Zn118  1  0.94102145  0.44343302  0.19036009  1
  Zn  Zn119  1  0.94468529  0.43041943  0.68148750  1
  Zn  Zn120  1  0.93457640  0.93634056  0.17964729  1
  Zn  Zn121  1  0.93460765  0.94317557  0.69009699  1
  Zn  Zn122  1  0.04065194  0.08267192  0.32844360  1
  Zn  Zn123  1  0.06371453  0.06692267  0.80817795  1
  Zn  Zn124  1  0.06998112  0.56164000  0.30791204  1
  Zn  Zn125  1  0.06510445  0.55848451  0.78989625  1
  Zn  Zn126  1  0.56925873  0.06622354  0.30274211  1
  Zn  Zn127  1  0.55730952  0.05838189  0.81764732  1
  Zn  Zn128  1  0.56097568  0.56205258  0.30605294  1
  Zn  Zn129  1  0.56558628  0.70472400  0.80960585  1
  Zn  Zn130  1  0.48063584  0.16680594  0.41268938  1
  Zn  Zn131  1  0.40086554  0.23268532  0.87737475  1
  Zn  Zn132  1  0.42955465  0.69192465  0.43891136  1
  Zn  Zn133  1  0.43674590  0.68905658  0.94428707  1
  Zn  Zn134  1  0.94271907  0.18852130  0.43142457  1
  Zn  Zn135  1  0.93880608  0.17796087  0.94026296  1
  Zn  Zn136  1  0.93939552  0.68739743  0.43234446  1
  Zn  Zn137  1  0.96556716  0.73052930  0.96058253  1
  Zn  Zn138  1  0.06457510  0.30019482  0.06973495  1
  Zn  Zn139  1  0.08070979  0.35692118  0.53723485  1
  Zn  Zn140  1  0.06280182  0.85489532  0.02570098  1
  Zn  Zn141  1  0.06428049  0.81245816  0.55745695  1
  Zn  Zn142  1  0.56983079  0.32859782  0.05559189  1
  Zn  Zn143  1  0.52748658  0.32822354  0.58050021  1
  Zn  Zn144  1  0.55947897  0.81140988  0.06905565  1
  Zn  Zn145  1  0.55892656  0.81087678  0.56188562  1
  O  O146  1  0.14991274  0.04551552  0.20200782  1
  O  O147  1  0.08438056  0.16175585  0.62770749  1
  O  O148  1  0.11351069  0.61448627  0.12719713  1
  O  O149  1  0.11386379  0.63212197  0.62249867  1
  O  O150  1  0.63442445  0.11168424  0.12378044  1
  O  O151  1  0.63587207  0.10753030  0.61879808  1
  O  O152  1  0.61257840  0.61533728  0.13248880  1
  O  O153  1  0.61503950  0.61583859  0.62049277  1
  O  O154  1  0.38853081  0.38481994  0.37981358  1
  O  O155  1  0.38784437  0.35841916  0.89925650  1
  O  O156  1  0.36468431  0.86201455  0.39169563  1
  O  O157  1  0.37416115  0.88857783  0.87650151  1
  O  O158  1  0.87047475  0.39662119  0.36872878  1
  O  O159  1  0.88351906  0.38347783  0.87946877  1
  O  O160  1  0.87712523  0.87951263  0.38211455  1
  O  O161  1  0.87569656  0.89174925  0.85584430  1
  O  O162  1  0.23717871  0.00709658  0.40476997  1
  O  O163  1  0.25564036  0.00748046  0.89049201  1
  O  O164  1  0.26682998  0.50842134  0.37820109  1
  O  O165  1  0.24367667  0.48805294  0.85266643  1
  O  O166  1  0.76217303  -0.00986663  0.37452292  1
  O  O167  1  0.74754479  0.00800500  0.86727041  1
  O  O168  1  0.75224531  0.51069602  0.36238423  1
  O  O169  1  0.76170807  0.50533661  0.86029329  1
  O  O170  1  0.24116461  0.48714160  0.12623884  1
  O  O171  1  0.25686903  0.49940198  0.64476486  1
  O  O172  1  0.22878221  0.98119124  0.09882899  1
  O  O173  1  0.25923688  0.98224933  0.64549179  1
  O  O174  1  0.74336807  0.49290640  0.13671022  1
  O  O175  1  0.73864789  0.50807275  0.63053157  1
  O  O176  1  0.73998788  0.99551081  0.12010849  1
  O  O177  1  0.74222767  0.98782044  0.62630953  1
  O  O178  1  -0.00479232  0.35750413  0.24280411  1
  O  O179  1  0.00692876  0.37753254  0.76723555  1
  O  O180  1  -0.00908627  0.86007899  0.25538925  1
  O  O181  1  0.01462024  0.86084941  0.73187002  1
  O  O182  1  0.50818041  0.38245463  0.25843137  1
  O  O183  1  0.50643462  0.39194900  0.75989687  1
  O  O184  1  0.50032359  0.85870654  0.24540787  1
  O  O185  1  0.50128752  0.87651748  0.77360727  1
  O  O186  1  0.47944524  0.12583434  0.26060070  1
  O  O187  1  0.50516735  0.13548258  0.75763739  1
  O  O188  1  0.49456054  0.63482142  0.24131664  1
  O  O189  1  0.50516345  0.62407084  0.74036319  1
  O  O190  1  1.00044245  0.13927458  0.23669376  1
  O  O191  1  0.98304200  0.11776821  0.74678161  1
  O  O192  1  0.99414247  0.63507653  0.25022461  1
  O  O193  1  0.99366634  0.63463681  0.73208369  1
  O  O194  1  0.36053314  0.24402132  -0.00132383  1
  O  O195  1  0.38250908  0.26132171  0.49039024  1
  O  O196  1  0.34177484  0.71032466  0.00416814  1
  O  O197  1  0.38596708  0.76360471  0.51602260  1
  O  O198  1  0.86541729  0.26358456  -0.00996363  1
  O  O199  1  0.87731120  0.25601393  0.49286050  1
  O  O200  1  0.85987892  0.72304424  0.01915292  1
  O  O201  1  0.87422697  0.75861347  0.50385079  1
  O  O202  1  0.13742198  0.26171521  0.49482605  1
  O  O203  1  0.13744032  0.25911268  0.98872779  1
  O  O204  1  0.14351416  0.80502679  0.48122111  1
  O  O205  1  0.09965408  0.75637456  0.96953398  1
  O  O206  1  0.67757774  0.25975634  0.54887855  1
  O  O207  1  0.63377771  0.24436398  0.99552176  1
  O  O208  1  0.62391224  0.74972096  0.48521271  1
  O  O209  1  0.64746790  0.74147955  1.03457076  1
  O  O210  1  0.51892232  0.22911537  0.10444421  1
  O  O211  1  0.50569675  0.23078819  0.62129341  1
  O  O212  1  0.49194751  0.73992564  0.13596822  1
  O  O213  1  0.49719290  0.73744690  0.62658416  1
  O  O214  1  0.99594919  0.24124728  0.14024613  1
  O  O215  1  1.02688149  0.20427292  0.61889042  1
  O  O216  1  1.00285417  0.73119626  0.14117023  1
  O  O217  1  0.99451363  0.74231117  0.62374021  1
  O  O218  1  0.02143182  0.23841127  0.35284248  1
  O  O219  1  0.01354079  0.25336938  0.88507315  1
  O  O220  1  -0.00615174  0.76132921  0.36260521  1
  O  O221  1  -0.00865485  0.74858194  0.84907358  1
  O  O222  1  0.49988345  0.27256838  0.37445400  1
  O  O223  1  0.51899969  0.24578266  0.88729431  1
  O  O224  1  0.50779274  0.74106841  0.36076213  1
  O  O225  1  0.49855390  0.76054562  0.88553947  1
  O  O226  1  0.26213919  0.14197713  0.49364031  1
  O  O227  1  0.24845473  0.12900789  1.00172205  1
  O  O228  1  0.26099473  0.62756065  0.49089588  1
  O  O229  1  0.28308928  0.65326886  1.00224974  1
  O  O230  1  0.74133689  0.11911836  0.47122295  1
  O  O231  1  0.75578421  0.13535982  0.98866993  1
  O  O232  1  0.74536316  0.62894218  0.48465396  1
  O  O233  1  0.74715728  0.61076309  0.97371628  1
  O  O234  1  0.26344758  0.36410806  0.00079264  1
  O  O235  1  0.26960700  0.36129060  0.49234359  1
  O  O236  1  0.24981815  0.87482560  0.01978346  1
  O  O237  1  0.27220031  0.88207214  0.52560786  1
  O  O238  1  0.75815516  0.36951501  0.00636035  1
  O  O239  1  0.77931936  0.39042046  0.50210854  1
  O  O240  1  0.77365748  0.86533202  -0.01153056  1
  O  O241  1  0.75771598  0.87415875  0.51092453  1
  O  O242  1  0.12695058  0.49879252  0.23187600  1
  O  O243  1  0.13458785  0.48152860  0.74438133  1
  O  O244  1  0.12076603  1.00687791  0.25892802  1
  O  O245  1  0.12336215  0.98123845  0.75661721  1
  O  O246  1  0.63357812  0.49340348  0.24135750  1
  O  O247  1  0.63650429  0.48744619  0.74442305  1
  O  O248  1  0.62087323  0.98715060  0.23836329  1
  O  O249  1  0.63777833  1.00334493  0.73956664  1
  O  O250  1  0.38574172  -0.00639061  0.27204403  1
  O  O251  1  0.37325305  0.00280835  0.76338570  1
  O  O252  1  0.38474035  0.51276540  0.25941967  1
  O  O253  1  0.35830079  0.47834611  0.75641588  1
  O  O254  1  0.87338385  -0.00924688  0.25997511  1
  O  O255  1  0.86447358  0.00909206  0.75568454  1
  O  O256  1  0.86643867  0.50992266  0.25788583  1
  O  O257  1  0.87463073  0.50458149  0.75104063  1
  O  O258  1  0.13851783  0.35690646  0.35975462  1
  O  O259  1  0.11661994  0.36828004  0.87303904  1
  O  O260  1  0.10439623  0.88565821  0.36217837  1
  O  O261  1  0.13229585  0.85584400  0.85487946  1
  O  O262  1  0.61541628  0.38685965  0.36550947  1
  O  O263  1  0.62994587  0.36737008  0.86722912  1
  O  O264  1  0.62867612  0.86644759  0.36127811  1
  O  O265  1  0.61607279  0.87526792  0.88237272  1
  O  O266  1  0.35556166  0.11463160  0.15985000  1
  O  O267  1  0.35845505  0.11397805  0.64112452  1
  O  O268  1  0.38578110  0.61810304  0.13820170  1
  O  O269  1  0.39153895  0.63441843  0.62234361  1
  O  O270  1  0.86826611  0.12055724  0.13170155  1
  O  O271  1  0.86250799  0.12194425  0.63590339  1
  O  O272  1  0.89401367  0.60682341  0.13814765  1
  O  O273  1  0.87374620  0.63434585  0.62930654  1
  O  O274  1  0.24170568  0.26340750  0.11182307  1
  O  O275  1  0.24802422  0.24688523  0.61026037  1
  O  O276  1  0.24742045  0.76022653  0.13127288  1
  O  O277  1  0.26817452  0.75583987  0.63012328  1
  O  O278  1  0.74762560  0.26053643  0.11578647  1
  O  O279  1  0.73082705  0.25318459  0.59747867  1
  O  O280  1  0.71010413  0.74665889  0.08914588  1
  O  O281  1  0.76023615  0.75898365  0.62081547  1
  O  O282  1  0.24256887  0.24112174  0.38585449  1
  O  O283  1  0.24198834  0.23104215  0.89311942  1
  O  O284  1  0.25294642  0.73210179  0.36800771  1
  O  O285  1  0.23640077  0.74045900  0.87355658  1
  O  O286  1  0.72430541  0.26099373  0.38789031  1
  O  O287  1  0.74175215  0.24627730  0.88447586  1
  O  O288  1  0.74008467  0.74329637  0.37003428  1
  O  O289  1  0.76063003  0.72870333  0.86269668  1
  O  O290  1  -0.00443853  0.13767708  0.03032969  1
  O  O291  1  0.00008261  0.10621362  0.48782187  1
  O  O292  1  -0.00798584  0.62902436  0.01578237  1
  O  O293  1  -0.00057723  0.62557014  0.50799523  1
  O  O294  1  0.52443198  0.10308736  -0.00168130  1
  O  O295  1  0.48083286  0.09764080  0.50429375  1
  O  O296  1  0.50636189  0.63396336  0.01947687  1
  O  O297  1  0.50269308  0.61537336  0.49507643  1
  O  O298  1  0.49890239  0.38743748  0.48379364  1
  O  O299  1  0.48362594  0.38628627  1.02203839  1
  O  O300  1  0.49169520  0.88005982  0.50110379  1
  O  O301  1  0.49998890  0.88068647  0.99611349  1
  O  O302  1  0.97147380  0.38754519  0.50525172  1
  O  O303  1  0.98776043  0.36866858  0.99505600  1
  O  O304  1  0.98921152  0.87891588  0.48592039  1
  O  O305  1  0.95199697  0.84453981  0.99568088  1
  O  O306  1  0.49383121  0.49821284  0.37874147  1
  O  O307  1  0.44422997  0.54059415  0.86739053  1
  O  O308  1  0.51485745  0.99465316  0.38569215  1
  O  O309  1  0.49662209  0.98721774  0.88853249  1
  O  O310  1  0.98680114  0.50972941  0.36849046  1
  O  O311  1  0.99698097  0.49531272  0.87409862  1
  O  O312  1  0.98535557  0.98720138  0.37681022  1
  O  O313  1  0.98926546  1.00325644  0.86848818  1
  O  O314  1  0.00160121  0.01914314  0.13474119  1
  O  O315  1  -0.00705281  -0.00487289  0.60899881  1
  O  O316  1  0.01289161  0.50762023  0.12658361  1
  O  O317  1  -0.00457836  0.51863322  0.62425371  1
  O  O318  1  0.50299633  -0.00631286  0.11503150  1
  O  O319  1  0.51832375  -0.00726654  0.63247469  1
  O  O320  1  0.50819696  0.51189233  0.13298187  1
  O  O321  1  0.50626836  0.51453137  0.61573469  1
  O  O322  1  0.26011327  0.37104673  0.23856394  1
  O  O323  1  0.23427030  0.36323198  0.74307896  1
  O  O324  1  0.24497083  0.88282506  0.23478856  1
  O  O325  1  0.24166879  0.86534435  0.74432320  1
  O  O326  1  0.74574632  0.38215135  0.24382800  1
  O  O327  1  0.75378537  0.38456652  0.75131078  1
  O  O328  1  0.73606119  0.86835273  0.24505586  1
  O  O329  1  0.75895502  0.88371356  0.73286194  1
  O  O330  1  0.26225848  0.10704761  0.28176529  1
  O  O331  1  0.24543570  0.11640407  0.76159966  1
  O  O332  1  0.26664059  0.62534538  0.24729669  1
  O  O333  1  0.25007724  0.61590080  0.75369057  1
  O  O334  1  0.72929933  0.12887869  0.29126332  1
  O  O335  1  0.76029745  0.11503144  0.76164856  1
  O  O336  1  0.75413089  0.62096081  0.25014691  1
  O  O337  1  0.75957593  0.61229769  0.75262375  1
  O  O338  1  0.37048151  0.11819878  0.37906370  1
  O  O339  1  0.35579732  0.11590680  0.88177257  1
  O  O340  1  0.37099191  0.62034272  0.36492059  1
  O  O341  1  0.39867871  0.59877322  0.86810189  1
  O  O342  1  0.88086694  0.10683250  0.37218622  1
  O  O343  1  0.86816091  0.11527556  0.86904968  1
  O  O344  1  0.86348112  0.62318404  0.36314414  1
  O  O345  1  0.87588331  0.61492849  0.85562485  1
  O  O346  1  0.13533438  0.38117269  0.12285868  1
  O  O347  1  0.10340422  0.35018517  0.65008740  1
  O  O348  1  0.12380451  0.86810693  0.12533688  1
  O  O349  1  0.14478760  0.86323625  0.63610527  1
  O  O350  1  0.63658161  0.38365574  0.13093457  1
  O  O351  1  0.60952854  0.38827056  0.64017721  1
  O  O352  1  0.62191969  0.88236539  0.13850428  1
  O  O353  1  0.64009115  0.87324291  0.62051066  1
  O  O354  1  0.15119615  0.23844907  0.25409048  1
  O  O355  1  0.13608547  0.25624789  0.77823013  1
  O  O356  1  0.11229728  0.74437383  0.25539857  1
  O  O357  1  0.11384174  0.74588430  0.75566356  1
  O  O358  1  0.63086452  0.26604070  0.23891332  1
  O  O359  1  0.62270130  0.27002308  0.76025694  1
  O  O360  1  0.61430670  0.76083207  0.25299217  1
  O  O361  1  0.63219065  0.75639088  0.74032669  1
  O  O362  1  0.35966614  0.23754180  0.24864513  1
  O  O363  1  0.35958186  0.25711309  0.76864465  1
  O  O364  1  0.38432529  0.73876472  0.25428930  1
  O  O365  1  0.37982927  0.74619067  0.74302429  1
  O  O366  1  0.87751374  0.25085077  0.26240681  1
  O  O367  1  0.87191302  0.23263139  0.75571686  1
  O  O368  1  0.87425634  0.73709830  0.24810210  1
  O  O369  1  0.88511311  0.74512697  0.73465252  1
  O  O370  1  0.38552423  0.49484703  0.49164390  1
  O  O371  1  0.36713075  0.49154640  0.99525984  1
  O  O372  1  0.39208804  0.97904046  0.50503240  1
  O  O373  1  0.39319008  1.00736029  0.99763503  1
  O  O374  1  0.87729528  0.51531726  0.47819165  1
  O  O375  1  0.87160870  0.49596558  0.98288228  1
  O  O376  1  0.87804756  0.99091625  0.49406745  1
  O  O377  1  0.87348978  0.99796007  0.97905470  1
  O  O378  1  0.09262984  -0.03992038  -0.01324307  1
  O  O379  1  0.10604897  -0.01208433  0.49967711  1
  O  O380  1  0.13407961  0.49940797  0.01524446  1
  O  O381  1  0.11763528  0.46136936  0.50496564  1
  O  O382  1  0.62003317  -0.01471854  0.01715608  1
  O  O383  1  0.61203561  -0.01193888  0.51343536  1
  O  O384  1  0.63262988  0.50073721  0.01441212  1
  O  O385  1  0.61837733  0.49744292  0.50717736  1
  O  O386  1  0.35947003  0.38026651  0.11587326  1
  O  O387  1  0.40003918  0.37308935  0.60145322  1
  O  O388  1  0.35648445  0.87358568  0.12416118  1
  O  O389  1  0.37412105  0.85965242  0.63448718  1
  O  O390  1  0.86436635  0.38905955  0.11495441  1
  O  O391  1  0.87678201  0.35744894  0.62874354  1
  O  O392  1  0.86272884  0.86291704  0.12959653  1
  O  O393  1  0.87053778  0.86709766  0.61560935  1
  O  O394  1  0.13753391  0.13226373  0.37837483  1
  O  O395  1  0.13288144  0.13078775  0.87753361  1
  O  O396  1  0.14433462  0.61219056  0.37600751  1
  O  O397  1  0.10829903  0.63132985  0.87089925  1
  O  O398  1  0.59795201  0.14264216  0.38580825  1
  O  O399  1  0.63783396  0.14049535  0.86530482  1
  O  O400  1  0.63344787  0.63424276  0.36702086  1
  O  O401  1  0.63419581  0.62911349  0.87216074  1
