# generated using pymatgen
data_V73Zn73O256
_symmetry_space_group_name_H-M   'P 1'
_cell_length_a   16.90349025
_cell_length_b   16.87961348
_cell_length_c   16.87875669
_cell_angle_alpha   90.04920000
_cell_angle_beta   89.80190493
_cell_angle_gamma   89.92350254
_symmetry_Int_Tables_number   1
_chemical_formula_structural   V73Zn73O256
_chemical_formula_sum   'V73 Zn73 O256'
_cell_volume   4815.88594770
_cell_formula_units_Z   1
loop_
 _symmetry_equiv_pos_site_id
 _symmetry_equiv_pos_as_xyz
  1  'x, y, z'
loop_
 _atom_site_type_symbol
 _atom_site_label
 _atom_site_symmetry_multiplicity
 _atom_site_fract_x
 _atom_site_fract_y
 _atom_site_fract_z
 _atom_site_occupancy
  V  V0  1  0.88261275  0.24090347  0.65074107  1
  V  V1  1  0.25084099  0.24382682  -0.01536547  1
  V  V2  1  0.24668701  -0.00683778  0.24027194  1
  V  V3  1  0.38033111  0.48920893  0.36478621  1
  V  V4  1  0.87350534  0.89442925  0.48859379  1
  V  V5  1  0.49577593  -0.00236202  0.49516646  1
  V  V6  1  0.02768451  0.50441889  0.00496638  1
  V  V7  1  0.74392381  0.85985871  0.12979490  1
  V  V8  1  0.50434420  0.87305165  0.36270896  1
  V  V9  1  0.76253528  0.24184014  0.48758445  1
  V  V10  1  0.10767846  0.64452101  0.53373376  1
  V  V11  1  0.38094221  0.63520039  0.74941720  1
  V  V12  1  0.75368937  0.86961546  0.63079271  1
  V  V13  1  0.37699212  0.11979129  0.25856742  1
  V  V14  1  0.36296192  0.12334723  0.75290871  1
  V  V15  1  0.86357063  0.52255957  0.38188999  1
  V  V16  1  0.72018966  0.49642692  0.24664733  1
  V  V17  1  0.87203485  0.49992565  0.89080507  1
  V  V18  1  0.00011842  0.10337437  0.63438523  1
  V  V19  1  0.39508678  0.49907213  0.87536593  1
  V  V20  1  -0.00283743  0.62717883  0.12910943  1
  V  V21  1  0.61478969  0.62883467  0.51752333  1
  V  V22  1  0.13580331  0.74312080  0.88855923  1
  V  V23  1  0.75152761  0.00736139  0.26249435  1
  V  V24  1  0.38790595  0.37398025  0.49588668  1
  V  V25  1  0.74417085  0.12174411  0.88411689  1
  V  V26  1  0.01065556  0.25158192  0.26748737  1
  V  V27  1  0.62606973  -0.00496435  0.63180223  1
  V  V28  1  0.62339318  0.27070246  0.37522105  1
  V  V29  1  0.50578959  0.12434638  0.12426698  1
  V  V30  1  0.13506041  0.36792421  0.74623871  1
  V  V31  1  0.24395082  0.38524663  0.13792927  1
  V  V32  1  0.50255146  0.12336654  0.62748064  1
  V  V33  1  0.12202780  0.10024490  0.50529697  1
  V  V34  1  0.37273271  0.87209240  0.50025300  1
  V  V35  1  0.88602457  0.62764747  0.73750413  1
  V  V36  1  0.36188651  0.75298685  0.12155208  1
  V  V37  1  0.24200286  0.88700726  0.65004875  1
  V  V38  1  0.74412073  0.26194977  0.01030468  1
  V  V39  1  0.50613868  0.63454969  0.11415620  1
  V  V40  1  -0.00225977  0.85469000  0.87211236  1
  V  V41  1  0.37202830  0.25056937  0.12849388  1
  V  V42  1  0.38594745  0.37981843  -0.00387459  1
  V  V43  1  -0.03445771  0.75255260  0.24720986  1
  V  V44  1  0.62316330  0.24443993  0.87667193  1
  V  V45  1  0.24650486  0.61231027  0.89214319  1
  V  V46  1  0.37192920  0.63597860  0.25664466  1
  V  V47  1  0.25280014  0.11897847  0.38115373  1
  V  V48  1  0.89451787  0.24505206  0.11385766  1
  V  V49  1  0.88008089  -0.00018800  0.88194819  1
  V  V50  1  0.75363490  0.00380784  0.75460565  1
  V  V51  1  0.75626696  0.36949107  0.62077980  1
  V  V52  1  0.13363418  0.75551163  0.35407882  1
  V  V53  1  0.73135590  0.73923560  -0.01513858  1
  V  V54  1  0.36081346  0.87564849  0.00311530  1
  V  V55  1  0.75431567  0.74453685  0.49780187  1
  V  V56  1  0.61960250  0.74178951  0.36444080  1
  V  V57  1  0.75709279  0.49952037  0.74894821  1
  V  V58  1  0.50773095  0.49985646  0.51036635  1
  V  V59  1  0.62984171  -0.00435148  0.12850626  1
  V  V60  1  0.00591631  0.37062475  0.87314413  1
  V  V61  1  0.50193508  0.25587971  0.75319821  1
  V  V62  1  0.50354978  0.26237648  0.25553195  1
  V  V63  1  0.51172380  0.86658683  0.86605309  1
  V  V64  1  0.10617796  -0.00496130  0.11772819  1
  V  V65  1  0.50669380  -0.00017413  0.00007004  1
  V  V66  1  0.62660525  0.12372565  0.48930649  1
  V  V67  1  0.62776333  0.37159789  0.74821506  1
  V  V68  1  0.87484837  0.86178009  0.00427060  1
  V  V69  1  0.24223308  0.26480128  0.50652859  1
  V  V70  1  0.37411919  0.25220970  0.62338487  1
  V  V71  1  0.61251174  0.49205098  0.09541564  1
  V  V72  1  0.36894425  0.00560114  0.87243907  1
  Zn  Zn73  1  -0.00662840  0.89176440  0.36597834  1
  Zn  Zn74  1  0.03738077  0.72249713  0.70506816  1
  Zn  Zn75  1  0.38560293  0.75295629  0.63370116  1
  Zn  Zn76  1  0.23516989  0.50632004  0.73417727  1
  Zn  Zn77  1  0.24971180  0.75132632  0.50672911  1
  Zn  Zn78  1  0.13686573  0.12609994  0.01336367  1
  Zn  Zn79  1  0.88979101  0.11404073  0.24059897  1
  Zn  Zn80  1  0.01913134  0.49154417  0.49851528  1
  Zn  Zn81  1  0.12506956  0.26259690  0.38212288  1
  Zn  Zn82  1  0.18434437  0.18472241  0.18985386  1
  Zn  Zn83  1  0.17631354  0.18733971  0.68936229  1
  Zn  Zn84  1  0.18694206  0.67465508  0.18151755  1
  Zn  Zn85  1  0.20848682  0.70608560  0.70606961  1
  Zn  Zn86  1  0.68722321  0.18546851  0.19570296  1
  Zn  Zn87  1  0.69273780  0.18358710  0.68688377  1
  Zn  Zn88  1  0.69250890  0.66940480  0.18927035  1
  Zn  Zn89  1  0.69171703  0.68433210  0.68577201  1
  Zn  Zn90  1  0.31112630  0.30933512  0.31714883  1
  Zn  Zn91  1  0.31634202  0.31650597  0.80862566  1
  Zn  Zn92  1  0.31871554  0.81363919  0.31618280  1
  Zn  Zn93  1  0.31249174  0.81553883  0.82547860  1
  Zn  Zn94  1  0.82570110  0.32959277  0.25430069  1
  Zn  Zn95  1  0.81484917  0.31520432  0.82121996  1
  Zn  Zn96  1  0.79830244  0.81733673  0.31539812  1
  Zn  Zn97  1  0.81139729  0.80868094  0.81325135  1
  Zn  Zn98  1  0.19935908  0.57236103  0.40811187  1
  Zn  Zn99  1  0.19519074  0.42505683  0.93798351  1
  Zn  Zn100  1  0.18602809  0.92917186  0.42305442  1
  Zn  Zn101  1  0.16502898  0.95533363  0.91638307  1
  Zn  Zn102  1  0.70417771  0.44727804  0.44102882  1
  Zn  Zn103  1  0.68518551  0.43528294  0.93018289  1
  Zn  Zn104  1  0.68112723  0.93101853  0.44158097  1
  Zn  Zn105  1  0.68707983  0.93106960  0.94295905  1
  Zn  Zn106  1  0.31625930  0.06346444  0.06389195  1
  Zn  Zn107  1  0.31044888  0.06129251  0.56495304  1
  Zn  Zn108  1  0.31819370  0.56210991  0.06737500  1
  Zn  Zn109  1  0.29286173  0.56767881  0.56752104  1
  Zn  Zn110  1  0.81390542  0.06410045  0.05968342  1
  Zn  Zn111  1  0.81235519  0.06583269  0.56810847  1
  Zn  Zn112  1  0.79976216  0.56871924  0.08166397  1
  Zn  Zn113  1  0.81198954  0.56241317  0.56253341  1
  Zn  Zn114  1  0.44224549  0.44335237  0.17930407  1
  Zn  Zn115  1  0.39819684  0.46456301  0.66472040  1
  Zn  Zn116  1  0.43357986  0.93707878  0.18529602  1
  Zn  Zn117  1  0.43542557  0.93479257  0.68828907  1
  Zn  Zn118  1  0.94923704  0.42500935  0.16839520  1
  Zn  Zn119  1  0.94608819  0.43224761  0.68250863  1
  Zn  Zn120  1  0.93140035  0.93521894  0.18230491  1
  Zn  Zn121  1  0.95990259  0.89597614  0.66660471  1
  Zn  Zn122  1  0.07569281  0.07820182  0.30059827  1
  Zn  Zn123  1  0.05537754  0.06283291  0.81424275  1
  Zn  Zn124  1  0.03484351  0.57919566  0.32674865  1
  Zn  Zn125  1  0.06232979  0.55833335  0.81504521  1
  Zn  Zn126  1  0.56321680  0.05937517  0.30879078  1
  Zn  Zn127  1  0.56005428  0.05949497  0.81336865  1
  Zn  Zn128  1  0.54701596  0.57083206  0.31409443  1
  Zn  Zn129  1  0.56177218  0.55406035  0.79374853  1
  Zn  Zn130  1  0.44221389  0.18752075  0.43667317  1
  Zn  Zn131  1  0.43746565  0.18729449  0.93959465  1
  Zn  Zn132  1  0.44029468  0.68826895  0.43897146  1
  Zn  Zn133  1  0.43603730  0.68968563  0.93685002  1
  Zn  Zn134  1  0.94859757  0.16865902  0.43265319  1
  Zn  Zn135  1  0.92349804  0.19198173  0.93099813  1
  Zn  Zn136  1  0.94106857  0.69477729  0.43663095  1
  Zn  Zn137  1  0.92561982  0.67496892  0.94106522  1
  Zn  Zn138  1  0.07069128  0.32044197  0.05237036  1
  Zn  Zn139  1  0.05584885  0.32553089  0.57820976  1
  Zn  Zn140  1  0.06555363  0.80850363  0.07000139  1
  Zn  Zn141  1  0.06616943  0.82754645  0.55098683  1
  Zn  Zn142  1  0.56263679  0.30604354  0.06222174  1
  Zn  Zn143  1  0.56595737  0.31209521  0.56323904  1
  Zn  Zn144  1  0.55548007  0.81136501  0.06011604  1
  Zn  Zn145  1  0.56068908  0.81239057  0.56584809  1
  O  O146  1  0.13264613  0.10747438  0.12700465  1
  O  O147  1  0.11666257  0.12187558  0.61463606  1
  O  O148  1  0.10232851  0.62883170  0.12548569  1
  O  O149  1  0.12128121  0.65403037  0.63517851  1
  O  O150  1  0.61252496  0.11470100  0.13192941  1
  O  O151  1  0.61707052  0.11913762  0.61803994  1
  O  O152  1  0.60936884  0.62089141  0.12436932  1
  O  O153  1  0.61917582  0.62655552  0.61747140  1
  O  O154  1  0.38098865  0.37937530  0.38171833  1
  O  O155  1  0.37426580  0.38668547  0.88556445  1
  O  O156  1  0.39450277  0.86952060  0.38784868  1
  O  O157  1  0.38448271  0.88768453  0.88749053  1
  O  O158  1  0.88363738  0.41470480  0.32323197  1
  O  O159  1  0.88687806  0.39250752  0.86739372  1
  O  O160  1  0.86813881  0.87496929  0.38577304  1
  O  O161  1  0.87595284  0.87685739  0.88659740  1
  O  O162  1  0.24412411  0.01503580  0.36695366  1
  O  O163  1  0.27292686  0.00256614  0.88855727  1
  O  O164  1  0.28294470  0.50309308  0.38575160  1
  O  O165  1  0.25751969  0.50845848  0.88363830  1
  O  O166  1  0.73836519  -0.01239037  0.35955297  1
  O  O167  1  0.74403903  0.00471306  0.87121993  1
  O  O168  1  0.75098357  0.50587882  0.35338772  1
  O  O169  1  0.76160800  0.48761693  0.85733903  1
  O  O170  1  0.26002687  0.48403550  0.12356431  1
  O  O171  1  0.28888913  0.48389548  0.63624777  1
  O  O172  1  0.25748863  0.99953676  0.13868458  1
  O  O173  1  0.26300189  0.98664574  0.63233153  1
  O  O174  1  0.71659734  0.49912748  0.12326613  1
  O  O175  1  0.75771747  0.47587433  0.63122027  1
  O  O176  1  0.73567749  0.99867991  0.12377706  1
  O  O177  1  0.74446917  0.99615517  0.63498904  1
  O  O178  1  0.00542584  0.34657124  0.23083693  1
  O  O179  1  0.01249814  0.38294556  0.76490842  1
  O  O180  1  -0.01927594  0.85874805  0.25075038  1
  O  O181  1  -0.01079271  0.87380444  0.77489751  1
  O  O182  1  0.49268996  0.36007408  0.24480903  1
  O  O183  1  0.51262021  0.35866346  0.73953855  1
  O  O184  1  0.49692360  0.88307926  0.26395052  1
  O  O185  1  0.49570224  0.88190674  0.76667931  1
  O  O186  1  0.49423953  0.13016070  0.24599725  1
  O  O187  1  0.49504318  0.13078276  0.73991244  1
  O  O188  1  0.48022341  0.62430787  0.23431721  1
  O  O189  1  0.48098356  0.61887230  0.75281270  1
  O  O190  1  1.00397636  0.14566291  0.24216704  1
  O  O191  1  1.01116514  0.12503120  0.73268317  1
  O  O192  1  0.98915333  0.63453730  0.23862372  1
  O  O193  1  0.99045649  0.62420709  0.75039759  1
  O  O194  1  0.37117048  0.25531888  0.00881751  1
  O  O195  1  0.37563103  0.25342798  0.50576435  1
  O  O196  1  0.37514941  0.76600880  0.00837677  1
  O  O197  1  0.37779843  0.76359204  0.50253652  1
  O  O198  1  0.85505922  0.24445551  0.00843600  1
  O  O199  1  0.86184252  0.23161924  0.48136366  1
  O  O200  1  0.85928594  0.75874475  -0.00433696  1
  O  O201  1  0.85516356  0.75205906  0.49621143  1
  O  O202  1  0.13695183  0.26697292  0.50595396  1
  O  O203  1  0.14814596  0.24814245  1.00383931  1
  O  O204  1  0.12702266  0.74624248  0.49355416  1
  O  O205  1  0.11202005  0.74311008  0.98801655  1
  O  O206  1  0.62543513  0.24195638  0.48950483  1
  O  O207  1  0.63045921  0.25134369  0.98654960  1
  O  O208  1  0.62554478  0.73919165  0.49915379  1
  O  O209  1  0.63237528  0.75247797  1.00173484  1
  O  O210  1  0.49530868  0.24117784  0.13384353  1
  O  O211  1  0.49695562  0.23846161  0.62999425  1
  O  O212  1  0.49018959  0.74257698  0.12501253  1
  O  O213  1  0.49763560  0.76272565  0.64045880  1
  O  O214  1  0.99290249  0.24420096  0.09681191  1
  O  O215  1  0.98228532  0.24701529  0.62262836  1
  O  O216  1  0.99510174  0.74393361  0.13908657  1
  O  O217  1  0.99439596  0.79292861  0.63244955  1
  O  O218  1  0.00021441  0.25388494  0.37212744  1
  O  O219  1  -0.01538233  0.27332590  0.88307766  1
  O  O220  1  0.00191845  0.74612738  0.35159131  1
  O  O221  1  -0.00786439  0.75225007  0.87840505  1
  O  O222  1  0.51378049  0.25011512  0.37121900  1
  O  O223  1  0.50896196  0.24034000  0.86351937  1
  O  O224  1  0.50910617  0.76010272  0.37500438  1
  O  O225  1  0.49550400  0.76816006  0.88234418  1
  O  O226  1  0.23933632  0.12842644  0.49965993  1
  O  O227  1  0.25979016  0.13953939  1.00148013  1
  O  O228  1  0.23639452  0.63629864  0.50348861  1
  O  O229  1  0.26035114  0.62491500  0.99058549  1
  O  O230  1  0.73839533  0.13585392  0.50784449  1
  O  O231  1  0.74468231  0.12992021  0.98785835  1
  O  O232  1  0.73524474  0.63887205  0.51178862  1
  O  O233  1  0.75023450  0.64216662  1.00669241  1
  O  O234  1  0.26418633  0.35998567  0.00951139  1
  O  O235  1  0.26941727  0.36134028  0.50204161  1
  O  O236  1  0.26473254  0.88414132  -0.00632073  1
  O  O237  1  0.26994129  0.88131264  0.49005616  1
  O  O238  1  0.74570542  0.36020832  -0.00501423  1
  O  O239  1  0.74648451  0.35487681  0.51342500  1
  O  O240  1  0.75062928  0.86170234  0.01069718  1
  O  O241  1  0.75356912  0.86582057  0.50711678  1
  O  O242  1  0.12980132  0.49832275  0.30956262  1
  O  O243  1  0.12521568  0.48655530  0.75693423  1
  O  O244  1  0.13973687  1.00263149  0.24055805  1
  O  O245  1  0.14408715  1.00040198  0.81312087  1
  O  O246  1  0.61930578  0.50709896  0.25258271  1
  O  O247  1  0.64226472  0.48505343  0.75336156  1
  O  O248  1  0.63337647  1.00021104  0.23647263  1
  O  O249  1  0.63195920  1.00376688  0.73848304  1
  O  O250  1  0.36997411  0.01496660  0.24633998  1
  O  O251  1  0.38045693  0.00849558  0.76428680  1
  O  O252  1  0.38451979  0.50310860  0.26202228  1
  O  O253  1  0.37569354  0.50480645  0.77157024  1
  O  O254  1  0.85500509  0.00084770  0.23968550  1
  O  O255  1  0.85746621  -0.01222375  0.77229888  1
  O  O256  1  0.88557993  0.48027567  0.26877760  1
  O  O257  1  0.86832499  0.50069999  0.74613167  1
  O  O258  1  0.11903368  0.41958377  0.31325037  1
  O  O259  1  0.11161284  0.37443496  0.87703444  1
  O  O260  1  0.10654221  0.86053111  0.38041262  1
  O  O261  1  0.10388410  0.85828833  0.89001593  1
  O  O262  1  0.62897473  0.36808920  0.38598279  1
  O  O263  1  0.63246308  0.35781253  0.85842795  1
  O  O264  1  0.61182802  0.86003060  0.38144171  1
  O  O265  1  0.61163431  0.88072203  0.87643479  1
  O  O266  1  0.38491678  0.13325883  0.13600705  1
  O  O267  1  0.38554204  0.13039249  0.63046552  1
  O  O268  1  0.38065465  0.64012212  0.12648334  1
  O  O269  1  0.36446507  0.63140535  0.64602084  1
  O  O270  1  0.86621504  0.13985098  0.12461002  1
  O  O271  1  0.88928522  0.13141397  0.62220620  1
  O  O272  1  0.89515467  0.62120725  0.11253460  1
  O  O273  1  0.87764881  0.61532477  0.63629473  1
  O  O274  1  0.26573044  0.25229920  0.12747707  1
  O  O275  1  0.26270195  0.23946382  0.61176489  1
  O  O276  1  0.26317181  0.74713429  0.12288231  1
  O  O277  1  0.26519680  0.77233849  0.62727691  1
  O  O278  1  0.73302191  0.24750238  0.11073843  1
  O  O279  1  0.76677891  0.24511549  0.61721184  1
  O  O280  1  0.73943883  0.75987552  0.12700248  1
  O  O281  1  0.74008707  0.76350614  0.61737603  1
  O  O282  1  0.25036831  0.24195290  0.39349473  1
  O  O283  1  0.26211343  0.25001036  0.88601333  1
  O  O284  1  0.23588664  0.76191631  0.37798036  1
  O  O285  1  0.24055935  0.74256722  0.88528703  1
  O  O286  1  0.73497789  0.25013900  0.38683858  1
  O  O287  1  0.74485628  0.24104875  0.88212980  1
  O  O288  1  0.73155233  0.75712438  0.39200505  1
  O  O289  1  0.74393998  0.75316571  0.88504452  1
  O  O290  1  0.01480924  0.12729698  -0.03346128  1
  O  O291  1  0.01708525  0.12074134  0.51154198  1
  O  O292  1  0.00012399  0.60948177  0.00238628  1
  O  O293  1  0.00611907  0.64663370  0.51792649  1
  O  O294  1  0.49157488  0.11515041  0.01453905  1
  O  O295  1  0.50580230  0.11787400  0.50836671  1
  O  O296  1  0.49258508  0.62874597  0.01391329  1
  O  O297  1  0.50628309  0.61659520  0.50546820  1
  O  O298  1  0.50032755  0.38396133  0.50107565  1
  O  O299  1  0.48351342  0.36197203  0.99786070  1
  O  O300  1  0.49443726  0.88347628  0.49714389  1
  O  O301  1  0.49366238  0.88773844  0.99539845  1
  O  O302  1  1.12055982  0.38890876  0.38609894  1
  O  O303  1  1.00437148  0.39524903  0.99289738  1
  O  O304  1  0.97710936  0.88138843  0.49251643  1
  O  O305  1  0.97833646  0.86490788  0.99866382  1
  O  O306  1  0.48583726  0.50886750  0.39188696  1
  O  O307  1  0.49421203  0.50280639  0.87575739  1
  O  O308  1  0.51266420  0.98640784  0.38521968  1
  O  O309  1  0.49528345  0.99716080  0.88599543  1
  O  O310  1  0.97357680  0.51404694  0.39787693  1
  O  O311  1  0.99046112  0.49750940  0.89132737  1
  O  O312  1  0.99020321  1.02065774  0.36106383  1
  O  O313  1  0.98093202  0.98962056  0.87942115  1
  O  O314  1  0.00562884  0.00287180  0.12929714  1
  O  O315  1  -0.00988812  0.00431295  0.63328355  1
  O  O316  1  0.00326769  0.50600059  0.11240946  1
  O  O317  1  -0.00761777  0.42177349  0.57840403  1
  O  O318  1  0.50825633  0.00367097  0.12191066  1
  O  O319  1  0.50708104  0.00664853  0.62000396  1
  O  O320  1  0.50486915  0.51625698  0.12008588  1
  O  O321  1  0.49681885  0.49595760  0.61072042  1
  O  O322  1  0.25911551  0.37000074  0.23811184  1
  O  O323  1  0.23930713  0.38501916  0.76692689  1
  O  O324  1  0.26272468  0.89691126  0.26127476  1
  O  O325  1  0.25121769  0.87599452  0.75097255  1
  O  O326  1  0.73840311  0.39449001  0.24133939  1
  O  O327  1  0.74675300  0.37397912  0.74125598  1
  O  O328  1  0.75072674  0.88471732  0.23225269  1
  O  O329  1  0.75269576  0.87803398  0.73538492  1
  O  O330  1  0.25920660  0.12188899  0.26185321  1
  O  O331  1  0.26497017  0.13262614  0.74332566  1
  O  O332  1  0.27181500  0.62049792  0.23947018  1
  O  O333  1  0.26210407  0.62059196  0.76983497  1
  O  O334  1  0.74916626  0.11096615  0.25606944  1
  O  O335  1  0.74918251  0.11283644  0.76105105  1
  O  O336  1  0.76637851  0.59081063  0.22323859  1
  O  O337  1  0.75450913  0.60190797  0.73801440  1
  O  O338  1  0.36738093  0.13103322  0.36997777  1
  O  O339  1  0.38425079  0.11463189  0.86721265  1
  O  O340  1  0.37961173  0.62719991  0.36123819  1
  O  O341  1  0.37025938  0.61311173  0.87680237  1
  O  O342  1  0.92429429  0.07185945  0.36647004  1
  O  O343  1  0.86304308  0.10626748  0.88197047  1
  O  O344  1  0.86530405  0.62326314  0.38148238  1
  O  O345  1  0.87589290  0.60349394  0.85982407  1
  O  O346  1  0.14517615  0.37033741  0.12370046  1
  O  O347  1  0.13633929  0.37089285  0.64550262  1
  O  O348  1  0.12075828  0.89326184  0.12106812  1
  O  O349  1  0.14567480  0.87947220  0.62005203  1
  O  O350  1  0.60328599  0.39369745  0.11833747  1
  O  O351  1  0.64429479  0.35626537  0.63624310  1
  O  O352  1  0.63235551  0.88593165  0.12152588  1
  O  O353  1  0.63924546  0.88830820  0.61419176  1
  O  O354  1  0.11939007  0.24412325  0.26407979  1
  O  O355  1  0.13176257  0.26395284  0.75830099  1
  O  O356  1  0.13493178  0.75535188  0.25376021  1
  O  O357  1  0.12255025  0.74391228  0.77864999  1
  O  O358  1  0.61993248  0.24791873  0.26802459  1
  O  O359  1  0.62051832  0.24944830  0.75465185  1
  O  O360  1  0.63655762  0.73809875  0.26637208  1
  O  O361  1  0.62506549  0.71412992  0.78301797  1
  O  O362  1  0.38406022  0.24088560  0.24721051  1
  O  O363  1  0.38373787  0.24474183  0.74365132  1
  O  O364  1  0.37232085  0.74544507  0.23838269  1
  O  O365  1  0.37207636  0.73716254  0.76491238  1
  O  O366  1  0.89059439  0.23801743  0.23896390  1
  O  O367  1  0.87348547  0.24027389  0.74967941  1
  O  O368  1  0.86671871  0.74649973  0.25300718  1
  O  O369  1  0.86165942  0.72495207  0.75249618  1
  O  O370  1  0.38973713  0.48609272  0.49777598  1
  O  O371  1  0.37780445  0.48657759  0.99409971  1
  O  O372  1  0.38933986  0.99492196  0.50172617  1
  O  O373  1  0.38556169  0.99374813  0.99713835  1
  O  O374  1  0.83417309  0.49130745  0.47733261  1
  O  O375  1  0.85627079  0.50357043  0.98827942  1
  O  O376  1  0.85862176  0.99334584  0.49365896  1
  O  O377  1  0.85746054  0.98229271  0.98754894  1
  O  O378  1  0.12841829  0.00663880  0.01223168  1
  O  O379  1  0.12808704  0.00236825  0.49836790  1
  O  O380  1  0.12595161  0.50184428  -0.00165622  1
  O  O381  1  0.12147029  0.54358391  0.50166323  1
  O  O382  1  0.61572607  -0.00053077  0.01335224  1
  O  O383  1  0.61874474  0.00709471  0.50986637  1
  O  O384  1  0.61894087  0.49912115  -0.00522514  1
  O  O385  1  0.61765649  0.51359065  0.49570041  1
  O  O386  1  0.37380957  0.36763029  0.11547623  1
  O  O387  1  0.38841515  0.35562321  0.61600524  1
  O  O388  1  0.37770428  0.86645962  0.11493216  1
  O  O389  1  0.37240881  0.87906623  0.61047681  1
  O  O390  1  0.87025660  0.34643489  0.13381280  1
  O  O391  1  0.86160589  0.35220879  0.63557722  1
  O  O392  1  0.85565133  0.87864505  0.11106453  1
  O  O393  1  0.85587926  0.88239034  0.60946409  1
  O  O394  1  0.13307065  0.13125724  0.39528880  1
  O  O395  1  0.07221127  0.13586778  0.90793284  1
  O  O396  1  0.12024532  0.64669410  0.36954294  1
  O  O397  1  0.13908725  0.62702098  0.87996700  1
  O  O398  1  0.62084928  0.12336414  0.38762360  1
  O  O399  1  0.63122048  0.13419006  0.86858871  1
  O  O400  1  0.61251287  0.63927795  0.38791719  1
  O  O401  1  0.62024599  0.65847898  0.83459633  1
