# generated using pymatgen
data_V73Zn73O256
_symmetry_space_group_name_H-M   'P 1'
_cell_length_a   16.84120675
_cell_length_b   16.84332985
_cell_length_c   16.87434621
_cell_angle_alpha   90.14569819
_cell_angle_beta   89.95293493
_cell_angle_gamma   90.02179877
_symmetry_Int_Tables_number   1
_chemical_formula_structural   V73Zn73O256
_chemical_formula_sum   'V73 Zn73 O256'
_cell_volume   4786.59336673
_cell_formula_units_Z   1
loop_
 _symmetry_equiv_pos_site_id
 _symmetry_equiv_pos_as_xyz
  1  'x, y, z'
loop_
 _atom_site_type_symbol
 _atom_site_label
 _atom_site_symmetry_multiplicity
 _atom_site_fract_x
 _atom_site_fract_y
 _atom_site_fract_z
 _atom_site_occupancy
  V  V0  1  0.75354370  0.72954340  0.01353742  1
  V  V1  1  0.01447442  0.61466774  0.61522027  1
  V  V2  1  0.36562158  0.51649431  0.87869674  1
  V  V3  1  0.39171513  0.86520485  -0.00317209  1
  V  V4  1  0.87726398  0.73820319  0.62802498  1
  V  V5  1  0.25586777  0.87585774  0.11647112  1
  V  V6  1  0.87077598  0.00488226  0.36806185  1
  V  V7  1  0.37331154  0.74178338  0.12146689  1
  V  V8  1  0.12457028  0.36964902  0.24358275  1
  V  V9  1  0.62729908  0.37780292  0.23301037  1
  V  V10  1  0.14907841  0.87141158  0.25534849  1
  V  V11  1  0.13287229  0.63539883  0.00061743  1
  V  V12  1  0.62415713  0.12463431  0.00909857  1
  V  V13  1  0.87460811  0.50200418  0.37504926  1
  V  V14  1  0.37460281  -0.00049713  0.87570746  1
  V  V15  1  0.36485513  0.76640975  0.62443616  1
  V  V16  1  0.62269942  0.50561770  0.62531241  1
  V  V17  1  0.86546184  0.87834754  0.00285823  1
  V  V18  1  0.25325241  0.11286266  0.36574198  1
  V  V19  1  0.50441161  0.35970978  0.37462892  1
  V  V20  1  0.00240619  0.65074931  0.12835397  1
  V  V21  1  0.87933564  0.37080643  0.50156814  1
  V  V22  1  0.87567445  0.87807299  0.50680795  1
  V  V23  1  0.00316343  0.00680679  0.50758242  1
  V  V24  1  0.18516821  0.07035208  0.55651487  1
  V  V25  1  -0.01292669  0.13424016  0.63357522  1
  V  V26  1  0.51778277  0.50108069  0.00246699  1
  V  V27  1  0.49257510  0.37342700  0.87177029  1
  V  V28  1  -0.00175809  0.86996899  0.87441058  1
  V  V29  1  0.63750747  0.74963961  0.87369882  1
  V  V30  1  0.73528693  0.24920124  0.49629298  1
  V  V31  1  0.49953302  0.76708575  0.75433731  1
  V  V32  1  0.13745841  0.88312091  0.74096978  1
  V  V33  1  0.24911903  0.50815143  0.75378047  1
  V  V34  1  0.61685697  0.37591383  0.75785316  1
  V  V35  1  0.73634230  0.74230170  0.49779215  1
  V  V36  1  0.11522238  0.49317394  0.11755001  1
  V  V37  1  0.88247394  0.14682604  0.24254392  1
  V  V38  1  0.25134967  0.74090061  0.48336452  1
  V  V39  1  0.38280840  0.89199938  0.47393204  1
  V  V40  1  0.00197666  0.86987477  0.36757796  1
  V  V41  1  0.88380281  0.63942537  0.25436451  1
  V  V42  1  0.72998105  0.00300901  0.74406573  1
  V  V43  1  0.36946497  0.49723951  0.37320689  1
  V  V44  1  0.73401020  0.88008721  0.62666909  1
  V  V45  1  0.48685355  0.62339981  0.63763728  1
  V  V46  1  0.36154575  0.37470449  0.01127937  1
  V  V47  1  0.88126723  0.00052296  0.86250540  1
  V  V48  1  0.49916246  0.50362476  0.50029947  1
  V  V49  1  0.38003515  0.17392498  0.72532601  1
  V  V50  1  0.89511792  0.37991977  -0.03425624  1
  V  V51  1  0.74740248  0.12579875  0.87296222  1
  V  V52  1  0.73486144  0.62178229  0.37278034  1
  V  V53  1  0.13931038  0.74552148  0.87155123  1
  V  V54  1  0.37064798  0.62092982  0.25277670  1
  V  V55  1  0.75459693  0.52282063  0.75670520  1
  V  V56  1  0.74033645  0.12920248  0.37057364  1
  V  V57  1  0.24897364  0.49362927  0.24160915  1
  V  V58  1  0.12028839  0.23937799  0.36751841  1
  V  V59  1  0.51760891  0.61918528  0.12602307  1
  V  V60  1  0.00290487  0.12628580  0.10804792  1
  V  V61  1  0.11650884  0.24165934  0.87631420  1
  V  V62  1  0.24295213  0.25351727  0.50384871  1
  V  V63  1  0.11701000  0.37417932  0.76292828  1
  V  V64  1  0.36878832  0.36507758  0.50763922  1
  V  V65  1  0.49191473  0.24649245  0.22236207  1
  V  V66  1  0.00002567  0.37640163  0.37050601  1
  V  V67  1  0.63018085  0.87419485  0.26660183  1
  V  V68  1  0.76531703  0.36266142  0.64655874  1
  V  V69  1  0.13085341  0.48934156  0.61270207  1
  V  V70  1  0.24490474  0.24220581  0.00822036  1
  V  V71  1  0.50835619  0.75014736  0.26447374  1
  V  V72  1  0.37265884  0.11256505  0.23269236  1
  Zn  Zn73  1  -0.00381706  0.74491425  0.74942364  1
  Zn  Zn74  1  0.75318030  0.27621011  0.01606083  1
  Zn  Zn75  1  0.61902122  0.24552117  0.87496135  1
  Zn  Zn76  1  0.11330918  0.71977218  0.38070368  1
  Zn  Zn77  1  0.25208197  0.11913530  0.86929068  1
  Zn  Zn78  1  0.63098616  -0.00836611  0.12686813  1
  Zn  Zn79  1  0.75312039  0.87653056  0.13502614  1
  Zn  Zn80  1  0.11636076  -0.00060367  0.11535937  1
  Zn  Zn81  1  0.50492378  0.00182879  0.00315148  1
  Zn  Zn82  1  0.18493994  0.18130820  0.18243329  1
  Zn  Zn83  1  0.19330244  0.18806624  0.69748646  1
  Zn  Zn84  1  0.18462845  0.68985450  0.20024237  1
  Zn  Zn85  1  0.18942926  0.68759432  0.68525202  1
  Zn  Zn86  1  0.69028447  0.20264585  0.18889985  1
  Zn  Zn87  1  0.80803733  0.19461887  0.69344131  1
  Zn  Zn88  1  0.69434377  0.69040891  0.19373009  1
  Zn  Zn89  1  0.67506432  0.69335149  0.67898138  1
  Zn  Zn90  1  0.31164018  0.30634960  0.30971221  1
  Zn  Zn91  1  0.29976081  0.32029084  0.81793021  1
  Zn  Zn92  1  0.32453694  0.81056638  0.31214144  1
  Zn  Zn93  1  0.31750033  0.80987275  0.81115642  1
  Zn  Zn94  1  0.80894592  0.31308674  0.31179369  1
  Zn  Zn95  1  0.80199950  0.33672864  0.83089867  1
  Zn  Zn96  1  0.81173457  0.81196328  0.32139630  1
  Zn  Zn97  1  0.80606622  0.81291033  0.80994341  1
  Zn  Zn98  1  0.18673593  0.43739704  0.42708996  1
  Zn  Zn99  1  0.18202336  0.43846191  0.93819657  1
  Zn  Zn100  1  0.19356121  0.92465278  0.44407679  1
  Zn  Zn101  1  0.18830521  0.93130171  0.93988566  1
  Zn  Zn102  1  0.68823576  0.43593804  0.43611724  1
  Zn  Zn103  1  0.72492869  0.46697016  0.95038396  1
  Zn  Zn104  1  0.68172951  0.94291870  0.44048508  1
  Zn  Zn105  1  0.68460418  0.93353095  0.93187199  1
  Zn  Zn106  1  0.31002179  0.05427931  0.05233464  1
  Zn  Zn107  1  0.38152255  0.05497568  0.57994356  1
  Zn  Zn108  1  0.31167502  0.56261512  0.06463662  1
  Zn  Zn109  1  0.30831171  0.55939449  0.56170636  1
  Zn  Zn110  1  0.81028852  0.06069045  0.06410193  1
  Zn  Zn111  1  0.81088191  0.06494499  0.55926300  1
  Zn  Zn112  1  0.83978191  0.55799228  0.06345255  1
  Zn  Zn113  1  0.80800618  0.55423657  0.56247090  1
  Zn  Zn114  1  0.44421631  0.43624677  0.18702827  1
  Zn  Zn115  1  0.42631429  0.43571974  0.69008810  1
  Zn  Zn116  1  0.45044433  0.93596193  0.18388617  1
  Zn  Zn117  1  0.43740934  0.94280091  0.69174037  1
  Zn  Zn118  1  0.94274244  0.44761449  0.19765555  1
  Zn  Zn119  1  0.93810157  0.44128697  0.69431492  1
  Zn  Zn120  1  0.93600745  0.93996548  0.18417011  1
  Zn  Zn121  1  0.94406654  0.93593207  0.68909600  1
  Zn  Zn122  1  0.05927804  0.05075503  0.30079820  1
  Zn  Zn123  1  0.06378456  0.06228556  0.80965495  1
  Zn  Zn124  1  0.06007064  0.55843712  0.31232336  1
  Zn  Zn125  1  0.06493835  0.57498980  0.79978048  1
  Zn  Zn126  1  0.56949495  0.07430099  0.28268808  1
  Zn  Zn127  1  0.54570401  0.06498356  0.81286605  1
  Zn  Zn128  1  0.55712288  0.55386173  0.31249295  1
  Zn  Zn129  1  0.56647561  0.56925531  0.81848460  1
  Zn  Zn130  1  0.43230283  0.17807266  0.43311865  1
  Zn  Zn131  1  0.43304717  0.18857683  0.94384309  1
  Zn  Zn132  1  0.43252078  0.68555637  0.44191872  1
  Zn  Zn133  1  0.46173458  0.68454580  0.93357509  1
  Zn  Zn134  1  0.93695349  0.18871279  0.44061524  1
  Zn  Zn135  1  0.92876923  0.18985620  0.93920003  1
  Zn  Zn136  1  0.93276754  0.68812268  0.44498352  1
  Zn  Zn137  1  0.94701771  0.69806747  0.94987674  1
  Zn  Zn138  1  0.05144947  0.30715626  0.05659173  1
  Zn  Zn139  1  0.06379043  0.31402244  0.56187102  1
  Zn  Zn140  1  0.07015186  0.83211801  0.05411994  1
  Zn  Zn141  1  0.06667989  0.81158504  0.55735014  1
  Zn  Zn142  1  0.56686753  0.31122419  0.05278966  1
  Zn  Zn143  1  0.56889637  0.32422626  0.55962527  1
  Zn  Zn144  1  0.57417134  0.80399283  0.06856797  1
  Zn  Zn145  1  0.55184080  0.81373144  0.55844202  1
  O  O146  1  0.11168698  0.11481786  0.12782141  1
  O  O147  1  0.12618271  0.12163187  0.62379748  1
  O  O148  1  0.11664537  0.62607583  0.12335936  1
  O  O149  1  0.12045369  0.61464795  0.62120584  1
  O  O150  1  0.63689362  0.12679624  0.11049143  1
  O  O151  1  0.57825482  0.16229394  0.63453892  1
  O  O152  1  0.61624103  0.62325063  0.13433644  1
  O  O153  1  0.60643260  0.61357086  0.62104532  1
  O  O154  1  0.38357214  0.37946840  0.37810985  1
  O  O155  1  0.38249189  0.38864215  0.88508233  1
  O  O156  1  0.38768105  0.88075189  0.37312374  1
  O  O157  1  0.36792211  0.87348633  0.89540395  1
  O  O158  1  0.88012750  0.38090769  0.37774155  1
  O  O159  1  0.90525918  0.38236178  0.86570780  1
  O  O160  1  0.87915115  0.88426027  0.38756478  1
  O  O161  1  0.87790827  0.88141604  0.87297338  1
  O  O162  1  0.23243911  0.01652823  0.37837166  1
  O  O163  1  0.26386183  0.00116819  0.89861585  1
  O  O164  1  0.26205698  0.49280514  0.36055845  1
  O  O165  1  0.25753814  0.50287078  0.87227898  1
  O  O166  1  0.76312611  0.01461648  0.39054568  1
  O  O167  1  0.75321406  0.00085619  0.85730334  1
  O  O168  1  0.75526741  0.51578039  0.38289906  1
  O  O169  1  0.73633708  0.52981528  0.85586696  1
  O  O170  1  0.23452842  0.50464974  0.13418980  1
  O  O171  1  0.23965530  0.50329114  0.63843126  1
  O  O172  1  0.24835646  0.97837311  0.12024748  1
  O  O173  1  0.25900549  1.02719303  0.60459227  1
  O  O174  1  0.78615108  0.45989328  0.14285381  1
  O  O175  1  0.73813613  0.48380924  0.62616309  1
  O  O176  1  0.74508658  0.99237311  0.12510401  1
  O  O177  1  0.74994308  0.99124118  0.63043731  1
  O  O178  1  0.01065987  0.37491009  0.25655882  1
  O  O179  1  0.01760479  0.37984489  0.74492855  1
  O  O180  1  -0.01211730  0.87296212  0.26794435  1
  O  O181  1  0.00768879  0.86840440  0.76033129  1
  O  O182  1  0.49811859  0.36100112  0.25823598  1
  O  O183  1  0.50166344  0.38805426  0.76290533  1
  O  O184  1  0.50713520  0.85479542  0.24965148  1
  O  O185  1  0.50845198  0.86401570  0.73436126  1
  O  O186  1  0.48667745  0.13800829  0.24763993  1
  O  O187  1  0.46627165  0.13287482  0.76441602  1
  O  O188  1  0.49398050  0.62417284  0.24044596  1
  O  O189  1  0.49432859  0.62716155  0.73883414  1
  O  O190  1  0.98247281  0.12285633  0.25465871  1
  O  O191  1  1.00217787  0.12174154  0.73215757  1
  O  O192  1  0.99319584  0.62986289  0.24504926  1
  O  O193  1  0.99943392  0.63074627  0.72465627  1
  O  O194  1  0.36088022  0.26560387  -0.00350122  1
  O  O195  1  0.36079657  0.25750907  0.49029721  1
  O  O196  1  0.38745499  0.75074505  0.01234803  1
  O  O197  1  0.37218382  0.75404783  0.51068704  1
  O  O198  1  0.87272115  0.27656706  -0.01107871  1
  O  O199  1  0.86710472  0.26540911  0.49427348  1
  O  O200  1  0.85655300  0.75811880  -0.01464229  1
  O  O201  1  0.86280285  0.76038918  0.50974661  1
  O  O202  1  0.13482462  0.26368436  0.47956337  1
  O  O203  1  0.13363012  0.26005938  0.98569216  1
  O  O204  1  0.14495898  0.76102025  0.48929590  1
  O  O205  1  0.12081101  0.74254426  0.98919235  1
  O  O206  1  0.63542456  0.25777715  0.49374450  1
  O  O207  1  0.63597164  0.24040115  0.99112915  1
  O  O208  1  0.63756519  0.75132600  0.50734240  1
  O  O209  1  0.64746676  0.74805117  0.99296890  1
  O  O210  1  0.49031653  0.25425825  0.12349684  1
  O  O211  1  0.53422253  0.22119018  0.63075793  1
  O  O212  1  0.49692246  0.73134235  0.13177009  1
  O  O213  1  0.49208018  0.73667909  0.62821063  1
  O  O214  1  1.00601339  0.22931275  0.12491144  1
  O  O215  1  1.00759331  0.23194599  0.61586741  1
  O  O216  1  1.00878438  0.74964401  0.12681447  1
  O  O217  1  0.98636003  0.74517280  0.61883577  1
  O  O218  1  0.01415216  0.25675867  0.37907990  1
  O  O219  1  0.01641300  0.23883246  0.87893056  1
  O  O220  1  0.00016478  0.76765823  0.39087605  1
  O  O221  1  0.00458184  0.75436207  0.86859828  1
  O  O222  1  0.49666183  0.25927944  0.38149821  1
  O  O223  1  0.49733592  0.27130968  0.88484679  1
  O  O224  1  0.49832578  0.73649222  0.36276792  1
  O  O225  1  0.48027598  0.76445048  0.85366275  1
  O  O226  1  0.23716666  0.13740175  0.48503468  1
  O  O227  1  0.25106339  0.13949420  1.00080200  1
  O  O228  1  0.25852177  0.64055233  0.50130238  1
  O  O229  1  0.23192943  0.62860829  1.01037989  1
  O  O230  1  0.75291324  0.13996630  0.49121833  1
  O  O231  1  0.74598637  0.12368484  0.98182653  1
  O  O232  1  0.75057333  0.63476615  0.49337250  1
  O  O233  1  0.76246378  0.62892941  1.01236121  1
  O  O234  1  0.25802346  0.37471506  -0.00093294  1
  O  O235  1  0.26018264  0.36582785  0.48953954  1
  O  O236  1  0.26449741  0.85880747  0.01599849  1
  O  O237  1  0.27246132  0.85929920  0.49083665  1
  O  O238  1  0.74837869  0.35683395  -0.06523270  1
  O  O239  1  0.75825165  0.36479998  0.49906341  1
  O  O240  1  0.75890954  0.86545920  -0.00517136  1
  O  O241  1  0.75425348  0.87232409  0.50817536  1
  O  O242  1  0.13063941  0.48984265  0.23910456  1
  O  O243  1  0.13068723  0.49354574  0.75082243  1
  O  O244  1  0.11563574  0.97158273  0.23835530  1
  O  O245  1  0.12687667  0.98281702  0.75796469  1
  O  O246  1  0.60747194  0.47736106  0.24649923  1
  O  O247  1  0.62367793  0.50460133  0.74071067  1
  O  O248  1  0.61607426  0.97885865  0.25314535  1
  O  O249  1  0.63109450  1.00601758  0.75114124  1
  O  O250  1  0.38837852  0.01382863  0.24597593  1
  O  O251  1  0.37024812  -0.01873294  0.77700212  1
  O  O252  1  0.37021693  0.50064767  0.25245874  1
  O  O253  1  0.36084847  0.49726308  0.76476208  1
  O  O254  1  0.87014687  -0.00539615  0.26829108  1
  O  O255  1  0.86867368  -0.00693109  0.75953043  1
  O  O256  1  0.87742070  0.51506535  0.26718233  1
  O  O257  1  0.85328523  0.49812046  0.74265012  1
  O  O258  1  0.11766274  0.37010585  0.36249227  1
  O  O259  1  0.11838949  0.37112220  0.86927602  1
  O  O260  1  0.11105819  0.88438365  0.36718197  1
  O  O261  1  0.11880098  0.85878394  0.87012985  1
  O  O262  1  0.60535306  0.37783444  0.37428007  1
  O  O263  1  0.60181407  0.39151558  0.86703451  1
  O  O264  1  0.62701758  0.87324150  0.36825982  1
  O  O265  1  0.62297688  0.85119285  0.87917145  1
  O  O266  1  0.36315462  0.12074676  0.13370514  1
  O  O267  1  0.38017093  0.16064828  0.62342466  1
  O  O268  1  0.38259296  0.62513225  0.13414340  1
  O  O269  1  0.38473576  0.62495572  0.62287391  1
  O  O270  1  0.88075482  0.12287239  0.13791762  1
  O  O271  1  0.87952761  0.13182612  0.62671902  1
  O  O272  1  0.88990487  0.62416161  0.14123897  1
  O  O273  1  0.87551922  0.63572350  0.61580004  1
  O  O274  1  0.23455974  0.25456865  0.10819964  1
  O  O275  1  0.23382322  0.24913776  0.60196989  1
  O  O276  1  0.26919842  0.75124916  0.14000655  1
  O  O277  1  0.26294540  0.74623267  0.61944862  1
  O  O278  1  0.76352947  0.25221323  0.12337002  1
  O  O279  1  0.74276380  0.25998419  0.60823501  1
  O  O280  1  0.75363426  0.75116423  0.11544336  1
  O  O281  1  0.75551163  0.76110411  0.61624000  1
  O  O282  1  0.23837038  0.23984883  0.37746079  1
  O  O283  1  0.24076322  0.24984055  0.88767355  1
  O  O284  1  0.26529442  0.74106616  0.38198453  1
  O  O285  1  0.23812434  0.74656569  0.87408872  1
  O  O286  1  0.75276258  0.23891822  0.38495552  1
  O  O287  1  0.76237714  0.22273040  0.85355891  1
  O  O288  1  0.75206901  0.73890032  0.39100718  1
  O  O289  1  0.74000890  0.73665615  0.86752066  1
  O  O290  1  -0.01003814  0.12090865  0.00820618  1
  O  O291  1  -0.00297846  0.11434016  0.50665123  1
  O  O292  1  0.00668387  0.62995701  0.02215456  1
  O  O293  1  -0.00204042  0.62747830  0.51522742  1
  O  O294  1  0.52137555  0.13229368  -0.00560252  1
  O  O295  1  0.50846541  0.10815622  0.49326833  1
  O  O296  1  0.49846056  0.61164659  0.01662655  1
  O  O297  1  0.49253849  0.60743929  0.50591545  1
  O  O298  1  0.48675797  0.37581576  0.49235862  1
  O  O299  1  0.49172066  0.38864409  0.99374801  1
  O  O300  1  0.48151204  0.87590387  0.50183501  1
  O  O301  1  0.49351846  0.86298711  1.00472428  1
  O  O302  1  0.98691323  0.36968755  0.48921748  1
  O  O303  1  0.98791476  0.38877401  1.00755182  1
  O  O304  1  0.99384521  0.88639765  0.49600668  1
  O  O305  1  0.97653637  0.85839451  0.98292998  1
  O  O306  1  0.48968313  0.48732950  0.38329870  1
  O  O307  1  0.48805574  0.50089970  0.88928485  1
  O  O308  1  0.54357678  1.04438754  0.45736457  1
  O  O309  1  0.48413545  0.99759058  0.88670441  1
  O  O310  1  0.99301842  0.48502267  0.37355424  1
  O  O311  1  0.96400454  0.54154051  0.87254383  1
  O  O312  1  0.98883020  0.99274287  0.38384732  1
  O  O313  1  0.98740028  0.99073843  0.86888300  1
  O  O314  1  -0.00378688  0.01572114  0.13006352  1
  O  O315  1  -0.00654133  0.01152380  0.61552043  1
  O  O316  1  0.01395047  0.51300160  0.13332968  1
  O  O317  1  0.01469447  0.50685720  0.62558701  1
  O  O318  1  0.51707361  -0.00352542  0.11670343  1
  O  O319  1  0.47920493  0.01693906  0.62311450  1
  O  O320  1  0.50039771  0.50691959  0.11355278  1
  O  O321  1  0.49859931  0.50565479  0.62200460  1
  O  O322  1  0.23867107  0.38117793  0.25092720  1
  O  O323  1  0.23326469  0.39341940  0.75663109  1
  O  O324  1  0.25184559  0.87942345  0.25216219  1
  O  O325  1  0.23647030  0.86620174  0.75360361  1
  O  O326  1  0.72339151  0.36557771  0.26333361  1
  O  O327  1  0.72617562  0.40093569  0.75486230  1
  O  O328  1  0.73627604  0.86169002  0.25422963  1
  O  O329  1  0.74754079  0.88512085  0.73440835  1
  O  O330  1  0.25902002  0.12618999  0.25617908  1
  O  O331  1  0.28153260  0.13999042  0.75414167  1
  O  O332  1  0.26414775  0.61326117  0.24587661  1
  O  O333  1  0.23959234  0.60889102  0.75459827  1
  O  O334  1  0.76538407  0.13461617  0.26527789  1
  O  O335  1  0.75371021  0.10804503  0.75150022  1
  O  O336  1  0.76275891  0.63205705  0.26715177  1
  O  O337  1  0.74634891  0.61810171  0.72326008  1
  O  O338  1  0.35726794  0.12199944  0.36774561  1
  O  O339  1  0.37135660  0.10603991  0.89463573  1
  O  O340  1  0.38565027  0.60800304  0.36381896  1
  O  O341  1  0.37780168  0.61470235  0.88446840  1
  O  O342  1  0.87387709  0.11621553  0.36838161  1
  O  O343  1  0.86607745  0.10630158  0.87867534  1
  O  O344  1  0.87587677  0.62115825  0.36980524  1
  O  O345  1  0.91098780  0.59492455  0.88036573  1
  O  O346  1  0.11433390  0.38709357  0.12725575  1
  O  O347  1  0.12327947  0.38606244  0.63306373  1
  O  O348  1  0.15006089  0.84909319  0.14506671  1
  O  O349  1  0.11786482  0.86702273  0.64222282  1
  O  O350  1  0.62490753  0.37085134  0.13125738  1
  O  O351  1  0.62081689  0.38390154  0.64313253  1
  O  O352  1  0.63130722  0.86812898  0.14192047  1
  O  O353  1  0.63587792  0.87364921  0.61755823  1
  O  O354  1  0.13251483  0.25840128  0.25928773  1
  O  O355  1  0.13438372  0.26503810  0.76287331  1
  O  O356  1  0.13288673  0.76522008  0.27147855  1
  O  O357  1  0.12327324  0.74760332  0.76264697  1
  O  O358  1  0.60005520  0.25509542  0.24349988  1
  O  O359  1  0.62726931  0.27642007  0.76210498  1
  O  O360  1  0.61436736  0.75105270  0.25312337  1
  O  O361  1  0.60924612  0.74284001  0.75940717  1
  O  O362  1  0.38564991  0.24182080  0.24987391  1
  O  O363  1  0.37800003  0.27429292  0.74674059  1
  O  O364  1  0.38972736  0.73797928  0.24342105  1
  O  O365  1  0.38448457  0.75435869  0.73294569  1
  O  O366  1  0.88219764  0.24637598  0.25365925  1
  O  O367  1  0.82762219  0.30459654  0.71998727  1
  O  O368  1  0.87736252  0.73892461  0.25966448  1
  O  O369  1  0.87048765  0.75583380  0.72991743  1
  O  O370  1  0.37593775  0.48626191  0.49258029  1
  O  O371  1  0.37142283  0.49350100  0.99144253  1
  O  O372  1  0.37013399  0.99250224  0.48599722  1
  O  O373  1  0.38281360  0.97642692  1.00521013  1
  O  O374  1  0.86797456  0.48728502  0.48583590  1
  O  O375  1  0.83976300  0.47001046  0.99546166  1
  O  O376  1  0.88215111  0.99481108  0.49509632  1
  O  O377  1  0.86366976  0.98376632  0.98110217  1
  O  O378  1  0.11210119  -0.06365754  0.02115712  1
  O  O379  1  0.12252345  -0.00118631  0.50642239  1
  O  O380  1  0.12621171  0.51212823  0.01308157  1
  O  O381  1  0.13593935  0.48979250  0.51360724  1
  O  O382  1  0.62879305  0.01535203  -0.00737417  1
  O  O383  1  0.60390164  0.01541126  0.50041045  1
  O  O384  1  0.61593446  0.49602780  -0.00496405  1
  O  O385  1  0.60928695  0.48188337  0.51272189  1
  O  O386  1  0.37606035  0.38445446  0.10963195  1
  O  O387  1  0.37680143  0.37454254  0.60641019  1
  O  O388  1  0.37193196  0.86335511  0.12254663  1
  O  O389  1  0.37194715  0.86650407  0.62186570  1
  O  O390  1  0.83766770  0.40423490  0.14930849  1
  O  O391  1  0.87271061  0.38919642  0.60593967  1
  O  O392  1  0.87477224  0.87857743  0.10655825  1
  O  O393  1  0.87108205  0.87057393  0.61607328  1
  O  O394  1  0.12672585  0.13552352  0.35947157  1
  O  O395  1  0.13382345  0.13702770  0.86304718  1
  O  O396  1  0.13781834  0.61342416  0.36496937  1
  O  O397  1  0.11619231  0.63285317  0.89014562  1
  O  O398  1  0.64123240  0.11819089  0.36196646  1
  O  O399  1  0.63622195  0.12501742  0.87300493  1
  O  O400  1  0.63572597  0.61846005  0.36865736  1
  O  O401  1  0.58384556  0.65615007  0.88899190  1
