# generated using pymatgen
data_V73Zn73O256
_symmetry_space_group_name_H-M   'P 1'
_cell_length_a   16.85315797
_cell_length_b   16.89252073
_cell_length_c   16.91015655
_cell_angle_alpha   89.98924577
_cell_angle_beta   89.98079180
_cell_angle_gamma   89.85645087
_symmetry_Int_Tables_number   1
_chemical_formula_structural   V73Zn73O256
_chemical_formula_sum   'V73 Zn73 O256'
_cell_volume   4814.17624185
_cell_formula_units_Z   1
loop_
 _symmetry_equiv_pos_site_id
 _symmetry_equiv_pos_as_xyz
  1  'x, y, z'
loop_
 _atom_site_type_symbol
 _atom_site_label
 _atom_site_symmetry_multiplicity
 _atom_site_fract_x
 _atom_site_fract_y
 _atom_site_fract_z
 _atom_site_occupancy
  V  V0  1  0.74772389  0.74570149  -0.00187877  1
  V  V1  1  0.74771144  0.49661387  0.24220597  1
  V  V2  1  0.10558493  0.88229993  0.74816919  1
  V  V3  1  0.00943447  0.12782998  0.63331424  1
  V  V4  1  0.24741329  0.63050852  0.36617478  1
  V  V5  1  0.38428285  0.88024348  0.49538946  1
  V  V6  1  0.38819558  -0.00241536  0.37468187  1
  V  V7  1  0.50328938  -0.00712399  0.01281772  1
  V  V8  1  0.10442451  0.75834043  0.87597715  1
  V  V9  1  0.74936215  0.87959771  0.12849184  1
  V  V10  1  0.12430185  0.62555795  0.51460377  1
  V  V11  1  0.74223735  0.25130099  -0.02390248  1
  V  V12  1  0.36638897  0.37238907  0.50034192  1
  V  V13  1  0.55502347  0.80772846  0.30617990  1
  V  V14  1  0.87529827  -0.00355148  0.38872659  1
  V  V15  1  0.87962197  0.11704573  0.24659067  1
  V  V16  1  0.37571543  0.51205466  0.87164812  1
  V  V17  1  0.62545741  0.62897210  0.51311239  1
  V  V18  1  0.85392093  0.25456577  0.13145563  1
  V  V19  1  0.23521490  0.63026730  0.87252936  1
  V  V20  1  0.49765058  0.11637940  0.62459935  1
  V  V21  1  0.12293984  0.48075293  0.62557343  1
  V  V22  1  0.50832566  0.51453122  -0.00313806  1
  V  V23  1  0.37569927  0.73553234  0.62766077  1
  V  V24  1  0.87637282  0.88266952  -0.01110349  1
  V  V25  1  0.26160323  0.11839324  0.85134466  1
  V  V26  1  0.74593365  0.62352407  0.37859127  1
  V  V27  1  0.62548431  0.12646904  -0.01846405  1
  V  V28  1  0.24993617  0.87101654  0.12543250  1
  V  V29  1  0.02209114  0.01233113  0.50196350  1
  V  V30  1  0.51668524  0.24305787  0.74857070  1
  V  V31  1  0.37061111  0.25006125  0.63259565  1
  V  V32  1  0.51099218  0.36465111  0.37472688  1
  V  V33  1  0.37783995  0.50515852  0.37358192  1
  V  V34  1  0.24498988  0.12381253  0.37691140  1
  V  V35  1  0.25150013  0.48590008  0.74524797  1
  V  V36  1  0.75767659  0.86397256  0.61017946  1
  V  V37  1  0.00308170  0.86401472  0.38140512  1
  V  V38  1  0.49611470  0.73448476  0.75237024  1
  V  V39  1  0.74620749  0.61355314  0.86757532  1
  V  V40  1  0.44372773  0.93915629  0.83044400  1
  V  V41  1  0.88373601  0.62647002  0.24607421  1
  V  V42  1  0.38178856  0.73808605  0.13197918  1
  V  V43  1  0.10930698  0.00508144  0.12832651  1
  V  V44  1  0.87946765  0.39127933  0.49938792  1
  V  V45  1  0.74917836  0.12776442  0.38130617  1
  V  V46  1  0.50615430  0.14025401  0.13007620  1
  V  V47  1  0.37119842  0.87921773  0.00228974  1
  V  V48  1  0.10945100  0.50076963  0.12179503  1
  V  V49  1  0.50401289  0.50436590  0.51336061  1
  V  V50  1  0.62859308  0.88150499  0.75713120  1
  V  V51  1  0.49590667  0.36803729  0.87615951  1
  V  V52  1  0.24603795  0.88711861  0.63360433  1
  V  V53  1  0.11680915  0.85585188  0.25523811  1
  V  V54  1  0.27031804  0.37532271  0.12200474  1
  V  V55  1  0.37928856  0.13974079  0.24281209  1
  V  V56  1  0.25481215  0.23460485  0.00384831  1
  V  V57  1  0.89207112  0.64264548  0.75728564  1
  V  V58  1  0.62004781  0.13529294  0.49697026  1
  V  V59  1  0.24153926  0.49271776  0.25025468  1
  V  V60  1  0.24919420  -0.00174840  0.25040529  1
  V  V61  1  0.24790328  0.75031243  0.49944326  1
  V  V62  1  -0.00832756  0.50574705  -0.00996160  1
  V  V63  1  0.12334024  0.25456284  0.37487828  1
  V  V64  1  0.62243126  0.39751600  0.74144624  1
  V  V65  1  0.62786259  -0.00790369  0.60663892  1
  V  V66  1  0.74159319  -0.00644108  0.24685652  1
  V  V67  1  0.00507605  0.26024455  0.24888019  1
  V  V68  1  -0.00235541  0.00517886  -0.01728348  1
  V  V69  1  0.24532670  0.24682421  0.49975882  1
  V  V70  1  0.74457480  0.39005483  0.62345800  1
  V  V71  1  0.87658934  0.37479399  -0.00634443  1
  V  V72  1  0.62703384  0.36934386  0.23895946  1
  Zn  Zn73  1  0.52954579  0.62297264  0.13866610  1
  Zn  Zn74  1  0.11995811  0.26560830  0.87808794  1
  Zn  Zn75  1  -0.01188059  0.39148707  0.37602727  1
  Zn  Zn76  1  0.87498633  0.25081065  0.62779291  1
  Zn  Zn77  1  0.00535381  0.13540006  0.11834890  1
  Zn  Zn78  1  0.86644131  0.12441411  0.75532425  1
  Zn  Zn79  1  0.24214074  0.72907868  0.00628936  1
  Zn  Zn80  1  0.61055116  0.74969478  0.89071267  1
  Zn  Zn81  1  0.75044079  0.25236149  0.50830757  1
  Zn  Zn82  1  0.19103774  0.19106628  0.18538208  1
  Zn  Zn83  1  0.18951855  0.18040559  0.69084402  1
  Zn  Zn84  1  0.06132942  0.67831976  0.17648443  1
  Zn  Zn85  1  0.18271027  0.68781455  0.69973243  1
  Zn  Zn86  1  0.68041844  0.18059407  0.20056740  1
  Zn  Zn87  1  0.74229125  0.24752465  0.74670513  1
  Zn  Zn88  1  0.69458925  0.69135060  0.18839919  1
  Zn  Zn89  1  0.68605162  0.69284162  0.69250688  1
  Zn  Zn90  1  0.31266234  0.31810025  0.31658375  1
  Zn  Zn91  1  0.31044301  0.30875679  0.82189932  1
  Zn  Zn92  1  0.31779174  0.81087397  0.31077971  1
  Zn  Zn93  1  0.31102418  0.80913708  0.81042541  1
  Zn  Zn94  1  0.81050242  0.31466906  0.31789709  1
  Zn  Zn95  1  0.93442971  0.31134733  0.80371186  1
  Zn  Zn96  1  0.82032663  0.80824716  0.31422167  1
  Zn  Zn97  1  0.81244296  0.81208192  0.80721113  1
  Zn  Zn98  1  0.15883264  0.45411935  0.42678045  1
  Zn  Zn99  1  0.18946426  0.43924624  0.94713864  1
  Zn  Zn100  1  0.19097894  0.93365864  0.43637415  1
  Zn  Zn101  1  0.18026541  0.94002615  0.93577563  1
  Zn  Zn102  1  0.69136851  0.44575840  0.43807547  1
  Zn  Zn103  1  0.68589197  0.42859650  0.93180705  1
  Zn  Zn104  1  0.68799078  0.80396805  0.43770560  1
  Zn  Zn105  1  0.67840786  0.93219387  0.94332571  1
  Zn  Zn106  1  0.31389493  0.05855798  0.06295784  1
  Zn  Zn107  1  0.31185642  0.06315689  0.56256090  1
  Zn  Zn108  1  0.31521863  0.55305661  0.05564202  1
  Zn  Zn109  1  0.30608352  0.55824581  0.55884596  1
  Zn  Zn110  1  0.81077402  0.06164323  -0.06955960  1
  Zn  Zn111  1  0.81009639  0.06387779  0.57293298  1
  Zn  Zn112  1  0.80695676  0.56238550  0.06503056  1
  Zn  Zn113  1  0.81458783  0.57433009  0.57342602  1
  Zn  Zn114  1  0.45310279  0.46280923  0.19812341  1
  Zn  Zn115  1  0.43065507  0.43333644  0.69153438  1
  Zn  Zn116  1  0.43930320  0.94165500  0.18745536  1
  Zn  Zn117  1  0.43476997  0.93315898  0.67254289  1
  Zn  Zn118  1  0.92491634  0.43758853  0.18832082  1
  Zn  Zn119  1  0.92399378  0.47049558  0.67604860  1
  Zn  Zn120  1  0.89204216  0.76637873  0.13077589  1
  Zn  Zn121  1  0.93028665  0.95056852  0.68577356  1
  Zn  Zn122  1  0.06029599  0.06163331  0.31289455  1
  Zn  Zn123  1  0.07653330  0.07012499  0.80534696  1
  Zn  Zn124  1  0.06254344  0.56335653  0.32154004  1
  Zn  Zn125  1  0.06070371  0.44006540  0.80761982  1
  Zn  Zn126  1  0.60354237  -0.01697817  0.38237518  1
  Zn  Zn127  1  0.68442548  0.06218577  0.79600281  1
  Zn  Zn128  1  0.56843119  0.56681063  0.31287609  1
  Zn  Zn129  1  0.56722304  0.56654739  0.82071546  1
  Zn  Zn130  1  0.43462880  0.18381239  0.43384058  1
  Zn  Zn131  1  0.43181473  0.18563067  0.94055951  1
  Zn  Zn132  1  0.44020732  0.68831850  0.43817570  1
  Zn  Zn133  1  0.43080227  0.69230715  0.94015934  1
  Zn  Zn134  1  0.93410134  0.19453572  0.44336690  1
  Zn  Zn135  1  0.94436103  0.18839671  0.93768696  1
  Zn  Zn136  1  0.93951174  0.66456139  0.43068780  1
  Zn  Zn137  1  0.92704716  0.68583748  0.94199281  1
  Zn  Zn138  1  0.07466203  0.32521742  0.06383442  1
  Zn  Zn139  1  0.05904244  0.30795026  0.56518509  1
  Zn  Zn140  1  0.06312794  0.82043895  0.05515617  1
  Zn  Zn141  1  0.06412770  0.81786462  0.55985791  1
  Zn  Zn142  1  0.56231481  0.31333115  0.06085411  1
  Zn  Zn143  1  0.55894357  0.31448657  0.56253242  1
  Zn  Zn144  1  0.56654562  0.80821997  0.08248118  1
  Zn  Zn145  1  0.56008026  0.80623318  0.56727779  1
  O  O146  1  0.12453917  0.10915978  0.13479593  1
  O  O147  1  0.11142304  0.12573932  0.62771248  1
  O  O148  1  0.13041095  0.60088613  0.12852705  1
  O  O149  1  0.12785711  0.63122005  0.61704392  1
  O  O150  1  0.60909702  0.12887930  0.12788395  1
  O  O151  1  0.61404108  0.10875908  0.60867209  1
  O  O152  1  0.63738294  0.63237707  0.11260864  1
  O  O153  1  0.63090037  0.62641743  0.61193330  1
  O  O154  1  0.38308905  0.38334745  0.38397301  1
  O  O155  1  0.39169802  0.38390130  0.86217516  1
  O  O156  1  0.36727547  0.88195674  0.38786697  1
  O  O157  1  0.37575288  0.87679917  0.88415219  1
  O  O158  1  0.87126685  0.37614227  0.39242609  1
  O  O159  1  0.87286862  0.36811977  0.89609740  1
  O  O160  1  0.89036842  0.88962859  0.36871281  1
  O  O161  1  0.86545067  0.87310897  0.88935371  1
  O  O162  1  0.25504686  0.00644340  0.36739072  1
  O  O163  1  0.23027663  0.02548813  0.88231372  1
  O  O164  1  0.25484497  0.50511805  0.37093041  1
  O  O165  1  0.25979812  0.50660982  0.86844365  1
  O  O166  1  0.76912189  0.00512916  0.36648353  1
  O  O167  1  0.73469400  0.00121806  0.87616354  1
  O  O168  1  0.75055725  0.51537759  0.36915874  1
  O  O169  1  0.74474343  0.51438631  0.88039098  1
  O  O170  1  0.25787815  0.49744164  0.14291208  1
  O  O171  1  0.25343522  0.50187694  0.64207180  1
  O  O172  1  0.24564421  0.99140111  0.13634794  1
  O  O173  1  0.25011454  0.98625714  0.61864437  1
  O  O174  1  0.74508493  0.50254322  0.14220442  1
  O  O175  1  0.74104814  0.48958985  0.62070115  1
  O  O176  1  0.74885369  0.99382115  0.14360069  1
  O  O177  1  0.73109492  0.98972058  0.61789997  1
  O  O178  1  -0.01111696  0.36167162  0.25697196  1
  O  O179  1  -0.02656213  0.40152675  0.74912015  1
  O  O180  1  0.01445583  0.87186569  0.26700223  1
  O  O181  1  0.00681397  0.87647673  0.73450581  1
  O  O182  1  0.51471783  0.38561880  0.26690326  1
  O  O183  1  0.50807926  0.36228272  0.74565866  1
  O  O184  1  0.50479938  0.87248427  0.24593674  1
  O  O185  1  0.49947081  0.87917359  0.75855608  1
  O  O186  1  0.48486538  0.12747143  0.23857541  1
  O  O187  1  0.50596398  0.13724538  0.73014097  1
  O  O188  1  0.49313675  0.57394940  0.23227249  1
  O  O189  1  0.50714061  0.63674127  0.74624213  1
  O  O190  1  0.98798915  0.13636739  0.25566332  1
  O  O191  1  0.99557148  0.11301429  0.73499914  1
  O  O192  1  0.99101719  0.62154141  0.25635811  1
  O  O193  1  0.98786806  0.63041282  0.76918983  1
  O  O194  1  0.35671508  0.25134588  0.00225667  1
  O  O195  1  0.36916080  0.25586199  0.50283855  1
  O  O196  1  0.37068772  0.76611848  0.00773785  1
  O  O197  1  0.37014107  0.75921621  0.50841490  1
  O  O198  1  0.85934967  0.25185333  0.01462876  1
  O  O199  1  0.86787386  0.26257185  0.50778858  1
  O  O200  1  0.86479902  0.76475866  0.00350370  1
  O  O201  1  0.91117725  0.75093903  0.57300072  1
  O  O202  1  0.13825124  0.24977907  0.49318768  1
  O  O203  1  0.14829258  0.26901485  0.99620197  1
  O  O204  1  0.13971991  0.74241448  0.50551665  1
  O  O205  1  0.13771183  0.77408471  0.97871317  1
  O  O206  1  0.62757146  0.23759860  0.50258163  1
  O  O207  1  0.63380434  0.24056713  1.00074897  1
  O  O208  1  0.61392015  0.73354251  0.49834965  1
  O  O209  1  0.64167136  0.76062225  1.00436019  1
  O  O210  1  0.49399719  0.23871928  0.11695410  1
  O  O211  1  0.49329707  0.24334949  0.63142375  1
  O  O212  1  0.48736995  0.73685757  0.11936553  1
  O  O213  1  0.48229974  0.75642057  0.63482115  1
  O  O214  1  1.00069056  0.25232052  0.14003864  1
  O  O215  1  0.99632528  0.23333455  0.62166549  1
  O  O216  1  1.00250148  0.74784320  0.11312372  1
  O  O217  1  0.98452177  0.73715932  0.60007983  1
  O  O218  1  0.00749058  0.25078063  0.36686146  1
  O  O219  1  0.00314737  0.25994404  0.87840459  1
  O  O220  1  -0.01072805  0.76701927  0.39419443  1
  O  O221  1  0.00631229  0.75347291  0.88744825  1
  O  O222  1  0.49504130  0.26610581  0.37926917  1
  O  O223  1  0.48979020  0.25691153  0.85670477  1
  O  O224  1  0.48970893  0.74940449  0.35908635  1
  O  O225  1  0.49482541  0.74746255  0.85854463  1
  O  O226  1  0.26115729  0.13390644  0.48595418  1
  O  O227  1  0.24435447  0.13465047  1.01488750  1
  O  O228  1  0.24793194  0.63663290  0.49521709  1
  O  O229  1  0.25187272  0.61486092  0.97985268  1
  O  O230  1  0.73859404  0.12405024  0.49842981  1
  O  O231  1  0.73360564  0.13491772  0.99504946  1
  O  O232  1  0.73609888  0.61603366  0.49299640  1
  O  O233  1  0.76203861  0.64025510  0.99158071  1
  O  O234  1  0.26494400  0.39369005  0.02107181  1
  O  O235  1  0.26178907  0.36223167  0.49185014  1
  O  O236  1  0.26009772  0.89030116  0.01074603  1
  O  O237  1  0.25271647  0.86524389  0.50785680  1
  O  O238  1  0.75226169  0.35812442  -0.00214863  1
  O  O239  1  0.75143164  0.37640792  0.50875426  1
  O  O240  1  0.75579990  0.87413593  0.00785427  1
  O  O241  1  0.74557533  0.87066374  0.50907053  1
  O  O242  1  0.13847387  0.50304074  0.24647268  1
  O  O243  1  0.13908121  0.49434053  0.73601617  1
  O  O244  1  0.13361704  0.99479914  0.24644649  1
  O  O245  1  0.12423438  0.98053052  0.74883831  1
  O  O246  1  0.63983206  0.48723804  0.26096404  1
  O  O247  1  0.61307118  0.49595214  0.74077116  1
  O  O248  1  0.64506377  0.99738451  0.26841546  1
  O  O249  1  0.61863699  0.98567325  0.73563622  1
  O  O250  1  0.36387774  0.00097174  0.25757989  1
  O  O251  1  0.39035793  -0.00641445  0.76664604  1
  O  O252  1  0.36309530  0.49524408  0.27181432  1
  O  O253  1  0.36630496  0.49985094  0.75877037  1
  O  O254  1  0.87633573  0.01609128  0.25751522  1
  O  O255  1  0.86672122  0.00954260  0.75688001  1
  O  O256  1  0.86112348  0.50755824  0.25257115  1
  O  O257  1  0.87242962  0.57422911  0.67392603  1
  O  O258  1  0.13631226  0.35355306  0.37335949  1
  O  O259  1  0.13277855  0.38203437  0.87156573  1
  O  O260  1  0.11935023  0.87302104  0.36584963  1
  O  O261  1  0.12462316  0.86975506  0.86035757  1
  O  O262  1  0.61221731  0.37652164  0.38476437  1
  O  O263  1  0.60768986  0.38136705  0.85296110  1
  O  O264  1  0.61247398  0.86649928  0.37542483  1
  O  O265  1  0.62243311  0.86901851  0.86034685  1
  O  O266  1  0.37692831  0.12243930  0.13869599  1
  O  O267  1  0.39043725  0.13531208  0.61249013  1
  O  O268  1  0.36273041  0.64101065  0.11438531  1
  O  O269  1  0.37289921  0.63779231  0.61635139  1
  O  O270  1  0.87983828  0.13904203  0.14253212  1
  O  O271  1  0.88582967  0.12439486  0.62824681  1
  O  O272  1  0.86973632  0.62113622  0.14455005  1
  O  O273  1  0.87666945  0.69071265  0.53119334  1
  O  O274  1  0.24677562  0.26738464  0.11958304  1
  O  O275  1  0.26545643  0.23658547  0.61412142  1
  O  O276  1  0.25573739  0.76721990  0.11785544  1
  O  O277  1  0.26277285  0.75572045  0.61975715  1
  O  O278  1  0.75512943  0.24320186  0.13255467  1
  O  O279  1  0.75198471  0.27248431  0.62654449  1
  O  O280  1  0.75887612  0.76338624  0.11756936  1
  O  O281  1  0.74403327  0.76417106  0.62546654  1
  O  O282  1  0.24624385  0.24128743  0.37981657  1
  O  O283  1  0.25511620  0.23607934  0.88850111  1
  O  O284  1  0.26319989  0.73816519  0.38418459  1
  O  O285  1  0.26129272  0.73309751  0.87714659  1
  O  O286  1  0.75376493  0.22991737  0.37627945  1
  O  O287  1  0.74316252  0.25216126  0.87921188  1
  O  O288  1  0.75637109  0.73504101  0.37705931  1
  O  O289  1  0.74774626  0.75245267  0.89131539  1
  O  O290  1  -0.00660598  0.10907051  0.00727505  1
  O  O291  1  0.00008945  0.11534716  0.50051107  1
  O  O292  1  -0.02353452  0.60418477  0.00586060  1
  O  O293  1  0.02795808  0.62192797  0.48889708  1
  O  O294  1  0.50713074  0.12285865  0.00925866  1
  O  O295  1  0.51044159  0.13209031  0.50709745  1
  O  O296  1  0.50238161  0.61718231  -0.00874358  1
  O  O297  1  0.50772879  0.61283186  0.49763431  1
  O  O298  1  0.49255907  0.38469555  0.49240944  1
  O  O299  1  0.50524285  0.36958232  0.97683683  1
  O  O300  1  0.48243160  0.87216868  0.50513721  1
  O  O301  1  0.49677201  0.88773262  1.01549132  1
  O  O302  1  0.98229434  0.37122669  0.50399043  1
  O  O303  1  0.98221430  0.37811990  1.01200057  1
  O  O304  1  1.01249859  0.89238117  0.48684875  1
  O  O305  1  0.98517049  0.89096092  1.00252833  1
  O  O306  1  0.48561103  0.49539323  0.38691690  1
  O  O307  1  0.49107412  0.49318933  0.87311728  1
  O  O308  1  0.48655916  1.00228670  0.37244492  1
  O  O309  1  0.49622359  0.99719750  0.89531849  1
  O  O310  1  1.04959609  0.48165516  0.39376293  1
  O  O311  1  0.99750128  0.49793064  0.89248299  1
  O  O312  1  0.99261448  0.99970876  0.38497179  1
  O  O313  1  1.01590843  1.00802798  0.88660858  1
  O  O314  1  0.01063886  0.00345016  0.13674298  1
  O  O315  1  -0.00018204  0.00633039  0.60544075  1
  O  O316  1  0.00744823  0.49253325  0.12996166  1
  O  O317  1  0.02587889  0.49888997  0.62083745  1
  O  O318  1  0.49502740  0.01505502  0.11545407  1
  O  O319  1  0.50211182  0.01189101  0.62378213  1
  O  O320  1  0.48922442  0.49723571  0.09519599  1
  O  O321  1  0.48743468  0.49508035  0.61073712  1
  O  O322  1  0.24962953  0.38755031  0.24887235  1
  O  O323  1  0.25760963  0.38652528  0.75446398  1
  O  O324  1  0.24205256  0.88078560  0.24726840  1
  O  O325  1  0.25661833  0.87473092  0.73427434  1
  O  O326  1  0.74187181  0.38548712  0.25796438  1
  O  O327  1  0.72754140  0.37583262  0.74037854  1
  O  O328  1  0.76409399  0.88464591  0.24291766  1
  O  O329  1  0.72989015  0.86806265  0.74034283  1
  O  O330  1  0.25834742  0.11711938  0.25503066  1
  O  O331  1  0.26715516  0.11917507  0.75018658  1
  O  O332  1  0.25278338  0.61441400  0.26753326  1
  O  O333  1  0.24392284  0.61261718  0.76652785  1
  O  O334  1  0.75883475  0.11487101  0.25916828  1
  O  O335  1  0.74681490  0.13298368  0.73897041  1
  O  O336  1  0.75251174  0.61592362  0.26066588  1
  O  O337  1  0.74909312  0.63114359  0.76500257  1
  O  O338  1  0.36805126  0.11701009  0.36344058  1
  O  O339  1  0.35982321  0.12153620  0.88239660  1
  O  O340  1  0.36442425  0.60946504  0.38951968  1
  O  O341  1  0.37438743  0.61426858  0.86964575  1
  O  O342  1  0.87061156  0.11721783  0.37070341  1
  O  O343  1  0.87308602  0.13292310  0.87209071  1
  O  O344  1  0.86258538  0.62315733  0.36172152  1
  O  O345  1  0.86005055  0.62927061  0.86455483  1
  O  O346  1  0.14445755  0.39645514  0.12752027  1
  O  O347  1  0.13218130  0.38163615  0.61245925  1
  O  O348  1  0.13007534  0.88391375  0.14006140  1
  O  O349  1  0.13827779  0.86329027  0.63655545  1
  O  O350  1  0.61652537  0.37504456  0.13983858  1
  O  O351  1  0.62681919  0.37569959  0.63150850  1
  O  O352  1  0.64732265  0.87682181  0.12244827  1
  O  O353  1  0.62043474  0.88372597  0.62755875  1
  O  O354  1  0.11045527  0.24481827  0.25556939  1
  O  O355  1  0.14080623  0.25087126  0.76311061  1
  O  O356  1  0.12552555  0.75796084  0.24525860  1
  O  O357  1  0.12754283  0.76268768  0.76667091  1
  O  O358  1  0.63427464  0.26969591  0.25632305  1
  O  O359  1  0.61531826  0.25241367  0.74926542  1
  O  O360  1  0.61937170  0.75089541  0.25202585  1
  O  O361  1  0.60229365  0.76651136  0.73858134  1
  O  O362  1  0.36702938  0.23766410  0.25449132  1
  O  O363  1  0.37820934  0.25453240  0.73328197  1
  O  O364  1  0.36979210  0.75206751  0.23062984  1
  O  O365  1  0.38247096  0.75029639  0.73744379  1
  O  O366  1  0.87946821  0.24538395  0.24603373  1
  O  O367  1  0.86405394  0.24442715  0.74506062  1
  O  O368  1  0.87365189  0.73363518  0.24541886  1
  O  O369  1  0.87369213  0.74230469  0.74155162  1
  O  O370  1  0.37725994  0.48992681  0.49499959  1
  O  O371  1  0.38654312  0.49858266  0.97740153  1
  O  O372  1  0.36941040  0.98780247  0.49132298  1
  O  O373  1  0.38731382  0.99041922  1.00515266  1
  O  O374  1  0.87177056  0.49189434  0.50680144  1
  O  O375  1  0.87595838  0.48212241  1.01268073  1
  O  O376  1  0.87667567  1.00246234  0.48849025  1
  O  O377  1  0.88513542  0.99445943  0.99192640  1
  O  O378  1  0.10732722  -0.01274206  0.01958856  1
  O  O379  1  0.12190654  0.00845144  0.49194434  1
  O  O380  1  0.10363949  0.49558046  0.01132182  1
  O  O381  1  0.15542991  0.51745748  0.52254101  1
  O  O382  1  0.61074038  0.01315552  0.00174348  1
  O  O383  1  0.61525707  -0.00309363  0.50570409  1
  O  O384  1  0.60645617  0.49224941  -0.01466634  1
  O  O385  1  0.60905784  0.50721383  0.50062900  1
  O  O386  1  0.36745160  0.38329439  0.14452253  1
  O  O387  1  0.38076284  0.35773089  0.61320747  1
  O  O388  1  0.36834813  0.87110794  0.11973580  1
  O  O389  1  0.36250609  0.87144623  0.61041581  1
  O  O390  1  0.86910850  0.35691777  0.12518712  1
  O  O391  1  0.85907374  0.38391423  0.61847673  1
  O  O392  1  0.85965474  0.88037899  0.10707725  1
  O  O393  1  0.85458048  0.88610629  0.62741291  1
  O  O394  1  0.13907601  0.13262479  0.36589904  1
  O  O395  1  0.14303453  0.14921500  0.85005817  1
  O  O396  1  0.14489305  0.62303200  0.38732307  1
  O  O397  1  0.13331908  0.64785167  0.87785661  1
  O  O398  1  0.63434730  0.10590820  0.39483595  1
  O  O399  1  0.61519240  0.12589223  0.88460714  1
  O  O400  1  0.63694343  0.62460385  0.38313131  1
  O  O401  1  0.63920822  0.63652101  0.87466098  1
