# generated using pymatgen
data_V73Zn73O256
_symmetry_space_group_name_H-M   'P 1'
_cell_length_a   16.95124034
_cell_length_b   16.90846939
_cell_length_c   16.87220062
_cell_angle_alpha   90.03436871
_cell_angle_beta   90.27234451
_cell_angle_gamma   89.82924565
_symmetry_Int_Tables_number   1
_chemical_formula_structural   V73Zn73O256
_chemical_formula_sum   'V73 Zn73 O256'
_cell_volume   4835.82524983
_cell_formula_units_Z   1
loop_
 _symmetry_equiv_pos_site_id
 _symmetry_equiv_pos_as_xyz
  1  'x, y, z'
loop_
 _atom_site_type_symbol
 _atom_site_label
 _atom_site_symmetry_multiplicity
 _atom_site_fract_x
 _atom_site_fract_y
 _atom_site_fract_z
 _atom_site_occupancy
  V  V0  1  0.37580420  0.75299087  0.12492822  1
  V  V1  1  -0.00357887  0.88793995  0.89234225  1
  V  V2  1  0.87632755  0.00161730  0.88888087  1
  V  V3  1  -0.01048191  0.76237421  0.74759535  1
  V  V4  1  0.75002455  -0.00513733  0.74647464  1
  V  V5  1  0.74133653  0.61760134  0.89694513  1
  V  V6  1  0.61961508  -0.00713309  0.61669780  1
  V  V7  1  0.50400396  0.23501082  0.75784223  1
  V  V8  1  0.35112064  0.35991911  0.49788322  1
  V  V9  1  0.24677106  0.48709741  0.23767136  1
  V  V10  1  0.25349005  0.87723831  0.12416012  1
  V  V11  1  0.25155272  0.75527783  0.00052103  1
  V  V12  1  0.37410611  0.49368164  0.37874715  1
  V  V13  1  0.76506886  0.87927439  0.10817063  1
  V  V14  1  0.40325554  0.87434173  0.49378201  1
  V  V15  1  0.37661307  0.62772515  0.24749706  1
  V  V16  1  0.89873553  0.50193041  0.88364667  1
  V  V17  1  0.12755392  0.62114763  0.51317730  1
  V  V18  1  0.11966938  0.00564460  0.11331040  1
  V  V19  1  0.11631661  0.75908877  0.87745650  1
  V  V20  1  0.49085464  0.12248267  0.12893258  1
  V  V21  1  0.60152981  0.49867728  0.64281048  1
  V  V22  1  0.62896906  0.87012719  0.74710400  1
  V  V23  1  0.62700832  0.13136761  -0.00528934  1
  V  V24  1  0.12463252  0.75152973  0.37218778  1
  V  V25  1  0.02553353  0.25538404  0.25631368  1
  V  V26  1  0.11550684  0.49246382  0.12005257  1
  V  V27  1  0.62634783  0.60148958  0.48721454  1
  V  V28  1  0.76243550  0.00374572  0.25368966  1
  V  V29  1  0.87675857  0.12463753  0.74536932  1
  V  V30  1  0.09034432  0.40650026  0.74225656  1
  V  V31  1  0.11459256  0.62473427  0.00583503  1
  V  V32  1  0.50727819  0.73990281  0.74183223  1
  V  V33  1  0.87548338  0.01298310  0.38850123  1
  V  V34  1  0.49330930  -0.00617204  -0.00075796  1
  V  V35  1  0.62582839  0.12165316  0.49685205  1
  V  V36  1  0.02383687  -0.00745565  0.50543730  1
  V  V37  1  0.00043854  0.12877200  0.11783776  1
  V  V38  1  0.48083512  0.50092622  0.00473770  1
  V  V39  1  0.63385428  -0.00289386  0.12852706  1
  V  V40  1  0.26148985  -0.01452875  0.75168684  1
  V  V41  1  0.73719694  0.37628457  0.64365119  1
  V  V42  1  -0.00498692  0.74595317  0.25124131  1
  V  V43  1  0.01030948  0.37927058  0.39031802  1
  V  V44  1  0.87287308  0.61608941  0.25772625  1
  V  V45  1  0.38742766  -0.00066831  0.37327853  1
  V  V46  1  0.86230666  0.62864661  0.75366375  1
  V  V47  1  0.62913153  0.24465876  0.37332664  1
  V  V48  1  0.25066742  0.62534521  0.37235244  1
  V  V49  1  0.86168163  0.75508574  0.61775826  1
  V  V50  1  0.48860923  0.24808988  0.24388086  1
  V  V51  1  0.50309285  0.62632467  0.12368954  1
  V  V52  1  0.00646843  0.11999187  0.61861351  1
  V  V53  1  0.87395430  0.25283486  0.62735742  1
  V  V54  1  0.25428582  0.01117678  0.24800524  1
  V  V55  1  0.25339202  0.62864411  0.85921412  1
  V  V56  1  0.24277452  0.12640616  0.39473745  1
  V  V57  1  0.87764340  0.75096228  0.11468375  1
  V  V58  1  0.63421298  0.75565445  0.90837091  1
  V  V59  1  0.85133301  0.25877319  0.12560231  1
  V  V60  1  0.38491073  0.73784812  0.61865062  1
  V  V61  1  0.75483075  0.25251828  0.49792940  1
  V  V62  1  0.49782504  0.36866424  0.38322394  1
  V  V63  1  0.50080289  0.12137073  0.62114202  1
  V  V64  1  0.49477689  0.87128794  0.88542675  1
  V  V65  1  0.36114483  0.23938771  0.62404912  1
  V  V66  1  -0.01161433  0.87135143  0.37992101  1
  V  V67  1  0.50063167  0.39660879  0.86054049  1
  V  V68  1  0.25781773  0.76010123  0.49705645  1
  V  V69  1  0.64195259  0.50450098  0.12388016  1
  V  V70  1  0.63881864  0.37723155  0.24428342  1
  V  V71  1  0.60057211  0.79590473  0.35181967  1
  V  V72  1  0.74450310  0.13146101  0.87365226  1
  Zn  Zn73  1  0.04912623  0.47036530  0.56123767  1
  Zn  Zn74  1  0.87580034  0.48207067  0.40289994  1
  Zn  Zn75  1  0.12420269  0.87642715  0.24908207  1
  Zn  Zn76  1  0.71810630  0.55353905  0.31949094  1
  Zn  Zn77  1  0.35307173  0.35275055  0.01219656  1
  Zn  Zn78  1  0.12047865  0.26266258  0.86913037  1
  Zn  Zn79  1  0.87957437  0.13491668  0.26045999  1
  Zn  Zn80  1  0.86840119  0.38044220  0.00032621  1
  Zn  Zn81  1  0.74815181  0.87071382  0.59926324  1
  Zn  Zn82  1  0.18950566  0.18704220  0.18367953  1
  Zn  Zn83  1  0.18279810  0.18285278  0.70823938  1
  Zn  Zn84  1  0.18671056  0.68492386  0.18799452  1
  Zn  Zn85  1  0.18010771  0.71892565  0.68156990  1
  Zn  Zn86  1  0.68228779  0.18051086  0.19073136  1
  Zn  Zn87  1  0.68417909  0.18638482  0.68946579  1
  Zn  Zn88  1  0.69192474  0.69440369  0.18815400  1
  Zn  Zn89  1  0.68937713  0.67841051  0.68601405  1
  Zn  Zn90  1  0.30388992  0.30431708  0.30981024  1
  Zn  Zn91  1  0.33054650  0.31475852  0.81361022  1
  Zn  Zn92  1  0.31715639  0.81759480  0.30925656  1
  Zn  Zn93  1  0.32597031  0.78106122  0.81798686  1
  Zn  Zn94  1  0.82448876  0.31298519  0.31536159  1
  Zn  Zn95  1  0.77767010  0.34300545  0.84948589  1
  Zn  Zn96  1  0.78769709  0.80416932  0.29935399  1
  Zn  Zn97  1  0.81014552  0.81424893  0.82606664  1
  Zn  Zn98  1  0.18354847  0.43764682  0.42940776  1
  Zn  Zn99  1  0.17572036  0.44798611  0.91550984  1
  Zn  Zn100  1  0.19314392  0.93674590  0.43076058  1
  Zn  Zn101  1  0.18384249  0.93592921  0.93963495  1
  Zn  Zn102  1  0.68442780  0.42809059  0.44769372  1
  Zn  Zn103  1  0.67269072  0.42863886  0.95090561  1
  Zn  Zn104  1  0.67792407  0.94092415  0.42184855  1
  Zn  Zn105  1  0.68559293  0.94277472  0.93868401  1
  Zn  Zn106  1  0.31059193  0.06408206  0.05191986  1
  Zn  Zn107  1  0.32004628  0.05439339  0.55646970  1
  Zn  Zn108  1  0.30473749  0.56939844  0.05712104  1
  Zn  Zn109  1  0.32269217  0.56487664  0.55678718  1
  Zn  Zn110  1  0.81468361  0.08083966  0.06519387  1
  Zn  Zn111  1  0.80602677  0.06323227  0.56120909  1
  Zn  Zn112  1  0.82528447  0.56804127  0.06565327  1
  Zn  Zn113  1  0.79399812  0.56501639  0.56731526  1
  Zn  Zn114  1  0.43519469  0.43107292  0.18409292  1
  Zn  Zn115  1  0.43306358  0.41921879  0.67797592  1
  Zn  Zn116  1  0.44215473  0.93234683  0.19643579  1
  Zn  Zn117  1  0.44748483  0.92072046  0.68032825  1
  Zn  Zn118  1  0.93794300  0.42963038  0.18581983  1
  Zn  Zn119  1  0.91552243  0.44868336  0.68464021  1
  Zn  Zn120  1  0.93963306  0.93612416  0.19266500  1
  Zn  Zn121  1  0.93437503  0.93387650  0.68346036  1
  Zn  Zn122  1  0.06449688  0.06101663  0.30508211  1
  Zn  Zn123  1  0.04329529  0.10454253  0.83839382  1
  Zn  Zn124  1  0.06064948  0.55680491  0.31032790  1
  Zn  Zn125  1  0.06006195  0.58436014  0.80971444  1
  Zn  Zn126  1  0.56939718  0.05914836  0.30757725  1
  Zn  Zn127  1  0.55962587  0.05820653  0.81123376  1
  Zn  Zn128  1  0.55016788  0.55349057  0.30753311  1
  Zn  Zn129  1  0.57385658  0.56946722  0.82344430  1
  Zn  Zn130  1  0.43609645  0.18172259  0.43497477  1
  Zn  Zn131  1  0.40640521  0.17206635  0.93786590  1
  Zn  Zn132  1  0.45320065  0.68954586  0.42559723  1
  Zn  Zn133  1  0.43993733  0.68713444  0.94012716  1
  Zn  Zn134  1  1.06959808  0.18946570  0.43674383  1
  Zn  Zn135  1  0.95563792  0.23089572  0.95638012  1
  Zn  Zn136  1  0.92133038  0.64095250  0.46495537  1
  Zn  Zn137  1  0.93408147  0.68768144  0.93323080  1
  Zn  Zn138  1  0.05587298  0.32129896  0.06571755  1
  Zn  Zn139  1  0.07163540  0.30451977  0.57276351  1
  Zn  Zn140  1  0.06077323  0.81673083  0.06582559  1
  Zn  Zn141  1  0.06256409  0.80697109  0.56309274  1
  Zn  Zn142  1  0.51929843  0.29081029  0.03162104  1
  Zn  Zn143  1  0.56254179  0.30782497  0.56741340  1
  Zn  Zn144  1  0.55784573  0.82478537  0.09527867  1
  Zn  Zn145  1  0.56773037  0.77700815  0.54048437  1
  O  O146  1  0.11775957  0.11144225  0.13081645  1
  O  O147  1  0.10177975  0.13207607  0.64072149  1
  O  O148  1  0.12959124  0.62197403  0.11075855  1
  O  O149  1  0.13928564  0.63432170  0.61140788  1
  O  O150  1  0.62120080  0.11602986  0.11222234  1
  O  O151  1  0.61934448  0.11278123  0.61784933  1
  O  O152  1  0.61522410  0.61558095  0.14376077  1
  O  O153  1  0.62956684  0.60034649  0.62525120  1
  O  O154  1  0.37596423  0.37205275  0.38260867  1
  O  O155  1  0.40472173  0.36588674  0.88701277  1
  O  O156  1  0.37567694  0.88512306  0.38133612  1
  O  O157  1  0.39739437  0.85573960  0.87671617  1
  O  O158  1  0.90073301  0.37240599  0.37089535  1
  O  O159  1  0.87722801  0.40554625  0.85937397  1
  O  O160  1  0.88952163  0.88481898  0.36939105  1
  O  O161  1  0.88185196  0.89297685  0.87682305  1
  O  O162  1  0.25540747  0.00567937  0.36150530  1
  O  O163  1  0.25625372  -0.01639886  0.85624979  1
  O  O164  1  0.25566639  0.50728819  0.36271823  1
  O  O165  1  0.24746099  0.52857213  0.86818680  1
  O  O166  1  0.76376139  -0.00285811  0.36321583  1
  O  O167  1  0.75911519  0.00406875  0.86669180  1
  O  O168  1  0.76347603  0.48083347  0.38924169  1
  O  O169  1  0.72422035  0.51953137  0.88395994  1
  O  O170  1  0.24791077  0.50469804  0.13478425  1
  O  O171  1  0.28654058  0.50884095  0.66006262  1
  O  O172  1  0.24770718  0.99870133  0.12897452  1
  O  O173  1  0.26521797  0.98966100  0.64642810  1
  O  O174  1  0.74020355  0.50929645  0.12276094  1
  O  O175  1  0.75340667  0.47657723  0.62962662  1
  O  O176  1  0.75512766  0.99793100  0.12770737  1
  O  O177  1  0.74027218  0.99128301  0.63005155  1
  O  O178  1  0.00547807  0.35642787  0.24340947  1
  O  O179  1  -0.00742664  0.38683186  0.74373843  1
  O  O180  1  0.00518693  0.86735938  0.26269161  1
  O  O181  1  -0.01007503  0.86718833  0.76248749  1
  O  O182  1  0.50612377  0.36096906  0.25567618  1
  O  O183  1  0.49404480  0.36084520  0.75916975  1
  O  O184  1  0.52289678  0.85878469  0.19970649  1
  O  O185  1  0.51275356  0.86816872  0.76380771  1
  O  O186  1  0.50765446  0.13353049  0.23843429  1
  O  O187  1  0.50149388  0.12257647  0.73278300  1
  O  O188  1  0.48365609  0.61583640  0.23946290  1
  O  O189  1  0.50630305  0.64322595  0.76078019  1
  O  O190  1  1.00218592  0.13911028  0.24924013  1
  O  O191  1  0.97962710  0.10626210  0.73382796  1
  O  O192  1  0.99312807  0.63907183  0.25554256  1
  O  O193  1  0.97279388  0.65081016  0.77169393  1
  O  O194  1  0.41365946  0.25658600  0.00889955  1
  O  O195  1  0.37271497  0.25364008  0.50389226  1
  O  O196  1  0.36226418  0.74621119  0.01325003  1
  O  O197  1  0.37973507  0.75811275  0.49472053  1
  O  O198  1  0.86647668  0.23058815  0.02648456  1
  O  O199  1  0.85571491  0.24073234  0.51595546  1
  O  O200  1  0.88242938  0.74919071  0.01591299  1
  O  O201  1  0.88274858  0.73274265  0.52265195  1
  O  O202  1  0.13144818  0.23307012  0.51772673  1
  O  O203  1  0.12739922  0.24723046  0.99563653  1
  O  O204  1  0.14058343  0.74124571  0.48731621  1
  O  O205  1  0.12871460  0.74681246  0.99820143  1
  O  O206  1  0.62988383  0.24303405  0.49167221  1
  O  O207  1  0.61055109  0.22895248  0.99955994  1
  O  O208  1  0.63406804  0.77741760  0.44792444  1
  O  O209  1  0.62133663  0.76282629  1.00557544  1
  O  O210  1  0.50894530  0.23578228  0.13771053  1
  O  O211  1  0.49660408  0.23703149  0.63249792  1
  O  O212  1  0.48700303  0.73340865  0.11286330  1
  O  O213  1  0.50489104  0.75373429  0.63527018  1
  O  O214  1  1.01056591  0.23663621  0.13651932  1
  O  O215  1  0.97941518  0.23238347  0.61741855  1
  O  O216  1  0.98768270  0.76455523  0.13919632  1
  O  O217  1  0.98294603  0.75570743  0.64340085  1
  O  O218  1  0.00943444  0.25754299  0.36388522  1
  O  O219  1  0.01514819  0.21074460  0.86732345  1
  O  O220  1  0.01109413  0.75727754  0.36982893  1
  O  O221  1  -0.00351698  0.77143296  0.87871916  1
  O  O222  1  0.50649316  0.24910167  0.36284390  1
  O  O223  1  0.47609937  0.21220762  0.85243139  1
  O  O224  1  0.50805944  0.75257712  0.34695275  1
  O  O225  1  0.51686546  0.75747051  0.87366075  1
  O  O226  1  0.24570052  0.11170532  0.49401690  1
  O  O227  1  0.19403598  0.20905657  1.02129662  1
  O  O228  1  0.25176442  0.63172829  0.48693543  1
  O  O229  1  0.24041623  0.64167045  0.99018349  1
  O  O230  1  0.73442231  0.13859286  0.50828244  1
  O  O231  1  0.73422217  0.12123706  0.99136868  1
  O  O232  1  0.72134022  0.63152236  0.50530444  1
  O  O233  1  0.75290456  0.62950263  0.99574949  1
  O  O234  1  0.25213383  0.35915258  -0.04928082  1
  O  O235  1  0.25333755  0.36377865  0.48936191  1
  O  O236  1  0.24417982  0.86781169  0.01165982  1
  O  O237  1  0.25846593  0.86177053  0.49129330  1
  O  O238  1  0.76074966  0.36231375  -0.03955256  1
  O  O239  1  0.74149144  0.35488180  0.51904579  1
  O  O240  1  0.76168969  0.88697366  0.00825366  1
  O  O241  1  0.76297848  0.86868078  0.47208226  1
  O  O242  1  0.13825302  0.50957329  0.23425118  1
  O  O243  1  0.10625149  0.50654825  0.74376561  1
  O  O244  1  0.14195551  0.99740780  0.24169928  1
  O  O245  1  0.15853431  0.98312486  0.74317184  1
  O  O246  1  0.62907765  0.48950991  0.24886558  1
  O  O247  1  0.61272908  0.49782391  0.74376084  1
  O  O248  1  0.64584660  1.01230404  0.23741587  1
  O  O249  1  0.63044837  0.98950421  0.74165223  1
  O  O250  1  0.36478243  -0.00929926  0.25970157  1
  O  O251  1  0.36735263  -0.01659676  0.75105174  1
  O  O252  1  0.36274574  0.50579185  0.25618931  1
  O  O253  1  0.34083788  0.49597440  0.71304418  1
  O  O254  1  0.87451942  0.00548369  0.26173896  1
  O  O255  1  0.86108032  0.00295653  0.74617082  1
  O  O256  1  0.88629415  0.51835149  0.23569235  1
  O  O257  1  0.87468989  0.52451101  0.76469938  1
  O  O258  1  0.11125716  0.37697740  0.36933303  1
  O  O259  1  0.11639626  0.37795777  0.84710369  1
  O  O260  1  0.12308509  0.86238476  0.37353516  1
  O  O261  1  0.10671921  0.87336795  0.88015663  1
  O  O262  1  0.61510418  0.36408019  0.36863953  1
  O  O263  1  0.58918448  0.36081161  0.89209845  1
  O  O264  1  0.60387861  0.89886371  0.34884595  1
  O  O265  1  0.62222505  0.86518480  0.87114858  1
  O  O266  1  0.39303043  0.11548262  0.12375533  1
  O  O267  1  0.39045134  0.13025501  0.60731928  1
  O  O268  1  0.37734334  0.63173664  0.13070244  1
  O  O269  1  0.39706994  0.63936849  0.60302728  1
  O  O270  1  0.89181452  0.12775518  0.13585397  1
  O  O271  1  0.87262658  0.12627276  0.63125815  1
  O  O272  1  0.87371062  0.64637488  0.13591874  1
  O  O273  1  0.85393959  0.63857510  0.64932636  1
  O  O274  1  0.22797013  0.24209907  0.08712959  1
  O  O275  1  0.26547992  0.21839062  0.63391485  1
  O  O276  1  0.25297345  0.75733550  0.12009702  1
  O  O277  1  0.27934413  0.74121492  0.60992520  1
  O  O278  1  0.75285918  0.24718674  0.13135386  1
  O  O279  1  0.75057003  0.25326922  0.62265713  1
  O  O280  1  0.76414169  0.76934241  0.12888730  1
  O  O281  1  0.75501437  0.75413226  0.62509882  1
  O  O282  1  0.25687809  0.22404560  0.37231689  1
  O  O283  1  0.24948958  0.29449384  0.89712778  1
  O  O284  1  0.24786236  0.74298015  0.37534489  1
  O  O285  1  0.23238340  0.76249740  0.88531573  1
  O  O286  1  0.74314523  0.25736338  0.38893667  1
  O  O287  1  0.75188712  0.22843928  0.86060443  1
  O  O288  1  0.77992164  0.80402376  0.43148723  1
  O  O289  1  0.73725964  0.75368048  0.89012770  1
  O  O290  1  -0.00022735  0.12798434  0.01962541  1
  O  O291  1  0.00904263  0.10607447  0.50920809  1
  O  O292  1  0.01632668  0.63342427  -0.00464059  1
  O  O293  1  0.03054340  0.63392424  0.49447354  1
  O  O294  1  0.50710739  0.10852146  0.00752031  1
  O  O295  1  0.51580530  0.12957467  0.50653645  1
  O  O296  1  0.49704134  0.61383809  0.00930219  1
  O  O297  1  0.53858785  0.66018732  0.50103448  1
  O  O298  1  0.49495885  0.36114967  0.48550296  1
  O  O299  1  0.49929186  0.40054780  1.00803344  1
  O  O300  1  0.50106340  0.86838178  0.49108757  1
  O  O301  1  0.51095477  0.88203677  0.99422198  1
  O  O302  1  1.01052695  0.37448524  0.49402883  1
  O  O303  1  0.97797181  0.34076592  0.98771844  1
  O  O304  1  1.00695010  0.88273549  0.49548987  1
  O  O305  1  0.99834208  0.88436603  0.99174977  1
  O  O306  1  0.48129675  0.48217413  0.36592378  1
  O  O307  1  0.50401754  0.50203423  0.88754893  1
  O  O308  1  0.48509386  1.00913865  0.36406547  1
  O  O309  1  0.50304770  0.98568881  0.88680670  1
  O  O310  1  0.99925747  0.48661857  0.37443731  1
  O  O311  1  0.99684470  0.51329876  0.88014149  1
  O  O312  1  0.99595311  0.99416096  0.38977546  1
  O  O313  1  0.98833197  0.99989469  0.87059368  1
  O  O314  1  0.01406628  0.00754723  0.13393158  1
  O  O315  1  -0.00522900  0.00337596  0.61131530  1
  O  O316  1  0.01662707  0.49728254  0.12738965  1
  O  O317  1  -0.04419987  0.51503520  0.60187828  1
  O  O318  1  0.51218167  0.00823792  0.12273841  1
  O  O319  1  0.51209997  0.00272527  0.62736792  1
  O  O320  1  0.49771371  0.51086679  0.11948500  1
  O  O321  1  0.50217971  0.49312199  0.62798394  1
  O  O322  1  0.25125792  0.38853242  0.25283781  1
  O  O323  1  0.24590253  0.35316446  0.73387260  1
  O  O324  1  0.24762471  0.88299016  0.23864760  1
  O  O325  1  0.26631454  0.88076009  0.75277187  1
  O  O326  1  0.73590066  0.36820540  0.25775942  1
  O  O327  1  0.74131141  0.36264296  0.74266060  1
  O  O328  1  0.76170463  0.89834075  0.23482280  1
  O  O329  1  0.73924825  0.88209278  0.75830588  1
  O  O330  1  0.25556295  0.11244849  0.24505398  1
  O  O331  1  0.26479073  0.08993979  0.75665588  1
  O  O332  1  0.25936151  0.61953761  0.25667738  1
  O  O333  1  0.23608513  0.65558517  0.76266735  1
  O  O334  1  0.76009872  0.11059457  0.24270206  1
  O  O335  1  0.75059678  0.11021511  0.75180257  1
  O  O336  1  0.76655907  0.62511096  0.24700751  1
  O  O337  1  0.75780530  0.64098723  0.77496207  1
  O  O338  1  0.36234744  0.10474128  0.38687040  1
  O  O339  1  0.31313501  0.11530621  0.95313901  1
  O  O340  1  0.37252025  0.61579346  0.37027855  1
  O  O341  1  0.35309478  0.66158166  0.86942830  1
  O  O342  1  0.88021560  0.11126270  0.37893810  1
  O  O343  1  0.86532416  0.11090697  0.85640615  1
  O  O344  1  0.87742714  0.61715747  0.36071088  1
  O  O345  1  0.85882338  0.61777826  0.87945783  1
  O  O346  1  0.13203123  0.39401657  0.10838493  1
  O  O347  1  0.10394534  0.39310421  0.63332314  1
  O  O348  1  0.13302390  0.88860600  0.12605682  1
  O  O349  1  0.14214467  0.81781597  0.63889427  1
  O  O350  1  0.62494927  0.39127114  0.14144010  1
  O  O351  1  0.62892133  0.38449476  0.62537054  1
  O  O352  1  0.65216711  0.88975399  0.11800219  1
  O  O353  1  0.62830765  0.87845361  0.63039283  1
  O  O354  1  0.12569052  0.25033517  0.25047362  1
  O  O355  1  0.18001929  0.30876167  0.73358552  1
  O  O356  1  0.11746487  0.74815029  0.25682540  1
  O  O357  1  0.09691221  0.74205996  0.77000001  1
  O  O358  1  0.62155061  0.25751928  0.25771063  1
  O  O359  1  0.60470088  0.23973635  0.75279839  1
  O  O360  1  0.67648173  0.75824662  0.28559571  1
  O  O361  1  0.61883844  0.75733349  0.74579916  1
  O  O362  1  0.39030547  0.25059668  0.25048446  1
  O  O363  1  0.38449592  0.25112688  0.72926359  1
  O  O364  1  0.36612444  0.73816604  0.23891121  1
  O  O365  1  0.39433272  0.75616923  0.72848192  1
  O  O366  1  0.88065656  0.24978090  0.23567988  1
  O  O367  1  0.86777139  0.22844185  0.73726576  1
  O  O368  1  0.88060243  0.74451653  0.25189673  1
  O  O369  1  0.87424310  0.75225500  0.75143669  1
  O  O370  1  0.36283550  0.47974605  0.48769367  1
  O  O371  1  0.38001492  0.50349618  0.99963831  1
  O  O372  1  0.37870461  0.98210750  0.48913618  1
  O  O373  1  0.39660385  0.98836741  1.01378771  1
  O  O374  1  0.88537360  0.53584895  0.50646683  1
  O  O375  1  0.87644304  0.50140906  0.98860957  1
  O  O376  1  0.86997793  0.99938544  0.49014925  1
  O  O377  1  0.87221900  1.01494636  0.98581459  1
  O  O378  1  0.13265835  0.00528828  0.01336879  1
  O  O379  1  0.12224355  -0.01050607  0.50596127  1
  O  O380  1  0.13409412  0.51612304  0.00565652  1
  O  O381  1  0.13977086  0.51480388  0.50347501  1
  O  O382  1  0.61795627  0.00528233  0.01004740  1
  O  O383  1  0.63657088  0.00635443  0.50691971  1
  O  O384  1  0.61735900  0.50060769  0.02283956  1
  O  O385  1  0.61684878  0.49955762  0.51107672  1
  O  O386  1  0.36130406  0.37895494  0.12091553  1
  O  O387  1  0.36920107  0.35589850  0.60616303  1
  O  O388  1  0.36358540  0.86454138  0.13122575  1
  O  O389  1  0.38971306  0.86159463  0.60088512  1
  O  O390  1  0.86860277  0.36303410  0.12087859  1
  O  O391  1  0.86040570  0.35496557  0.63488085  1
  O  O392  1  0.87228570  0.87040284  0.12554476  1
  O  O393  1  0.86615716  0.86141411  0.62299120  1
  O  O394  1  0.13790946  0.11447075  0.37627136  1
  O  O395  1  0.14414846  0.16025739  0.81380616  1
  O  O396  1  0.13890259  0.63098402  0.37259175  1
  O  O397  1  0.13217462  0.64071025  0.88692978  1
  O  O398  1  0.62194822  0.13501314  0.38063961  1
  O  O399  1  0.63006305  0.11071493  0.88613892  1
  O  O400  1  0.62594296  0.59780114  0.38018177  1
  O  O401  1  0.63228363  0.64780884  0.88415769  1
