# generated using pymatgen
data_V73Zn73O256
_symmetry_space_group_name_H-M   'P 1'
_cell_length_a   16.87867172
_cell_length_b   16.87416587
_cell_length_c   16.87836016
_cell_angle_alpha   90.06348511
_cell_angle_beta   90.02867614
_cell_angle_gamma   90.05923535
_symmetry_Int_Tables_number   1
_chemical_formula_structural   V73Zn73O256
_chemical_formula_sum   'V73 Zn73 O256'
_cell_volume   4807.17881355
_cell_formula_units_Z   1
loop_
 _symmetry_equiv_pos_site_id
 _symmetry_equiv_pos_as_xyz
  1  'x, y, z'
loop_
 _atom_site_type_symbol
 _atom_site_label
 _atom_site_symmetry_multiplicity
 _atom_site_fract_x
 _atom_site_fract_y
 _atom_site_fract_z
 _atom_site_occupancy
  V  V0  1  0.62163886  0.37391372  0.25040631  1
  V  V1  1  0.74682403  0.25275275  0.50534595  1
  V  V2  1  0.48748942  0.39807366  0.88370404  1
  V  V3  1  0.38777439  0.61744556  0.74242070  1
  V  V4  1  0.21473122  0.84165933  0.64107451  1
  V  V5  1  0.87194931  0.75085826  0.62052931  1
  V  V6  1  -0.00330307  0.87750743  0.39418450  1
  V  V7  1  0.11507147  0.12373292  0.50167162  1
  V  V8  1  0.37819286  0.87681535  0.50333053  1
  V  V9  1  0.36851802  0.51583641  0.37464239  1
  V  V10  1  0.00807386  0.62709107  0.64470130  1
  V  V11  1  0.61431875  0.37535847  0.76342365  1
  V  V12  1  0.61845292  0.63620663  -0.00285111  1
  V  V13  1  0.74141142  0.64754208  0.38197802  1
  V  V14  1  0.37514108  -0.00552146  0.38090805  1
  V  V15  1  0.39750278  0.74713755  0.62180136  1
  V  V16  1  0.37459745  0.72120272  0.12606685  1
  V  V17  1  0.49884261  0.73747366  0.25324178  1
  V  V18  1  0.00120564  0.51295621  0.49546062  1
  V  V19  1  0.00163091  0.37952134  0.84452116  1
  V  V20  1  0.88575986  0.13899006  0.24771756  1
  V  V21  1  0.86726028  0.63364680  0.23619288  1
  V  V22  1  0.84535557  0.62514665  0.75591901  1
  V  V23  1  0.11387549  0.00119903  0.11216414  1
  V  V24  1  0.23841915  0.62312759  0.35468571  1
  V  V25  1  0.87913838  0.85299635  0.01881432  1
  V  V26  1  0.25150402  0.73521369  0.49933103  1
  V  V27  1  0.62394288  0.25262722  0.37932923  1
  V  V28  1  0.11805846  0.87494485  0.25335039  1
  V  V29  1  -0.00068613  0.13273553  0.63296109  1
  V  V30  1  0.24335365  0.12651501  0.37981188  1
  V  V31  1  0.48986960  0.38079303  0.38647518  1
  V  V32  1  0.88738189  0.36591025  0.00590991  1
  V  V33  1  -0.00099429  0.37228847  0.36591897  1
  V  V34  1  -0.00934470  0.75005689  0.23912107  1
  V  V35  1  0.74555938  0.50309009  0.25091521  1
  V  V36  1  0.60505645  0.63115586  0.50349136  1
  V  V37  1  0.74747836  0.39049342  0.63813580  1
  V  V38  1  0.25087811  0.49050264  0.75607512  1
  V  V39  1  0.02049748  0.86106152  0.86785066  1
  V  V40  1  0.63861216  0.88005914  0.75020859  1
  V  V41  1  0.63117319  0.01422715  0.62451867  1
  V  V42  1  0.88034067  -0.00087002  0.38667980  1
  V  V43  1  0.14794616  0.38029628  0.23652357  1
  V  V44  1  0.23893938  0.00165759  0.25639902  1
  V  V45  1  0.24961524  0.25511033  0.50072476  1
  V  V46  1  0.74619284  0.36282399  0.11493972  1
  V  V47  1  0.12036567  0.00443553  0.62963222  1
  V  V48  1  0.87401183  0.38115296  0.49992643  1
  V  V49  1  0.64070894  0.74742289  0.87658668  1
  V  V50  1  0.89115372  -0.00456206  0.89604952  1
  V  V51  1  0.11734728  0.62364319  -0.01013285  1
  V  V52  1  0.11997625  0.74470549  0.38423879  1
  V  V53  1  0.48937746  0.87992015  0.88904306  1
  V  V54  1  0.75667056  0.87699111  0.61143832  1
  V  V55  1  0.25821036  0.87722545  0.12524056  1
  V  V56  1  0.73959317  0.00189821  0.24507087  1
  V  V57  1  0.12839299  0.49343086  0.62046907  1
  V  V58  1  0.52223289  0.11791909  0.10114042  1
  V  V59  1  0.14213210  0.24211171  0.86788627  1
  V  V60  1  0.39947277  0.12492075  0.74865514  1
  V  V61  1  0.74908582  0.12803307  0.89177880  1
  V  V62  1  0.60768745  0.50360475  0.11495430  1
  V  V63  1  0.75105203  0.13087957  0.37846570  1
  V  V64  1  0.00238320  0.13802248  0.11116404  1
  V  V65  1  0.37388932  0.13226915  0.24832011  1
  V  V66  1  0.39048394  0.24291091  0.61861124  1
  V  V67  1  0.25459858  0.37651157  0.61993924  1
  V  V68  1  0.25755166  0.01539973  0.74540562  1
  V  V69  1  0.86492152  0.50760310  0.88509137  1
  V  V70  1  0.87103922  0.11316465  0.75324798  1
  V  V71  1  0.87822229  0.25607378  0.63829601  1
  V  V72  1  0.25751593  0.63446792  0.87232210  1
  Zn  Zn73  1  0.09283096  0.49920866  0.10573579  1
  Zn  Zn74  1  0.87121632  0.50810524  0.37369717  1
  Zn  Zn75  1  0.60595792  0.50953861  0.62570973  1
  Zn  Zn76  1  0.51066972  0.00305040  0.50893595  1
  Zn  Zn77  1  0.62019041  0.87281708  0.26947015  1
  Zn  Zn78  1  0.49533536  0.24748968  0.24497820  1
  Zn  Zn79  1  0.11416038  0.24964131  0.36939581  1
  Zn  Zn80  1  0.25196743  0.76615798  -0.01491654  1
  Zn  Zn81  1  0.50404816  0.75220852  0.75535864  1
  Zn  Zn82  1  0.17386657  0.19105304  0.19174800  1
  Zn  Zn83  1  0.18567122  0.19661435  0.69332052  1
  Zn  Zn84  1  0.17402860  0.69504382  0.17888252  1
  Zn  Zn85  1  0.19670581  0.67081133  0.67920654  1
  Zn  Zn86  1  0.68421220  0.17919162  0.18799514  1
  Zn  Zn87  1  0.69313081  0.19569245  0.70142935  1
  Zn  Zn88  1  0.67490358  0.68379171  0.18886930  1
  Zn  Zn89  1  0.67939646  0.69747149  0.67824615  1
  Zn  Zn90  1  0.30948148  0.31435736  0.31575593  1
  Zn  Zn91  1  0.32296588  0.30171221  0.81050440  1
  Zn  Zn92  1  0.31419477  0.80918849  0.30994340  1
  Zn  Zn93  1  0.31499780  0.81331348  0.80342479  1
  Zn  Zn94  1  0.81099845  0.31785750  0.31085881  1
  Zn  Zn95  1  0.81088408  0.31432092  0.82312243  1
  Zn  Zn96  1  0.81115086  0.82144747  0.31015428  1
  Zn  Zn97  1  0.82845615  0.81156911  0.81287606  1
  Zn  Zn98  1  0.18359074  0.44279647  0.43530490  1
  Zn  Zn99  1  0.17441533  0.42184956  0.93915247  1
  Zn  Zn100  1  0.19035129  0.92982899  0.45023485  1
  Zn  Zn101  1  0.23172612  0.97601604  0.95299032  1
  Zn  Zn102  1  0.68205111  0.44588125  0.44237438  1
  Zn  Zn103  1  0.68835518  0.44328726  0.93831170  1
  Zn  Zn104  1  0.69508280  0.94281440  0.43941072  1
  Zn  Zn105  1  0.71812630  0.92342786  0.91451945  1
  Zn  Zn106  1  0.36431575  0.02207950  0.08925814  1
  Zn  Zn107  1  0.30884273  0.06439082  0.56609010  1
  Zn  Zn108  1  0.26529726  0.57354989  0.08292015  1
  Zn  Zn109  1  0.43127576  0.54786824  0.55579701  1
  Zn  Zn110  1  0.81785229  0.06114214  0.06621041  1
  Zn  Zn111  1  0.80980314  0.06491186  0.56817192  1
  Zn  Zn112  1  0.79800650  0.56219512  0.05909258  1
  Zn  Zn113  1  0.81201295  0.57077022  0.56111148  1
  Zn  Zn114  1  0.43919917  0.45524666  0.20902131  1
  Zn  Zn115  1  0.43580754  0.42444509  0.69362688  1
  Zn  Zn116  1  0.45323721  0.95217086  0.21898762  1
  Zn  Zn117  1  0.44911481  0.93566858  0.68991070  1
  Zn  Zn118  1  0.92871876  0.44008997  0.18025594  1
  Zn  Zn119  1  0.92784276  0.45283096  0.68456914  1
  Zn  Zn120  1  0.92985644  0.94535290  0.19309729  1
  Zn  Zn121  1  0.94757178  0.93301296  0.69118728  1
  Zn  Zn122  1  0.05663341  0.06428578  0.31514973  1
  Zn  Zn123  1  0.06760659  0.06675778  0.81847228  1
  Zn  Zn124  1  0.04052408  0.54396927  0.27632737  1
  Zn  Zn125  1  0.07051087  0.54310192  0.82310830  1
  Zn  Zn126  1  0.55545760  0.06115319  0.33681058  1
  Zn  Zn127  1  0.56999004  0.05537522  0.81470425  1
  Zn  Zn128  1  0.56371084  0.56167753  0.31787648  1
  Zn  Zn129  1  0.57086746  0.55770741  0.81324878  1
  Zn  Zn130  1  0.43903182  0.18256407  0.43778627  1
  Zn  Zn131  1  0.42288436  0.05722562  0.93101041  1
  Zn  Zn132  1  0.43297678  0.69179372  0.42675231  1
  Zn  Zn133  1  0.44189653  0.69247087  0.94064276  1
  Zn  Zn134  1  0.93228114  0.19028181  0.44434804  1
  Zn  Zn135  1  0.94932303  0.19580002  0.92871476  1
  Zn  Zn136  1  0.92871645  0.69049638  0.43049646  1
  Zn  Zn137  1  0.93681378  0.69112663  0.93266305  1
  Zn  Zn138  1  0.07958022  0.31249030  0.05323065  1
  Zn  Zn139  1  0.06175248  0.31554043  0.56070551  1
  Zn  Zn140  1  0.06634001  0.81086426  0.04692650  1
  Zn  Zn141  1  0.05978647  0.80300442  0.57200907  1
  Zn  Zn142  1  0.54456284  0.31257668  0.06805915  1
  Zn  Zn143  1  0.56634790  0.32414656  0.56446257  1
  Zn  Zn144  1  0.52454681  0.83947417  0.09355358  1
  Zn  Zn145  1  0.56361418  0.81509836  0.43439431  1
  O  O146  1  0.11208395  0.10953431  0.13434650  1
  O  O147  1  0.11730923  0.12538166  0.62082393  1
  O  O148  1  0.15650995  0.60844919  0.10645041  1
  O  O149  1  0.11155414  0.61735571  0.62155098  1
  O  O150  1  0.62245991  0.11413248  0.11600301  1
  O  O151  1  0.64500836  0.11233861  0.63804673  1
  O  O152  1  0.61927345  0.61158513  0.11575538  1
  O  O153  1  0.62302854  0.62817650  0.60945615  1
  O  O154  1  0.38899330  0.36775843  0.37929681  1
  O  O155  1  0.39033174  0.37065401  0.86875975  1
  O  O156  1  0.34318562  0.88357055  0.39477253  1
  O  O157  1  0.39011398  0.86796636  0.86843190  1
  O  O158  1  0.87802988  0.37888258  0.38648981  1
  O  O159  1  0.88341006  0.38157452  0.88851596  1
  O  O160  1  0.88040036  0.89101559  0.37521228  1
  O  O161  1  0.88642058  0.88758870  0.87935267  1
  O  O162  1  0.24557488  0.00765280  0.37471984  1
  O  O163  1  0.24651892  -0.01215605  0.84106120  1
  O  O164  1  0.24996050  0.51853669  0.37898399  1
  O  O165  1  0.24808164  0.49996531  0.85667844  1
  O  O166  1  0.76209001  0.01495351  0.37322791  1
  O  O167  1  0.78258302  0.01283249  0.87667267  1
  O  O168  1  0.74673878  0.50080082  0.36009276  1
  O  O169  1  0.76699701  0.48664458  0.86797096  1
  O  O170  1  0.28238512  0.45516490  0.07253284  1
  O  O171  1  0.24354217  0.48673518  0.62377177  1
  O  O172  1  0.22985438  0.99227588  0.14239816  1
  O  O173  1  0.23477983  1.00204044  0.63026796  1
  O  O174  1  0.73267869  0.49176236  0.13567963  1
  O  O175  1  0.75485603  0.49012147  0.62241879  1
  O  O176  1  0.75478816  1.00962217  0.14615444  1
  O  O177  1  0.75069005  0.98524038  0.62748562  1
  O  O178  1  -0.01581327  0.37641431  0.26698977  1
  O  O179  1  -0.01741670  0.37374702  0.74618967  1
  O  O180  1  0.00343776  0.86712449  0.26223623  1
  O  O181  1  0.01035958  0.87854797  0.76473628  1
  O  O182  1  0.50905418  0.36886437  0.25712530  1
  O  O183  1  0.50682658  0.37008271  0.76847009  1
  O  O184  1  0.52113221  0.86456879  0.20705214  1
  O  O185  1  0.51818470  0.87334027  0.75904184  1
  O  O186  1  0.47849713  0.12238523  0.25885304  1
  O  O187  1  0.49926075  0.11648052  0.74469674  1
  O  O188  1  0.49732541  0.63685461  0.25961899  1
  O  O189  1  0.48889092  0.62328057  0.75368544  1
  O  O190  1  0.98983326  0.13031485  0.25107783  1
  O  O191  1  0.99229545  0.12861215  0.73867371  1
  O  O192  1  0.98354999  0.64525645  0.26235695  1
  O  O193  1  1.00875247  0.61739766  0.74314884  1
  O  O194  1  0.30841009  0.22063813  0.00511700  1
  O  O195  1  0.36220361  0.23911369  0.50740015  1
  O  O196  1  0.36485247  0.74109267  0.02050694  1
  O  O197  1  0.37153341  0.75543503  0.50567817  1
  O  O198  1  0.88132635  0.26711154  -0.00287888  1
  O  O199  1  0.86617671  0.26354071  0.51094374  1
  O  O200  1  0.87465938  0.75212805  0.00582511  1
  O  O201  1  0.87775360  0.74404751  0.52092561  1
  O  O202  1  0.13177001  0.24108048  0.49883945  1
  O  O203  1  0.14419520  0.30920951  0.96019743  1
  O  O204  1  0.13303867  0.75463962  0.49096678  1
  O  O205  1  0.14247047  0.72958107  1.01075386  1
  O  O206  1  0.63684079  0.26088651  0.49206241  1
  O  O207  1  0.61271985  0.23870970  0.96884608  1
  O  O208  1  0.61471087  0.73249998  0.49222572  1
  O  O209  1  0.62240168  0.74121503  0.98645209  1
  O  O210  1  0.50632521  0.22443091  0.12920095  1
  O  O211  1  0.48899838  0.25357596  0.60867751  1
  O  O212  1  0.48034509  0.73245110  0.12941253  1
  O  O213  1  0.49519107  0.74728809  0.62353501  1
  O  O214  1  1.02054641  0.23656558  0.11920985  1
  O  O215  1  0.98811396  0.24598767  0.61868523  1
  O  O216  1  1.01124780  0.75225843  0.14268437  1
  O  O217  1  0.98954738  0.73296417  0.62811118  1
  O  O218  1  -0.00482223  0.26861993  0.38754904  1
  O  O219  1  0.01080039  0.27995208  0.87953228  1
  O  O220  1  0.00433212  0.75933218  0.37351715  1
  O  O221  1  0.00278864  0.75911254  0.87021125  1
  O  O222  1  0.51027609  0.26021593  0.37676157  1
  O  O223  1  0.57196581  0.23265316  0.90851163  1
  O  O224  1  0.48498020  0.76568293  0.35595520  1
  O  O225  1  0.51077605  0.76415679  0.87482231  1
  O  O226  1  0.23911974  0.13333322  0.49500883  1
  O  O227  1  0.25223155  0.19605904  1.04649596  1
  O  O228  1  0.25076076  0.63710444  0.49290032  1
  O  O229  1  0.26328333  0.61688032  0.97280752  1
  O  O230  1  0.76152672  0.14245208  0.49199076  1
  O  O231  1  0.76328525  0.12562650  0.99204462  1
  O  O232  1  0.75126013  0.63017804  0.48376702  1
  O  O233  1  0.71991455  0.61060511  0.99436270  1
  O  O234  1  0.28679334  0.42486046  0.00247027  1
  O  O235  1  0.24316491  0.36424272  0.50285162  1
  O  O236  1  0.24156031  0.87726883  0.02251210  1
  O  O237  1  0.24953378  0.86099057  0.52602904  1
  O  O238  1  0.75060811  0.37585608  0.01184247  1
  O  O239  1  0.75639682  0.37278828  0.50746100  1
  O  O240  1  0.78197576  0.88469404  -0.00206513  1
  O  O241  1  0.75662185  0.87414763  0.51259408  1
  O  O242  1  0.13236955  0.47871407  0.26399176  1
  O  O243  1  0.14420044  0.51009951  0.73240184  1
  O  O244  1  0.12468900  0.99039139  0.25587290  1
  O  O245  1  0.13482874  1.01381487  0.73484209  1
  O  O246  1  0.62561770  0.49188263  0.24318612  1
  O  O247  1  0.62085315  0.48382857  0.74120545  1
  O  O248  1  0.63852063  1.01697600  0.26202410  1
  O  O249  1  0.63074582  0.98584276  0.74088696  1
  O  O250  1  0.35033840  0.00897083  0.26035803  1
  O  O251  1  0.36807954  0.01374796  0.72844306  1
  O  O252  1  0.35774670  0.48622771  0.27422248  1
  O  O253  1  0.36332695  0.51120051  0.73789187  1
  O  O254  1  0.86598329  0.01323286  0.26379667  1
  O  O255  1  0.88109948  0.01344760  0.74498119  1
  O  O256  1  0.85865012  0.51341914  0.24989264  1
  O  O257  1  0.86997807  0.52148727  0.75385396  1
  O  O258  1  0.10800520  0.37559926  0.37385823  1
  O  O259  1  0.09911842  0.41393073  0.84923770  1
  O  O260  1  0.11809880  0.86852637  0.37221174  1
  O  O261  1  0.11595346  0.87573256  0.89028960  1
  O  O262  1  0.61987763  0.37241620  0.36740930  1
  O  O263  1  0.61804799  0.38507366  0.86715150  1
  O  O264  1  0.61312546  0.89796565  0.37968115  1
  O  O265  1  0.62516724  0.87031609  0.86972276  1
  O  O266  1  0.35483535  0.12365788  0.15010417  1
  O  O267  1  0.37859721  0.13584082  0.62343531  1
  O  O268  1  0.35579141  0.62302648  0.13413683  1
  O  O269  1  0.38125462  0.63344090  0.63117107  1
  O  O270  1  0.89161598  0.12216600  0.13883753  1
  O  O271  1  0.87939998  0.13441772  0.63403030  1
  O  O272  1  0.85382851  0.62857045  0.13743686  1
  O  O273  1  0.87980084  0.63056812  0.63884564  1
  O  O274  1  0.22373731  0.25081272  0.10366377  1
  O  O275  1  0.24898728  0.25809754  0.61605570  1
  O  O276  1  0.26182694  0.76867567  0.13879378  1
  O  O277  1  0.26887298  0.74493277  0.61626443  1
  O  O278  1  0.73800838  0.26434942  0.12811389  1
  O  O279  1  0.75803909  0.26173947  0.62008519  1
  O  O280  1  0.72514402  0.76442745  0.11520839  1
  O  O281  1  0.76335742  0.76091134  0.62866722  1
  O  O282  1  0.24657299  0.24119225  0.38474524  1
  O  O283  1  0.24444598  0.24164764  0.86290171  1
  O  O284  1  0.24159720  0.74077355  0.37762739  1
  O  O285  1  0.25155554  0.73974132  0.86816958  1
  O  O286  1  0.74611447  0.25124685  0.38468182  1
  O  O287  1  0.75614763  0.22916429  0.87212261  1
  O  O288  1  0.74481673  0.74684301  0.36930689  1
  O  O289  1  0.73963624  0.75703336  0.87448293  1
  O  O290  1  -0.00674976  0.12772101  0.01263766  1
  O  O291  1  0.00656784  0.13090227  0.51192651  1
  O  O292  1  0.01869746  0.62851991  -0.00855054  1
  O  O293  1  -0.01162951  0.61485344  0.49950387  1
  O  O294  1  0.49999239  0.11609392  0.00301448  1
  O  O295  1  0.50094818  0.08869156  0.43812777  1
  O  O296  1  0.51632849  0.62017769  -0.00996791  1
  O  O297  1  0.49993565  0.62242934  0.49027332  1
  O  O298  1  0.50949879  0.38173516  0.48383726  1
  O  O299  1  0.50718985  0.36773350  0.97987253  1
  O  O300  1  0.48047276  0.88260583  0.49232087  1
  O  O301  1  0.49631914  0.87536487  0.99056274  1
  O  O302  1  0.98909795  0.38812520  0.49793032  1
  O  O303  1  0.98516660  0.38389434  1.02039283  1
  O  O304  1  1.00228702  0.86994200  0.49313554  1
  O  O305  1  0.98788262  0.86790440  0.98813476  1
  O  O306  1  0.48491690  0.49006586  0.36472301  1
  O  O307  1  0.49362629  0.49777133  0.87798192  1
  O  O308  1  0.46682931  0.97164248  0.34050393  1
  O  O309  1  0.49992274  0.98723668  0.87597377  1
  O  O310  1  0.99320746  0.49182771  0.38007938  1
  O  O311  1  0.97539613  0.48983649  0.86654675  1
  O  O312  1  0.98837027  0.99367687  0.37532803  1
  O  O313  1  0.99318390  0.99778480  0.87059624  1
  O  O314  1  0.01067483  0.00344845  0.12898869  1
  O  O315  1  0.01262476  0.01325296  0.62850444  1
  O  O316  1  0.00335377  0.52015472  0.16694176  1
  O  O317  1  0.00409844  0.51239435  0.61813758  1
  O  O318  1  0.47742650  0.02483084  0.13022026  1
  O  O319  1  0.52497219  -0.00330549  0.62488916  1
  O  O320  1  0.50832128  0.49015797  0.12977914  1
  O  O321  1  0.49465700  0.48284192  0.61963304  1
  O  O322  1  0.24803535  0.37433209  0.24398719  1
  O  O323  1  0.25942347  0.38627352  0.74007152  1
  O  O324  1  0.23582291  0.88173406  0.24988007  1
  O  O325  1  0.25931877  0.88068733  0.72470797  1
  O  O326  1  0.74059323  0.38231770  0.24203376  1
  O  O327  1  0.75247495  0.37710610  0.74040913  1
  O  O328  1  0.74086177  0.89659100  0.26129822  1
  O  O329  1  0.74146497  0.87231924  0.75991414  1
  O  O330  1  0.24166862  0.12071108  0.26369677  1
  O  O331  1  0.25815040  0.11778728  0.74197231  1
  O  O332  1  0.24009905  0.63099180  0.25658878  1
  O  O333  1  0.26008263  0.61524471  0.75492383  1
  O  O334  1  0.76155929  0.12368975  0.26058830  1
  O  O335  1  0.76919411  0.12510719  0.75556116  1
  O  O336  1  0.74667494  0.62276707  0.25839191  1
  O  O337  1  0.74723471  0.62625103  0.74562098  1
  O  O338  1  0.35553473  0.11471198  0.37140646  1
  O  O339  1  0.38380285  0.12846207  0.84720157  1
  O  O340  1  0.35802663  0.62218685  0.36935604  1
  O  O341  1  0.36783796  0.63367078  0.85458216  1
  O  O342  1  0.87277823  0.12200248  0.36869023  1
  O  O343  1  0.88526115  0.11950195  0.86405865  1
  O  O344  1  0.85566111  0.62839735  0.36303049  1
  O  O345  1  0.86942778  0.61785782  0.86755813  1
  O  O346  1  0.12499783  0.38627874  0.13353548  1
  O  O347  1  0.13345601  0.38374038  0.62259132  1
  O  O348  1  0.12519235  0.88270354  0.13744750  1
  O  O349  1  0.12121180  0.89876240  0.61087874  1
  O  O350  1  0.62743616  0.37948116  0.13085272  1
  O  O351  1  0.64072468  0.37967751  0.63034322  1
  O  O352  1  0.69843383  0.83901299  0.12731440  1
  O  O353  1  0.64870596  0.87255233  0.63931838  1
  O  O354  1  0.12598132  0.27313114  0.25571324  1
  O  O355  1  0.12334434  0.25602021  0.76641423  1
  O  O356  1  0.11297252  0.75775164  0.26033640  1
  O  O357  1  0.14509852  0.77738191  0.68023302  1
  O  O358  1  0.62677825  0.25899246  0.26136964  1
  O  O359  1  0.63106661  0.27535730  0.74769043  1
  O  O360  1  0.60549059  0.75146309  0.24838949  1
  O  O361  1  0.62469957  0.75874844  0.76016216  1
  O  O362  1  0.37244277  0.23584970  0.26051195  1
  O  O363  1  0.37825174  0.23555208  0.72975509  1
  O  O364  1  0.38434966  0.76049118  0.23404374  1
  O  O365  1  0.37965030  0.74005751  0.73343470  1
  O  O366  1  0.86963872  0.23781286  0.25360601  1
  O  O367  1  0.87102670  0.24548208  0.74077845  1
  O  O368  1  0.88348857  0.75231992  0.25059146  1
  O  O369  1  0.87324538  0.73081895  0.74447319  1
  O  O370  1  0.36990030  0.49577689  0.47509398  1
  O  O371  1  0.38536354  0.32919602  1.07672205  1
  O  O372  1  0.36786410  0.99265311  0.49608259  1
  O  O373  1  0.33050840  1.02403623  0.98536518  1
  O  O374  1  0.87985734  0.49485918  0.49933596  1
  O  O375  1  0.86807973  0.49871633  0.99032518  1
  O  O376  1  0.87238934  1.01129724  0.48557336  1
  O  O377  1  0.89175704  1.00089089  0.99656945  1
  O  O378  1  0.13158482  0.00008960  0.01490981  1
  O  O379  1  0.13265667  0.01706169  0.51091218  1
  O  O380  1  0.13136544  0.51323141  -0.00273260  1
  O  O381  1  0.11272850  0.49864115  0.50904314  1
  O  O382  1  0.64451254  -0.13283739  0.07815260  1
  O  O383  1  0.63629913  0.00267089  0.52061028  1
  O  O384  1  0.61769069  0.49536577  0.01374997  1
  O  O385  1  0.62639226  0.52060862  0.50405710  1
  O  O386  1  0.36273546  0.36796663  0.13471260  1
  O  O387  1  0.36346986  0.35585177  0.62735311  1
  O  O388  1  0.35614795  0.90141051  0.13300835  1
  O  O389  1  0.38313493  0.85967604  0.61864992  1
  O  O390  1  0.85588415  0.38020957  0.11673634  1
  O  O391  1  0.86586190  0.37418210  0.61933681  1
  O  O392  1  0.88680185  0.87187872  0.11920813  1
  O  O393  1  0.87004703  0.86181343  0.63739923  1
  O  O394  1  0.12624100  0.12772313  0.38348857  1
  O  O395  1  0.11410680  0.14505491  0.88729366  1
  O  O396  1  0.13076954  0.63645891  0.36938894  1
  O  O397  1  0.14089555  0.61946632  0.88043384  1
  O  O398  1  0.64223948  0.14199808  0.37012566  1
  O  O399  1  0.65184204  0.10355140  0.87483314  1
  O  O400  1  0.63581367  0.62268034  0.38279846  1
  O  O401  1  0.62252184  0.64076896  0.87589159  1
