# generated using pymatgen
data_V73Zn73O256
_symmetry_space_group_name_H-M   'P 1'
_cell_length_a   16.84130780
_cell_length_b   16.84138803
_cell_length_c   16.83273691
_cell_angle_alpha   89.96605939
_cell_angle_beta   89.92364343
_cell_angle_gamma   90.02881192
_symmetry_Int_Tables_number   1
_chemical_formula_structural   V73Zn73O256
_chemical_formula_sum   'V73 Zn73 O256'
_cell_volume   4774.28031535
_cell_formula_units_Z   1
loop_
 _symmetry_equiv_pos_site_id
 _symmetry_equiv_pos_as_xyz
  1  'x, y, z'
loop_
 _atom_site_type_symbol
 _atom_site_label
 _atom_site_symmetry_multiplicity
 _atom_site_fract_x
 _atom_site_fract_y
 _atom_site_fract_z
 _atom_site_occupancy
  V  V0  1  0.63731835  0.38115777  0.74622979  1
  V  V1  1  0.26213916  0.73920870  0.49533608  1
  V  V2  1  0.49849463  0.37493610  0.87153949  1
  V  V3  1  0.87108279  0.01269828  0.38584066  1
  V  V4  1  0.62933034  0.62704444  -0.00765356  1
  V  V5  1  0.49361045  0.62877883  0.12546640  1
  V  V6  1  0.37113710  0.35976919  0.50021399  1
  V  V7  1  0.13632067  0.24490240  0.88763559  1
  V  V8  1  0.26828222  0.61578283  0.87464842  1
  V  V9  1  0.23636889  0.36758434  0.12809111  1
  V  V10  1  0.86755988  -0.01271597  0.88752078  1
  V  V11  1  0.74715253  0.63331357  0.37058529  1
  V  V12  1  0.62115679  0.01296646  0.11858933  1
  V  V13  1  0.50466390  0.37336701  0.35993451  1
  V  V14  1  0.61977774  0.87526648  0.25235813  1
  V  V15  1  0.36517787  0.50195828  0.37263505  1
  V  V16  1  0.50039768  0.86244344  0.86531273  1
  V  V17  1  0.49193045  0.87316420  0.38137547  1
  V  V18  1  0.49313788  0.50148182  -0.00952039  1
  V  V19  1  0.00208576  0.23506787  0.25846845  1
  V  V20  1  0.76467692  0.50311968  0.25227042  1
  V  V21  1  -0.00577030  0.62808283  0.62061583  1
  V  V22  1  0.61840179  0.63564309  0.49271043  1
  V  V23  1  0.36994305  0.12067338  0.75685035  1
  V  V24  1  0.49503308  0.75370081  0.24623209  1
  V  V25  1  0.63233712  0.23363067  0.37627820  1
  V  V26  1  -0.02321361  0.37816411  0.37512270  1
  V  V27  1  0.49519594  0.50149946  0.50871526  1
  V  V28  1  0.74026846  0.23697570  -0.01568457  1
  V  V29  1  0.86525119  0.52289451  0.86572461  1
  V  V30  1  0.36939297  0.36772239  0.00549446  1
  V  V31  1  0.87132596  0.37491480  -0.00063999  1
  V  V32  1  0.36827672  0.62855969  0.25087316  1
  V  V33  1  0.49320453  0.73760278  0.72584059  1
  V  V34  1  0.23705313  0.13707196  0.38860849  1
  V  V35  1  -0.00772425  0.74136767  0.74795009  1
  V  V36  1  0.63925406  0.87697769  0.74521787  1
  V  V37  1  0.74453595  0.37244174  0.12722041  1
  V  V38  1  0.24845890  0.36218236  0.61866464  1
  V  V39  1  -0.00159013  0.11649038  0.10353386  1
  V  V40  1  -0.00698775  0.88440717  0.39550554  1
  V  V41  1  0.12565463  0.00334302  0.61434587  1
  V  V42  1  -0.03329383  0.74837935  0.25801483  1
  V  V43  1  0.62113840  0.49796498  0.13365648  1
  V  V44  1  0.12647567  0.74228113  0.38545552  1
  V  V45  1  0.25188501  0.00547712  0.24565009  1
  V  V46  1  0.26643215  0.88013270  0.60916153  1
  V  V47  1  0.49124987  0.22997713  0.23361560  1
  V  V48  1  0.38683561  0.86467947  0.01009031  1
  V  V49  1  0.63701756  0.00597238  0.62117800  1
  V  V50  1  0.74895183  0.74832104  -0.01242504  1
  V  V51  1  0.86845043  0.10972614  0.76060143  1
  V  V52  1  0.00399253  0.50798495  0.01166516  1
  V  V53  1  0.85051058  0.25325805  0.63543811  1
  V  V54  1  0.50181759  0.00994337  -0.00859139  1
  V  V55  1  0.00349715  0.24449134  0.75336217  1
  V  V56  1  0.12525183  0.87235025  0.25202273  1
  V  V57  1  0.75719316  0.01404106  0.25055609  1
  V  V58  1  -0.00120241  0.37729389  0.87429803  1
  V  V59  1  0.13755554  0.86992517  0.74729654  1
  V  V60  1  0.64716368  0.50056174  0.61975229  1
  V  V61  1  0.49870223  0.12850406  0.61379450  1
  V  V62  1  0.37220971  0.00843520  0.38519909  1
  V  V63  1  0.11795795  -0.00712924  0.11715358  1
  V  V64  1  0.26182717  0.74962925  0.01055798  1
  V  V65  1  -0.02410191  0.49657785  0.50270658  1
  V  V66  1  0.25829100  0.49933595  0.75375938  1
  V  V67  1  0.13846077  0.73982153  0.86732415  1
  V  V68  1  0.49332041  0.25222429  0.74480390  1
  V  V69  1  0.13030428  0.50969531  0.61597395  1
  V  V70  1  0.00494125  0.12396287  0.61703736  1
  V  V71  1  0.23404396  0.50053538  0.24274671  1
  V  V72  1  0.75277667  0.86247706  0.13237058  1
  Zn  Zn73  1  0.13118064  0.61523218  0.01328717  1
  Zn  Zn74  1  0.25466135  -0.00141831  0.76137479  1
  Zn  Zn75  1  0.33962533  0.20155638  0.09839175  1
  Zn  Zn76  1  0.25445781  0.11635879  -0.08772220  1
  Zn  Zn77  1  0.50650060  0.00449361  0.49608919  1
  Zn  Zn78  1  0.86786853  0.23010918  0.12780193  1
  Zn  Zn79  1  0.89481841  0.86374932  0.01796454  1
  Zn  Zn80  1  0.01742826  0.87807205  0.90096812  1
  Zn  Zn81  1  0.12431436  0.37541546  0.74813082  1
  Zn  Zn82  1  0.17431093  0.18457164  0.19051639  1
  Zn  Zn83  1  0.18382854  0.18758709  0.69241262  1
  Zn  Zn84  1  0.18301319  0.68764295  0.19053986  1
  Zn  Zn85  1  0.21896587  0.68330471  0.67714960  1
  Zn  Zn86  1  0.67514190  0.19545073  0.19316046  1
  Zn  Zn87  1  0.67191185  0.17719801  0.72420334  1
  Zn  Zn88  1  0.68063762  0.68395750  0.19233482  1
  Zn  Zn89  1  0.69652944  0.71256450  0.67409771  1
  Zn  Zn90  1  0.31277116  0.31049441  0.30437147  1
  Zn  Zn91  1  0.31641286  0.31676057  0.81285863  1
  Zn  Zn92  1  0.31135700  0.81627788  0.31401803  1
  Zn  Zn93  1  0.32164877  0.81049531  0.80772266  1
  Zn  Zn94  1  0.81488955  0.30558179  0.30480857  1
  Zn  Zn95  1  0.81571462  0.31292068  0.81129432  1
  Zn  Zn96  1  0.79598467  0.82188367  0.35153179  1
  Zn  Zn97  1  0.81462962  0.81009553  0.81341914  1
  Zn  Zn98  1  0.18629208  0.43745858  0.43546255  1
  Zn  Zn99  1  0.18393897  0.43181018  0.93990570  1
  Zn  Zn100  1  0.18573590  0.94024419  0.43346790  1
  Zn  Zn101  1  0.19837693  0.92875628  0.93666436  1
  Zn  Zn102  1  0.69055923  0.43300224  0.43420816  1
  Zn  Zn103  1  0.68551211  0.44070494  0.93487829  1
  Zn  Zn104  1  0.68764351  0.94207762  0.44034682  1
  Zn  Zn105  1  0.68348833  0.93066086  0.93687863  1
  Zn  Zn106  1  0.31559539  0.03775939  0.06374068  1
  Zn  Zn107  1  0.31262621  0.07210680  0.56790777  1
  Zn  Zn108  1  0.31137863  0.55808723  0.06544256  1
  Zn  Zn109  1  0.31546746  0.56448986  0.56386077  1
  Zn  Zn110  1  0.81285087  0.05307045  0.06080432  1
  Zn  Zn111  1  0.81560415  0.07570208  0.56482462  1
  Zn  Zn112  1  0.81773944  0.56262325  0.06058820  1
  Zn  Zn113  1  0.80238180  0.60140512  0.56771507  1
  Zn  Zn114  1  0.42974475  0.44063603  0.18296011  1
  Zn  Zn115  1  0.43194575  0.43617491  0.68544157  1
  Zn  Zn116  1  0.43619461  0.94872603  0.18418823  1
  Zn  Zn117  1  0.44489888  0.94447928  0.68835207  1
  Zn  Zn118  1  0.93727871  0.43111831  0.19057624  1
  Zn  Zn119  1  0.93064079  0.43830263  0.68828686  1
  Zn  Zn120  1  0.93917494  0.93237746  0.19759646  1
  Zn  Zn121  1  0.97541230  0.95477294  0.73381423  1
  Zn  Zn122  1  0.06407952  0.05972701  0.31945173  1
  Zn  Zn123  1  0.07312498  0.05861391  0.82704417  1
  Zn  Zn124  1  0.05377208  0.56245333  0.31333730  1
  Zn  Zn125  1  0.06799062  0.56053272  0.81245624  1
  Zn  Zn126  1  0.56271200  0.06264720  0.30873235  1
  Zn  Zn127  1  0.56691651  0.05697054  0.81335432  1
  Zn  Zn128  1  0.55520939  0.55881238  0.31402185  1
  Zn  Zn129  1  0.62296269  0.60019263  0.78039458  1
  Zn  Zn130  1  0.43556289  0.18758815  0.42521840  1
  Zn  Zn131  1  0.44078757  0.19293273  0.93141147  1
  Zn  Zn132  1  0.43794633  0.68736993  0.43463251  1
  Zn  Zn133  1  0.44568599  0.68624009  0.92397994  1
  Zn  Zn134  1  0.93269685  0.19090940  0.43868221  1
  Zn  Zn135  1  0.93042632  0.18779661  0.93766322  1
  Zn  Zn136  1  0.95450856  0.66309405  0.41048980  1
  Zn  Zn137  1  0.94563975  0.70183938  0.94645129  1
  Zn  Zn138  1  0.05596302  0.30749482  0.06456050  1
  Zn  Zn139  1  0.05609581  0.31884848  0.56184082  1
  Zn  Zn140  1  0.06440628  0.77387578  0.07787349  1
  Zn  Zn141  1  0.06795073  0.81344949  0.56727783  1
  Zn  Zn142  1  0.56441433  0.30802895  0.05849183  1
  Zn  Zn143  1  0.57176762  0.31324557  0.56074322  1
  Zn  Zn144  1  0.56693359  0.81339430  0.06535772  1
  Zn  Zn145  1  0.56385082  0.81790561  0.56659570  1
  O  O146  1  0.11310762  0.10338268  0.12717728  1
  O  O147  1  0.11760373  0.11490523  0.63029977  1
  O  O148  1  0.10961013  0.67117915  0.10906844  1
  O  O149  1  0.12685014  0.61218314  0.62649094  1
  O  O150  1  0.62811735  0.11138998  0.12326481  1
  O  O151  1  0.60906654  0.11660940  0.63857704  1
  O  O152  1  0.61163675  0.61691642  0.11982599  1
  O  O153  1  0.62397510  0.60594638  0.60184672  1
  O  O154  1  0.37594016  0.38125099  0.38475827  1
  O  O155  1  0.38448949  0.37427119  0.89129250  1
  O  O156  1  0.38513898  0.88916206  0.36899306  1
  O  O157  1  0.39521952  0.87091547  0.87908689  1
  O  O158  1  0.87705925  0.37736501  0.37568992  1
  O  O159  1  0.88383800  0.37594799  0.88312086  1
  O  O160  1  0.88905874  0.88892277  0.37904538  1
  O  O161  1  0.88277595  0.88011374  0.87684816  1
  O  O162  1  0.25823142  0.00652397  0.36933047  1
  O  O163  1  0.24108895  0.00994104  0.87410645  1
  O  O164  1  0.25517367  0.49044752  0.35952455  1
  O  O165  1  0.24504912  0.50246570  0.86586830  1
  O  O166  1  0.75635381  0.00102268  0.35913594  1
  O  O167  1  0.76695986  -0.01026070  0.88243348  1
  O  O168  1  0.74252303  0.49926589  0.35418423  1
  O  O169  1  0.76567703  0.50412809  0.88319484  1
  O  O170  1  0.24655479  0.49141152  0.13478257  1
  O  O171  1  0.24132605  0.49331046  0.63220392  1
  O  O172  1  0.23337651  0.99389342  0.13890362  1
  O  O173  1  0.24055697  0.99686394  0.62885547  1
  O  O174  1  0.74054711  0.49479378  0.13029878  1
  O  O175  1  0.74566807  0.50338243  0.61497701  1
  O  O176  1  0.73878693  0.98975201  0.13022100  1
  O  O177  1  0.73647075  1.01795805  0.62301303  1
  O  O178  1  0.00295195  0.38910133  0.27530270  1
  O  O179  1  -0.00298072  0.36321568  0.75827803  1
  O  O180  1  0.00651342  0.86600654  0.26742080  1
  O  O181  1  0.02344420  0.84930697  0.73579209  1
  O  O182  1  0.49086259  0.37928352  0.25933153  1
  O  O183  1  0.49259864  0.37033594  0.75485685  1
  O  O184  1  0.49979077  0.87104857  0.24986159  1
  O  O185  1  0.50130910  0.86909968  0.75618600  1
  O  O186  1  0.49333545  0.12888971  0.24608827  1
  O  O187  1  0.48953358  0.14024923  0.74914842  1
  O  O188  1  0.49131465  0.63276106  0.24474562  1
  O  O189  1  0.52089662  0.64180834  0.74611481  1
  O  O190  1  0.99859535  0.13354551  0.25774469  1
  O  O191  1  0.99759520  0.13261218  0.74832917  1
  O  O192  1  0.98146469  0.64628909  0.28736680  1
  O  O193  1  1.01395114  0.63404061  0.73658449  1
  O  O194  1  0.38623639  0.26437783  0.00686698  1
  O  O195  1  0.37608739  0.26186300  0.49483605  1
  O  O196  1  0.37427837  0.75213891  -0.00681124  1
  O  O197  1  0.36195428  0.75340748  0.48654076  1
  O  O198  1  0.86686524  0.25973953  0.00728100  1
  O  O199  1  0.85053553  0.23333729  0.52133966  1
  O  O200  1  0.85097974  0.74684298  0.00359406  1
  O  O201  1  0.84005386  0.82236470  0.56127817  1
  O  O202  1  0.11781638  0.29182591  0.46079050  1
  O  O203  1  0.12157990  0.25379525  0.98662276  1
  O  O204  1  0.13328606  0.75727598  0.48951416  1
  O  O205  1  0.15556259  0.75886384  0.98000922  1
  O  O206  1  0.62050385  0.26096494  0.47542546  1
  O  O207  1  0.64018877  0.25271538  0.99540167  1
  O  O208  1  0.61329107  0.73446169  0.50092537  1
  O  O209  1  0.62971300  0.73400211  1.00781097  1
  O  O210  1  0.50676821  0.24841163  0.13358482  1
  O  O211  1  0.50678404  0.24188382  0.63374714  1
  O  O212  1  0.50024659  0.73879936  0.13143200  1
  O  O213  1  0.49039713  0.75228160  0.62492348  1
  O  O214  1  1.00352288  0.22601280  0.12917054  1
  O  O215  1  1.00626889  0.23907551  0.63393283  1
  O  O216  1  0.97817276  0.75716285  0.15912983  1
  O  O217  1  1.00851228  0.73550089  0.62964089  1
  O  O218  1  -0.01414379  0.26281607  0.36743130  1
  O  O219  1  0.00401164  0.25536714  0.87024369  1
  O  O220  1  0.00988711  0.76538543  0.37908842  1
  O  O221  1  0.02016972  0.74049164  0.85384499  1
  O  O222  1  0.50027937  0.26233800  0.36487367  1
  O  O223  1  0.50171890  0.26375871  0.86092359  1
  O  O224  1  0.49258272  0.76653660  0.36432757  1
  O  O225  1  0.51236241  0.75938653  0.86662705  1
  O  O226  1  0.25554631  0.13010877  0.48898794  1
  O  O227  1  0.27321092  0.13337094  1.02221059  1
  O  O228  1  0.25159473  0.63985158  0.49758658  1
  O  O229  1  0.25487891  0.62920746  0.99154832  1
  O  O230  1  0.79114195  0.17654941  0.50707041  1
  O  O231  1  0.75867554  0.13957340  1.00807392  1
  O  O232  1  0.72514276  0.61023301  0.48044488  1
  O  O233  1  0.73654242  0.63274345  1.00685504  1
  O  O234  1  0.26148128  0.37978029  0.01031037  1
  O  O235  1  0.25983690  0.37884661  0.50773577  1
  O  O236  1  0.27530740  0.86039150  -0.00778996  1
  O  O237  1  0.25526648  0.88366432  0.50659858  1
  O  O238  1  0.75420988  0.36992642  0.00511916  1
  O  O239  1  0.75175134  0.38264016  0.51106316  1
  O  O240  1  0.73730940  0.85904389  0.01662715  1
  O  O241  1  0.74863485  0.85050363  0.45163526  1
  O  O242  1  0.13507080  0.50854577  0.25432120  1
  O  O243  1  0.13244502  0.49410370  0.73816653  1
  O  O244  1  0.12764996  0.98783521  0.24818109  1
  O  O245  1  0.12675600  0.98407639  0.74393846  1
  O  O246  1  0.62133306  0.50120672  0.23617929  1
  O  O247  1  0.62332846  0.49507652  0.72744129  1
  O  O248  1  0.63014204  0.99581175  0.23713946  1
  O  O249  1  0.61885596  0.98709923  0.73549501  1
  O  O250  1  0.35579033  -0.00724835  0.25326200  1
  O  O251  1  0.38032416  0.01720087  0.75482155  1
  O  O252  1  0.36586972  0.50854620  0.25560803  1
  O  O253  1  0.35759097  0.49791443  0.74667730  1
  O  O254  1  0.86033149  -0.00286938  0.25367933  1
  O  O255  1  0.87407310  0.00471847  0.75397768  1
  O  O256  1  0.86392764  0.50477557  0.24611857  1
  O  O257  1  0.88059174  0.50195876  0.76641500  1
  O  O258  1  0.11032054  0.34990926  0.40600339  1
  O  O259  1  0.11293062  0.36647384  0.87309364  1
  O  O260  1  0.11141442  0.87788924  0.37051293  1
  O  O261  1  0.13319503  0.86034062  0.86237898  1
  O  O262  1  0.60469415  0.38191027  0.37135754  1
  O  O263  1  0.61049561  0.39402922  0.85673170  1
  O  O264  1  0.60404470  0.89388815  0.35887778  1
  O  O265  1  0.61746178  0.88011777  0.85524601  1
  O  O266  1  0.38162881  0.10314161  0.13056645  1
  O  O267  1  0.39147587  0.12496482  0.63628467  1
  O  O268  1  0.38476488  0.61666674  0.13586635  1
  O  O269  1  0.32364935  0.63845488  0.64570693  1
  O  O270  1  0.89311169  0.11409711  0.12118943  1
  O  O271  1  0.88976758  0.13085134  0.64107662  1
  O  O272  1  0.86794469  0.62526920  0.13775856  1
  O  O273  1  0.89750206  0.61587754  0.63420957  1
  O  O274  1  0.24893159  0.26294525  0.13986269  1
  O  O275  1  0.24105827  0.26361625  0.62475503  1
  O  O276  1  0.25730596  0.74561245  0.10886999  1
  O  O277  1  0.24512244  0.77152119  0.60421643  1
  O  O278  1  0.74772000  0.26416172  0.12540982  1
  O  O279  1  0.75368490  0.24337801  0.65282752  1
  O  O280  1  0.74408589  0.76063106  0.13248970  1
  O  O281  1  0.77308778  0.71078031  0.59637239  1
  O  O282  1  0.25231475  0.23471650  0.36349625  1
  O  O283  1  0.23727167  0.26018953  0.87423390  1
  O  O284  1  0.23756703  0.76098501  0.38578066  1
  O  O285  1  0.25656325  0.73026005  0.87199372  1
  O  O286  1  0.73113269  0.25202235  0.35550796  1
  O  O287  1  0.75881922  0.24755592  0.88536944  1
  O  O288  1  0.72448716  0.72903682  0.35444382  1
  O  O289  1  0.74282950  0.75749957  0.88891522  1
  O  O290  1  0.00243075  0.12129088  0.00426402  1
  O  O291  1  -0.00506021  0.13216431  0.51830216  1
  O  O292  1  -0.00151047  0.61020985  -0.00090422  1
  O  O293  1  -0.00108910  0.61351663  0.50992112  1
  O  O294  1  0.49551408  0.10890788  -0.01194498  1
  O  O295  1  0.49478437  0.13182363  0.51122820  1
  O  O296  1  0.50303527  0.61690659  0.00532993  1
  O  O297  1  0.50435807  0.60910578  0.48853030  1
  O  O298  1  0.48397179  0.38377418  0.49473892  1
  O  O299  1  0.49693523  0.38522955  0.99529302  1
  O  O300  1  0.50449315  0.87780048  0.48254783  1
  O  O301  1  0.49921764  0.86817667  0.98763488  1
  O  O302  1  0.98601006  0.38762509  0.49808038  1
  O  O303  1  0.99020072  0.37905855  0.99433108  1
  O  O304  1  1.00212109  0.87611353  0.49531594  1
  O  O305  1  0.99571081  0.81405722  0.99341301  1
  O  O306  1  0.48476552  0.48836625  0.37941201  1
  O  O307  1  0.49736398  0.49601565  0.89032399  1
  O  O308  1  0.48587026  0.99643350  0.37202045  1
  O  O309  1  0.51050259  0.98677282  0.88687189  1
  O  O310  1  1.00116902  0.49315859  0.39444018  1
  O  O311  1  0.99484256  0.49060041  0.88007220  1
  O  O312  1  0.98792807  0.99348428  0.37612807  1
  O  O313  1  0.99476798  0.98066102  0.85457468  1
  O  O314  1  0.00755508  0.00264111  0.13040858  1
  O  O315  1  0.01213148  0.01233316  0.63376094  1
  O  O316  1  -0.00571446  0.49143420  0.11051027  1
  O  O317  1  0.00993786  0.50312025  0.61805920  1
  O  O318  1  0.51390376  -0.00481563  0.11217601  1
  O  O319  1  0.50472674  0.01477113  0.61810987  1
  O  O320  1  0.50395223  0.50687483  0.11790965  1
  O  O321  1  0.48525247  0.50214819  0.60857696  1
  O  O322  1  0.25182193  0.38838377  0.23792529  1
  O  O323  1  0.25136496  0.38260238  0.73710344  1
  O  O324  1  0.23329393  0.88593255  0.26116115  1
  O  O325  1  0.25045741  0.87494727  0.73791108  1
  O  O326  1  0.75462965  0.38665290  0.23271816  1
  O  O327  1  0.73575260  0.37557628  0.75586145  1
  O  O328  1  0.73748336  0.88200410  0.24400669  1
  O  O329  1  0.73911486  0.86680396  0.74736154  1
  O  O330  1  0.23721089  0.10835470  0.25732147  1
  O  O331  1  0.26710823  0.12580207  0.73768909  1
  O  O332  1  0.25676526  0.61354637  0.24018214  1
  O  O333  1  0.24438930  0.60947086  0.76734831  1
  O  O334  1  0.74783862  0.11259990  0.23785684  1
  O  O335  1  0.77151835  0.12215328  0.75295263  1
  O  O336  1  0.74146777  0.61078840  0.25602378  1
  O  O337  1  0.72490873  0.64052111  0.75445083  1
  O  O338  1  0.36685962  0.11212519  0.37003927  1
  O  O339  1  0.36581452  0.14109864  0.86036195  1
  O  O340  1  0.37845949  0.61391120  0.36244239  1
  O  O341  1  0.36739373  0.61464741  0.87748167  1
  O  O342  1  0.88102290  0.11194741  0.37327421  1
  O  O343  1  0.88632562  0.10483462  0.86865923  1
  O  O344  1  0.84592974  0.63608139  0.39366501  1
  O  O345  1  0.88241268  0.62115271  0.88085298  1
  O  O346  1  0.13759842  0.37274811  0.11614264  1
  O  O347  1  0.13574446  0.38220792  0.62284681  1
  O  O348  1  0.11154285  0.87666811  0.14583733  1
  O  O349  1  0.13642306  0.88728123  0.62835222  1
  O  O350  1  0.63760057  0.38449637  0.11483872  1
  O  O351  1  0.62049517  0.38928325  0.63243327  1
  O  O352  1  0.63110078  0.88179346  0.13521758  1
  O  O353  1  0.62460770  0.89339665  0.62884988  1
  O  O354  1  0.10107443  0.25603796  0.24621979  1
  O  O355  1  0.11633900  0.25372233  0.76044232  1
  O  O356  1  0.13007447  0.76309940  0.26635647  1
  O  O357  1  0.14568318  0.75175977  0.75369499  1
  O  O358  1  0.60278662  0.24892776  0.26270981  1
  O  O359  1  0.60819252  0.27691840  0.74218715  1
  O  O360  1  0.60621718  0.76099171  0.24535269  1
  O  O361  1  0.61201831  0.77271902  0.72598581  1
  O  O362  1  0.39046286  0.25362902  0.24364884  1
  O  O363  1  0.38748406  0.25061942  0.74598086  1
  O  O364  1  0.37962150  0.74076989  0.25537517  1
  O  O365  1  0.39417008  0.74330460  0.75379040  1
  O  O366  1  0.89769012  0.26934224  0.23286329  1
  O  O367  1  0.88435044  0.23757700  0.74866883  1
  O  O368  1  0.87046947  0.76705749  0.27689592  1
  O  O369  1  0.89392269  0.75116851  0.75293474  1
  O  O370  1  0.37785758  0.50023986  0.49031613  1
  O  O371  1  0.38821015  0.49123059  1.00535355  1
  O  O372  1  0.37679506  1.00499233  0.48729688  1
  O  O373  1  0.39392994  0.97836666  1.00034533  1
  O  O374  1  0.87926693  0.50943696  0.51036292  1
  O  O375  1  0.88415813  0.49352049  0.98842108  1
  O  O376  1  0.85724206  1.00449472  0.48571488  1
  O  O377  1  0.88170369  0.98557255  0.99204724  1
  O  O378  1  0.12688757  -0.02658801  0.01948748  1
  O  O379  1  0.12480575  -0.00064141  0.51544623  1
  O  O380  1  0.11012202  0.49897448  -0.00262975  1
  O  O381  1  0.12584264  0.49763106  0.51324615  1
  O  O382  1  0.61684064  -0.00569378  0.00896249  1
  O  O383  1  0.62385277  0.00236835  0.51269424  1
  O  O384  1  0.61485707  0.50828678  0.00956054  1
  O  O385  1  0.60534663  0.49010099  0.50746767  1
  O  O386  1  0.36600803  0.37736704  0.11231554  1
  O  O387  1  0.36195271  0.37642341  0.61093682  1
  O  O388  1  0.38944502  0.86780156  0.11006261  1
  O  O389  1  0.36455548  0.88998555  0.62501133  1
  O  O390  1  0.85966371  0.38412204  0.11145955  1
  O  O391  1  0.87644208  0.35084991  0.63521838  1
  O  O392  1  0.85608519  0.88162765  0.12799638  1
  O  O393  1  0.84378308  0.87249836  0.61371682  1
  O  O394  1  0.13674595  0.11877863  0.38312856  1
  O  O395  1  0.13546780  0.14025587  0.87332052  1
  O  O396  1  0.12015138  0.64361354  0.37575018  1
  O  O397  1  0.13579260  0.63004239  0.88375067  1
  O  O398  1  0.61962168  0.13223595  0.37884391  1
  O  O399  1  0.63345233  0.14311017  0.82837968  1
  O  O400  1  0.62209655  0.61614566  0.38471572  1
  O  O401  1  0.61920028  0.61717191  0.89478053  1
