# generated using pymatgen
data_V73Zn73O256
_symmetry_space_group_name_H-M   'P 1'
_cell_length_a   16.84257732
_cell_length_b   16.86775816
_cell_length_c   16.86967084
_cell_angle_alpha   90.10333677
_cell_angle_beta   89.99248455
_cell_angle_gamma   89.78920886
_symmetry_Int_Tables_number   1
_chemical_formula_structural   V73Zn73O256
_chemical_formula_sum   'V73 Zn73 O256'
_cell_volume   4792.57452202
_cell_formula_units_Z   1
loop_
 _symmetry_equiv_pos_site_id
 _symmetry_equiv_pos_as_xyz
  1  'x, y, z'
loop_
 _atom_site_type_symbol
 _atom_site_label
 _atom_site_symmetry_multiplicity
 _atom_site_fract_x
 _atom_site_fract_y
 _atom_site_fract_z
 _atom_site_occupancy
  V  V0  1  0.24747094  0.23831308  0.00545299  1
  V  V1  1  0.24667516  0.61289145  0.87547774  1
  V  V2  1  0.49689894  -0.03226144  0.50835161  1
  V  V3  1  0.86550116  0.87432209  0.50232840  1
  V  V4  1  -0.00036318  0.24789554  0.24994863  1
  V  V5  1  0.12481206  0.36916275  0.26150008  1
  V  V6  1  0.24459701  0.51237287  0.26853240  1
  V  V7  1  -0.00979183  0.14071590  0.63248638  1
  V  V8  1  -0.00285018  0.49580762  0.50226871  1
  V  V9  1  0.71271845  0.13835509  0.89587618  1
  V  V10  1  -0.01233053  0.88468129  0.87686689  1
  V  V11  1  0.12421854  0.13441421  0.49597124  1
  V  V12  1  0.63435108  0.50804150  0.12510779  1
  V  V13  1  0.64465003  -0.01124351  0.12483157  1
  V  V14  1  0.37033754  0.76013731  0.62697896  1
  V  V15  1  0.86591284  0.11837720  0.77641293  1
  V  V16  1  0.87005621  0.63007902  0.24747016  1
  V  V17  1  0.38164003  0.37395354  0.50425566  1
  V  V18  1  0.26408783  0.24679817  0.50759276  1
  V  V19  1  0.23479925  0.48375487  0.73428712  1
  V  V20  1  0.25461917  0.11520253  0.85970933  1
  V  V21  1  0.38056932  -0.01425522  0.36752393  1
  V  V22  1  0.87226258  0.75455001  0.62236938  1
  V  V23  1  0.74931729  0.51514070  0.74852560  1
  V  V24  1  0.25701495  0.37205805  0.13280724  1
  V  V25  1  0.24880069  0.12301181  0.36259513  1
  V  V26  1  0.12048858  0.74986687  0.37634317  1
  V  V27  1  0.49841593  0.62435087  0.61155678  1
  V  V28  1  0.37277710  0.61186742  0.75558533  1
  V  V29  1  0.49839862  0.36033916  0.36598542  1
  V  V30  1  0.75255814  0.37155679  0.62580558  1
  V  V31  1  0.75811686  0.73721523  0.01238899  1
  V  V32  1  0.85943762  0.00728499  0.37606382  1
  V  V33  1  0.62522216  0.51582106  0.61186063  1
  V  V34  1  0.87121098  0.36963747  0.49887328  1
  V  V35  1  0.86519433  0.12584004  0.25083532  1
  V  V36  1  0.37027900  0.37788351  -0.00861413  1
  V  V37  1  0.62129161  0.37895190  0.75772090  1
  V  V38  1  0.37476857  0.73898318  0.12489543  1
  V  V39  1  0.12378171  0.62562775  0.00304058  1
  V  V40  1  0.13085487  -0.00779040  0.63252384  1
  V  V41  1  0.01280586  0.37467804  0.86023985  1
  V  V42  1  0.38499304  0.13242832  0.23873972  1
  V  V43  1  0.62564829  0.36555131  0.25194730  1
  V  V44  1  0.85988298  0.37627419  0.00495106  1
  V  V45  1  0.50371033  0.75021259  0.77193638  1
  V  V46  1  0.62738357  0.73243423  0.38129765  1
  V  V47  1  0.49189660  0.50921800  0.00206079  1
  V  V48  1  0.12120447  0.50217189  0.13194571  1
  V  V49  1  0.25417635  0.76751034  0.49829265  1
  V  V50  1  0.00449356  0.74589620  0.23089791  1
  V  V51  1  0.68811624  0.92209408  0.70219992  1
  V  V52  1  0.12661766  0.24626183  0.86192287  1
  V  V53  1  0.00039392  0.12222829  0.11842564  1
  V  V54  1  0.39255622  -0.00891239  0.86570917  1
  V  V55  1  0.13708036  0.62150090  0.49834402  1
  V  V56  1  0.87316903  0.88086905  0.02138762  1
  V  V57  1  0.38115136  0.51279602  0.37539487  1
  V  V58  1  0.12931466  0.75307654  0.87497993  1
  V  V59  1  0.00174676  -0.00021457  0.49998854  1
  V  V60  1  0.73977061  0.23431753  0.49004328  1
  V  V61  1  0.00471664  0.75730579  0.74940542  1
  V  V62  1  0.75303232  0.49765622  0.27210539  1
  V  V63  1  -0.00687999  0.37133180  0.37623108  1
  V  V64  1  0.00558312  0.62010287  0.62237410  1
  V  V65  1  0.12618899  0.00534945  0.10639364  1
  V  V66  1  0.12937241  0.88874065  0.25392979  1
  V  V67  1  0.50340340  -0.01164294  0.01283086  1
  V  V68  1  0.87595242  0.63018032  0.75229015  1
  V  V69  1  0.00432363  0.49719289  0.00387264  1
  V  V70  1  0.63314854  0.87238577  0.25732164  1
  V  V71  1  0.87834725  0.50441426  0.87165167  1
  V  V72  1  0.25035803  0.87219223  0.11450084  1
  Zn  Zn73  1  0.49320900  0.75010631  0.26181691  1
  Zn  Zn74  1  0.65996624  0.69426871  0.88423149  1
  Zn  Zn75  1  -0.00522208  0.87653975  0.37166070  1
  Zn  Zn76  1  0.37716498  0.86385455  -0.01072445  1
  Zn  Zn77  1  0.49949689  0.62519921  0.13677618  1
  Zn  Zn78  1  0.50116443  0.37978869  0.87271242  1
  Zn  Zn79  1  0.74219252  0.72294889  0.49415208  1
  Zn  Zn80  1  0.29863148  -0.06189603  0.69889270  1
  Zn  Zn81  1  0.50568591  0.12948378  0.11900829  1
  Zn  Zn82  1  0.18453884  0.18723194  0.18659728  1
  Zn  Zn83  1  0.18515206  0.18512820  0.68218137  1
  Zn  Zn84  1  0.18655349  0.69027891  0.18892018  1
  Zn  Zn85  1  0.19030001  0.68961785  0.68754448  1
  Zn  Zn86  1  0.67047234  0.17118465  0.19561314  1
  Zn  Zn87  1  0.73644491  0.22505893  0.73976537  1
  Zn  Zn88  1  0.68831158  0.68984544  0.19247467  1
  Zn  Zn89  1  0.67593895  0.72208827  0.68265490  1
  Zn  Zn90  1  0.31268130  0.30874793  0.31720093  1
  Zn  Zn91  1  0.31279717  0.31139410  0.81565225  1
  Zn  Zn92  1  0.30369916  0.80799086  0.30637511  1
  Zn  Zn93  1  0.30920402  0.80649128  0.81087925  1
  Zn  Zn94  1  0.80930866  0.30690456  0.31483158  1
  Zn  Zn95  1  0.83586745  0.29048027  0.85343970  1
  Zn  Zn96  1  0.80972601  0.81235050  0.31172576  1
  Zn  Zn97  1  0.79145966  0.82489811  0.82785392  1
  Zn  Zn98  1  0.18153305  0.42497698  0.45651616  1
  Zn  Zn99  1  0.18929468  0.43766908  0.93697990  1
  Zn  Zn100  1  0.18891187  0.94337584  0.43660277  1
  Zn  Zn101  1  0.18364574  0.93695428  0.93079661  1
  Zn  Zn102  1  0.68195431  0.43502889  0.43722421  1
  Zn  Zn103  1  0.67904454  0.48138962  0.93069262  1
  Zn  Zn104  1  0.68025270  0.93706679  0.44250727  1
  Zn  Zn105  1  0.69941947  0.92802117  0.93406050  1
  Zn  Zn106  1  0.31715208  0.05248555  0.05733301  1
  Zn  Zn107  1  0.30731273  0.04398017  0.54370244  1
  Zn  Zn108  1  0.30253538  0.55814802  0.06860963  1
  Zn  Zn109  1  0.31637318  0.55860815  0.56128216  1
  Zn  Zn110  1  0.81597363  0.06620267  0.05457084  1
  Zn  Zn111  1  0.80088237  0.05695199  0.58148881  1
  Zn  Zn112  1  0.82283162  0.56308415  0.07117294  1
  Zn  Zn113  1  0.81584516  0.56206738  0.56078656  1
  Zn  Zn114  1  0.43478407  0.44639024  0.19375395  1
  Zn  Zn115  1  0.43905433  0.44029230  0.68430496  1
  Zn  Zn116  1  0.43861553  0.92674264  0.19374272  1
  Zn  Zn117  1  0.49624582  0.95544932  0.70987413  1
  Zn  Zn118  1  0.93187324  0.43339679  0.18580506  1
  Zn  Zn119  1  0.93830173  0.43604074  0.68469827  1
  Zn  Zn120  1  0.94086313  0.94249079  0.19267036  1
  Zn  Zn121  1  0.93712528  0.94243428  0.68822479  1
  Zn  Zn122  1  0.05635237  0.06616502  0.31634323  1
  Zn  Zn123  1  0.05943771  0.06827597  0.81159990  1
  Zn  Zn124  1  0.04317383  0.56971907  0.32384087  1
  Zn  Zn125  1  0.06541715  0.56203357  0.80879402  1
  Zn  Zn126  1  0.54761004  0.04109213  0.30025891  1
  Zn  Zn127  1  0.59892462  0.03962285  0.83805390  1
  Zn  Zn128  1  0.56000059  0.56597626  0.31037493  1
  Zn  Zn129  1  0.55819082  0.56113277  0.81290935  1
  Zn  Zn130  1  0.43147023  0.18456829  0.42319495  1
  Zn  Zn131  1  0.46906976  0.19947710  0.96310327  1
  Zn  Zn132  1  0.43817748  0.69886563  0.43545824  1
  Zn  Zn133  1  0.42305286  0.68542813  0.94670790  1
  Zn  Zn134  1  0.93170307  0.19131423  0.43965685  1
  Zn  Zn135  1  0.94158519  0.19303223  0.94099120  1
  Zn  Zn136  1  0.90840459  0.66298722  0.43812515  1
  Zn  Zn137  1  0.93583807  0.69337865  0.94238374  1
  Zn  Zn138  1  0.06543326  0.31176330  0.06287003  1
  Zn  Zn139  1  0.06947630  0.31563303  0.56800251  1
  Zn  Zn140  1  0.06456466  0.82081566  0.05446286  1
  Zn  Zn141  1  0.05998548  0.81287433  0.56068592  1
  Zn  Zn142  1  0.54920311  0.32920071  0.08257331  1
  Zn  Zn143  1  0.57026926  0.32625798  0.55618292  1
  Zn  Zn144  1  0.57100191  0.80897214  0.05539839  1
  Zn  Zn145  1  0.56730729  0.80918028  0.56690380  1
  O  O146  1  0.11690217  0.11348746  0.12872874  1
  O  O147  1  0.11726750  0.11990439  0.61094645  1
  O  O148  1  0.13621084  0.61311687  0.11532355  1
  O  O149  1  0.11451772  0.63794846  0.60937425  1
  O  O150  1  0.61875958  0.09674062  0.13211989  1
  O  O151  1  0.53461673  0.19349281  0.66572981  1
  O  O152  1  0.62233899  0.61132700  0.13220871  1
  O  O153  1  0.61280099  0.62530814  0.62752879  1
  O  O154  1  0.38719954  0.37886799  0.37530409  1
  O  O155  1  0.36672059  0.38762601  0.89101829  1
  O  O156  1  0.35849285  0.88812251  0.36839572  1
  O  O157  1  0.35578660  0.88948219  0.87607062  1
  O  O158  1  0.88204858  0.37184847  0.38350043  1
  O  O159  1  0.89427907  0.38892788  0.87776612  1
  O  O160  1  0.87474706  0.88772676  0.38312599  1
  O  O161  1  0.88705648  0.87945771  0.87145635  1
  O  O162  1  0.26376688  0.01550724  0.38707943  1
  O  O163  1  0.23248675  0.01567244  0.86855307  1
  O  O164  1  0.24845687  0.49193312  0.37033239  1
  O  O165  1  0.24085832  0.50835307  0.85944947  1
  O  O166  1  0.76098161  0.00380801  0.38556006  1
  O  O167  1  0.70949985  0.02922982  0.88441307  1
  O  O168  1  0.74930613  0.50175013  0.37083435  1
  O  O169  1  0.77170903  0.49754265  0.85860635  1
  O  O170  1  0.24045670  0.49107473  0.14426567  1
  O  O171  1  0.25449761  0.50076811  0.63642802  1
  O  O172  1  0.23360770  0.99282010  0.12005037  1
  O  O173  1  0.24036492  1.00352159  0.62354128  1
  O  O174  1  0.73670798  0.50220538  0.12544064  1
  O  O175  1  0.74120546  0.50647010  0.62831154  1
  O  O176  1  0.74316311  0.99897135  0.11920298  1
  O  O177  1  0.72989616  0.98709443  0.63504057  1
  O  O178  1  0.00230422  0.36875176  0.25611295  1
  O  O179  1  0.00086686  0.37812554  0.76110747  1
  O  O180  1  0.01167278  0.86630794  0.25182469  1
  O  O181  1  -0.00376976  0.86381849  0.75634787  1
  O  O182  1  0.50895612  0.37921092  0.25762432  1
  O  O183  1  0.51462669  0.39043420  0.75223746  1
  O  O184  1  0.51805153  0.86271103  0.24210125  1
  O  O185  1  0.49845491  0.84679100  0.74979470  1
  O  O186  1  0.49057699  0.12634880  0.24360390  1
  O  O187  1  0.40342690  0.13157886  0.69121620  1
  O  O188  1  0.49415562  0.63431137  0.24994384  1
  O  O189  1  0.48349533  0.62602515  0.75046104  1
  O  O190  1  0.99507246  0.13360871  0.24703255  1
  O  O191  1  0.99276392  0.13061276  0.73656563  1
  O  O192  1  1.02468685  0.64609636  0.23906106  1
  O  O193  1  0.99687486  0.63098350  0.74035602  1
  O  O194  1  0.35575412  0.26794218  -0.00474261  1
  O  O195  1  0.37367094  0.25012790  0.50012292  1
  O  O196  1  0.36248582  0.75336727  0.01580622  1
  O  O197  1  0.36211883  0.74688957  0.51082708  1
  O  O198  1  0.86962635  0.27547950  -0.02453660  1
  O  O199  1  0.86121918  0.26278528  0.50071859  1
  O  O200  1  0.87162500  0.76080400  0.00542583  1
  O  O201  1  0.88740926  0.76815549  0.50271322  1
  O  O202  1  0.13658243  0.23638357  0.49492132  1
  O  O203  1  0.14281373  0.26026452  0.98925078  1
  O  O204  1  0.13558782  0.74669798  0.49647786  1
  O  O205  1  0.11535687  0.73646864  0.98738827  1
  O  O206  1  0.64078578  0.25495277  0.50649301  1
  O  O207  1  0.68729542  0.27188113  1.04787108  1
  O  O208  1  0.63018392  0.75128311  0.49035359  1
  O  O209  1  0.64879822  0.75465449  0.98862121  1
  O  O210  1  0.50926530  0.23025563  0.06635982  1
  O  O211  1  0.50113221  0.25008838  0.63137556  1
  O  O212  1  0.48241565  0.74533760  0.11588508  1
  O  O213  1  0.48933024  0.73564066  0.63301037  1
  O  O214  1  1.00755729  0.23672129  0.13591242  1
  O  O215  1  1.00724641  0.24033054  0.61866362  1
  O  O216  1  1.00928348  0.75716768  0.13276942  1
  O  O217  1  0.99465231  0.74385350  0.63012320  1
  O  O218  1  -0.00286155  0.25923587  0.36564187  1
  O  O219  1  0.01590237  0.26384366  0.87996130  1
  O  O220  1  0.01509896  0.75642999  0.37173717  1
  O  O221  1  0.00664571  0.75487274  0.86583458  1
  O  O222  1  0.49693675  0.26140093  0.36511879  1
  O  O223  1  0.47053886  0.26081483  0.86237417  1
  O  O224  1  0.51779262  0.75110706  0.37860366  1
  O  O225  1  0.48361959  0.74458642  0.87033636  1
  O  O226  1  0.24320356  0.13103891  0.49543000  1
  O  O227  1  0.25558307  0.13645909  0.99489613  1
  O  O228  1  0.23866666  0.62675083  0.50307745  1
  O  O229  1  0.23690111  0.61150566  0.98815137  1
  O  O230  1  0.75365114  0.13711950  0.51340712  1
  O  O231  1  0.75452299  0.13583549  0.99015530  1
  O  O232  1  0.80475059  0.63212582  0.47683359  1
  O  O233  1  0.76814298  0.63393910  1.00234943  1
  O  O234  1  0.25736109  0.38087746  0.01282291  1
  O  O235  1  0.27153458  0.35325777  0.48234864  1
  O  O236  1  0.23956326  0.87519852  0.01262757  1
  O  O237  1  0.24710973  0.86611513  0.50436451  1
  O  O238  1  0.76448982  0.40111163  -0.01332717  1
  O  O239  1  0.75306318  0.37638090  0.50991428  1
  O  O240  1  0.76774523  0.86341147  -0.00200132  1
  O  O241  1  0.76544902  0.87664219  0.50045056  1
  O  O242  1  0.12854562  0.49170099  0.25025781  1
  O  O243  1  0.13398356  0.49894996  0.74264477  1
  O  O244  1  0.11881877  0.98985922  0.25215850  1
  O  O245  1  0.11936019  1.01078653  0.72991739  1
  O  O246  1  0.63849975  0.49836389  0.24605318  1
  O  O247  1  0.63537547  0.50266383  0.73685219  1
  O  O248  1  0.62609596  0.98533254  0.23982436  1
  O  O249  1  0.60477963  0.98661718  0.73760303  1
  O  O250  1  0.38167351  0.00778193  0.26109941  1
  O  O251  1  0.38818547  -0.01356816  0.75925215  1
  O  O252  1  0.35539484  0.49829993  0.26475409  1
  O  O253  1  0.36937580  0.50947552  0.74880803  1
  O  O254  1  0.87884744  0.00964787  0.26754664  1
  O  O255  1  0.87795420  0.02405189  0.73585648  1
  O  O256  1  0.85453662  0.49254888  0.24772427  1
  O  O257  1  0.87298694  0.51119315  0.75093582  1
  O  O258  1  0.11608336  0.37440840  0.36666462  1
  O  O259  1  0.11883908  0.36990443  0.87462766  1
  O  O260  1  0.12821111  0.87305923  0.36433365  1
  O  O261  1  0.11684594  0.85573151  0.88247847  1
  O  O262  1  0.60856879  0.38276156  0.36585402  1
  O  O263  1  0.62769605  0.39378401  0.86032332  1
  O  O264  1  0.62794946  0.87498481  0.36109048  1
  O  O265  1  0.68730393  0.88633020  0.81887160  1
  O  O266  1  0.37115075  0.11408387  0.13767607  1
  O  O267  1  0.37933083  0.13785760  0.62242074  1
  O  O268  1  0.36088808  0.63779427  0.12705134  1
  O  O269  1  0.38430114  0.62370051  0.63383757  1
  O  O270  1  0.88944450  0.11177825  0.14167933  1
  O  O271  1  0.89179060  0.12652411  0.61239262  1
  O  O272  1  0.89418576  0.60713472  0.15125558  1
  O  O273  1  0.88915574  0.63208104  0.63325841  1
  O  O274  1  0.24130769  0.25663560  0.11264691  1
  O  O275  1  0.25012936  0.24531792  0.60699162  1
  O  O276  1  0.25088653  0.76496351  0.12898885  1
  O  O277  1  0.26147800  0.74320138  0.61403760  1
  O  O278  1  0.73090847  0.24858129  0.10266432  1
  O  O279  1  0.74620508  0.27108823  0.62548490  1
  O  O280  1  0.74976445  0.74409389  0.11419404  1
  O  O281  1  0.76968500  0.73739248  0.61596574  1
  O  O282  1  0.25755860  0.22866445  0.38533983  1
  O  O283  1  0.24342474  0.24092747  0.88221905  1
  O  O284  1  0.24112296  0.75395056  0.38975758  1
  O  O285  1  0.23401742  0.73470099  0.87120808  1
  O  O286  1  0.74919911  0.24415008  0.38918063  1
  O  O287  1  0.73614583  0.23992613  0.86649348  1
  O  O288  1  0.73591158  0.75352735  0.37726647  1
  O  O289  1  0.76688172  0.73518724  0.88622397  1
  O  O290  1  -0.00584563  0.13056100  0.01995443  1
  O  O291  1  0.01195636  0.12411726  0.49796515  1
  O  O292  1  0.01085630  0.60884028  -0.00643247  1
  O  O293  1  -0.00242494  0.61523166  0.50666393  1
  O  O294  1  0.48962230  0.09218426  -0.00236442  1
  O  O295  1  0.53953167  0.13150527  0.45478327  1
  O  O296  1  0.48725534  0.61150052  0.00898280  1
  O  O297  1  0.49185292  0.62664087  0.51395606  1
  O  O298  1  0.49068432  0.36950078  0.48355874  1
  O  O299  1  0.48156070  0.38031150  1.00033790  1
  O  O300  1  0.48886824  0.86707038  0.50891098  1
  O  O301  1  0.49480804  0.88089763  1.00146988  1
  O  O302  1  0.98960502  0.37393296  0.49519063  1
  O  O303  1  1.00031935  0.38586455  0.99363108  1
  O  O304  1  0.99621921  0.88781264  0.49520141  1
  O  O305  1  0.98721685  0.86906779  0.98562440  1
  O  O306  1  0.48332362  0.49575708  0.36820136  1
  O  O307  1  0.49689205  0.49825926  0.89810801  1
  O  O308  1  0.48725978  0.98580796  0.38012461  1
  O  O309  1  0.49499571  0.99162511  0.87846664  1
  O  O310  1  1.00723856  0.48169286  0.38925668  1
  O  O311  1  1.00255317  0.48976504  0.87998397  1
  O  O312  1  0.99171866  1.00147705  0.38767585  1
  O  O313  1  1.01385985  0.98085137  0.86824778  1
  O  O314  1  0.01346491  0.01192825  0.13211927  1
  O  O315  1  0.00779255  0.01389264  0.61309645  1
  O  O316  1  0.01325149  0.49083285  0.12034049  1
  O  O317  1  0.00048563  0.50859603  0.61714119  1
  O  O318  1  0.49640419  -0.00477519  0.11688184  1
  O  O319  1  0.47917209  -0.00529819  0.60584709  1
  O  O320  1  0.50353718  0.50351179  0.12279559  1
  O  O321  1  0.51334246  0.51409190  0.62761364  1
  O  O322  1  0.24010635  0.37396969  0.25013234  1
  O  O323  1  0.25769043  0.38500451  0.75065612  1
  O  O324  1  0.23264747  0.87649510  0.23818208  1
  O  O325  1  0.23664568  0.85928368  0.74506518  1
  O  O326  1  0.73623528  0.38454140  0.26284948  1
  O  O327  1  0.74322158  0.39514276  0.73351164  1
  O  O328  1  0.73586087  0.86607611  0.24375459  1
  O  O329  1  0.78332039  0.87696553  0.72720813  1
  O  O330  1  0.24886522  0.12357830  0.25983284  1
  O  O331  1  0.25264079  0.13370219  0.76092881  1
  O  O332  1  0.23539333  0.61128380  0.25952212  1
  O  O333  1  0.25780946  0.61710629  0.75248136  1
  O  O334  1  0.76630834  0.13177340  0.24444993  1
  O  O335  1  0.75706584  0.11599773  0.77943386  1
  O  O336  1  0.76431829  0.61679954  0.25382726  1
  O  O337  1  0.76476348  0.62279612  0.74123810  1
  O  O338  1  0.36697331  0.11589922  0.35832652  1
  O  O339  1  0.36008844  0.09765835  0.87448766  1
  O  O340  1  0.37396787  0.61120486  0.38875220  1
  O  O341  1  0.36091139  0.62753559  0.86323106  1
  O  O342  1  0.87739661  0.11605929  0.36751271  1
  O  O343  1  0.89403381  0.11385123  0.87372615  1
  O  O344  1  0.91861994  0.60477268  0.33747354  1
  O  O345  1  0.89495832  0.61393807  0.86243600  1
  O  O346  1  0.13315387  0.38283773  0.13672626  1
  O  O347  1  0.14249474  0.39460075  0.56273226  1
  O  O348  1  0.12662030  0.88783550  0.13117586  1
  O  O349  1  0.11599001  0.89310762  0.62043768  1
  O  O350  1  0.61851796  0.39013418  0.14581867  1
  O  O351  1  0.63239255  0.39640961  0.62752849  1
  O  O352  1  0.62629214  0.88191586  0.13178257  1
  O  O353  1  0.64176339  0.84271637  0.64950130  1
  O  O354  1  0.11505749  0.25940737  0.24781822  1
  O  O355  1  0.13403287  0.25392455  0.76259939  1
  O  O356  1  0.12109162  0.76279831  0.25627009  1
  O  O357  1  0.11493256  0.73784326  0.76306976  1
  O  O358  1  0.63067180  0.26578488  0.24414126  1
  O  O359  1  0.63315191  0.28040437  0.74364153  1
  O  O360  1  0.62517626  0.75349443  0.26359595  1
  O  O361  1  0.60801265  0.72417706  0.77434154  1
  O  O362  1  0.36777073  0.23210235  0.24870720  1
  O  O363  1  0.41232096  0.24638047  0.80666722  1
  O  O364  1  0.37420044  0.76224079  0.23099295  1
  O  O365  1  0.37753351  0.73508072  0.73979228  1
  O  O366  1  0.88346173  0.23648221  0.25425565  1
  O  O367  1  0.86121805  0.22741358  0.75598226  1
  O  O368  1  0.89139668  0.73935896  0.25452388  1
  O  O369  1  0.88704924  0.74255625  0.74069642  1
  O  O370  1  0.36428386  0.48274960  0.48481899  1
  O  O371  1  0.38121914  0.48932302  1.01584696  1
  O  O372  1  0.39270369  1.01443918  0.48023448  1
  O  O373  1  0.38123103  0.98625813  0.98773141  1
  O  O374  1  0.88850982  0.48563301  0.50413868  1
  O  O375  1  0.88734491  0.49699880  0.99145738  1
  O  O376  1  0.87958602  0.99351557  0.49507544  1
  O  O377  1  0.87358260  0.98124966  1.00338566  1
  O  O378  1  0.11818938  -0.00073933  0.00836347  1
  O  O379  1  0.11976612  0.01023420  0.50530455  1
  O  O380  1  0.12168649  0.50276019  0.01074987  1
  O  O381  1  0.11642433  0.52026687  0.49307217  1
  O  O382  1  0.61406863  -0.01899258  0.01300624  1
  O  O383  1  0.59786994  -0.01270449  0.49897541  1
  O  O384  1  0.60533867  0.48757781  0.02103872  1
  O  O385  1  0.63048956  0.50722810  0.51294095  1
  O  O386  1  0.36064374  0.37719136  0.12992280  1
  O  O387  1  0.38717777  0.37843036  0.60378534  1
  O  O388  1  0.35531598  0.87853061  0.12332281  1
  O  O389  1  0.37298475  0.85754478  0.63413626  1
  O  O390  1  0.87413313  0.37681415  0.10548983  1
  O  O391  1  0.85951219  0.38415885  0.61817018  1
  O  O392  1  0.88214086  0.87651027  0.12168639  1
  O  O393  1  0.88596724  0.87006585  0.61073770  1
  O  O394  1  0.13752942  0.11583468  0.38489882  1
  O  O395  1  0.12988879  0.14020585  0.87311869  1
  O  O396  1  0.11736460  0.63667665  0.39079057  1
  O  O397  1  0.12824682  0.62897927  0.88232776  1
  O  O398  1  0.58877963  0.12369326  0.39783791  1
  O  O399  1  0.60956076  0.14605489  0.88944565  1
  O  O400  1  0.62812142  0.63193763  0.37675142  1
  O  O401  1  0.63884449  0.58441215  0.88598184  1
