# generated using pymatgen
data_V73Zn73O256
_symmetry_space_group_name_H-M   'P 1'
_cell_length_a   16.86871884
_cell_length_b   16.93620617
_cell_length_c   16.90740109
_cell_angle_alpha   89.92217138
_cell_angle_beta   90.19966314
_cell_angle_gamma   90.34300130
_symmetry_Int_Tables_number   1
_chemical_formula_structural   V73Zn73O256
_chemical_formula_sum   'V73 Zn73 O256'
_cell_volume   4830.19072327
_cell_formula_units_Z   1
loop_
 _symmetry_equiv_pos_site_id
 _symmetry_equiv_pos_as_xyz
  1  'x, y, z'
loop_
 _atom_site_type_symbol
 _atom_site_label
 _atom_site_symmetry_multiplicity
 _atom_site_fract_x
 _atom_site_fract_y
 _atom_site_fract_z
 _atom_site_occupancy
  V  V0  1  -0.00775024  0.24669989  0.24150604  1
  V  V1  1  0.86990590  -0.00395443  0.88025062  1
  V  V2  1  0.87771097  0.87610858  0.49693299  1
  V  V3  1  0.00572768  -0.00497257  -0.00664874  1
  V  V4  1  0.87639676  0.11270695  0.24745064  1
  V  V5  1  0.37661536  0.25068664  0.12193969  1
  V  V6  1  0.39904318  0.00093190  0.88345704  1
  V  V7  1  0.36294575  0.87441105  0.01092871  1
  V  V8  1  0.63696588  0.37134321  0.73570999  1
  V  V9  1  0.25187558  0.25120117  -0.00136379  1
  V  V10  1  0.50361012  0.50596094  0.49978444  1
  V  V11  1  0.00006180  0.61555052  0.11554452  1
  V  V12  1  0.24633736  0.11742191  0.37359540  1
  V  V13  1  0.25463938  0.01920886  0.75784585  1
  V  V14  1  0.75095842  0.62985020  0.88356667  1
  V  V15  1  0.51936120  0.01661093  0.49856850  1
  V  V16  1  0.75719254  0.50508856  0.75387370  1
  V  V17  1  0.37407642  0.50607640  0.86118753  1
  V  V18  1  0.00368645  0.11407839  0.61503579  1
  V  V19  1  0.88149254  0.24914539  0.62741954  1
  V  V20  1  0.61873277  0.87633714  0.75247610  1
  V  V21  1  0.11989081  0.76853792  0.37034135  1
  V  V22  1  0.87365247  0.49692297  0.37611985  1
  V  V23  1  0.51924115  0.38891578  0.85252540  1
  V  V24  1  0.74891751  0.50134925  0.24939277  1
  V  V25  1  0.25073869  0.76112134  0.51469941  1
  V  V26  1  0.73628304  0.86640258  0.61951672  1
  V  V27  1  0.75314000  0.11940658  0.37087237  1
  V  V28  1  0.63109047  0.00676211  0.12584838  1
  V  V29  1  0.88118373  0.12549995  0.75201955  1
  V  V30  1  0.49001633  0.63902986  0.12364161  1
  V  V31  1  0.25009863  -0.01320464  0.24124371  1
  V  V32  1  -0.00086666  0.12404545  0.12345869  1
  V  V33  1  0.37605307  0.49364763  0.37951148  1
  V  V34  1  0.48978582  0.62721225  0.62630095  1
  V  V35  1  0.49361379  0.74384383  0.75319628  1
  V  V36  1  0.12254226  0.37579592  0.24784824  1
  V  V37  1  0.24555513  0.38819158  0.64066909  1
  V  V38  1  0.38813066  0.38946189  0.00187469  1
  V  V39  1  0.88825985  0.75470109  0.62589404  1
  V  V40  1  0.61341399  0.49899880  0.12374454  1
  V  V41  1  -0.02024868  0.37782005  0.87527820  1
  V  V42  1  0.00387037  0.86695330  0.86602774  1
  V  V43  1  0.14742211  0.74036570  0.86938257  1
  V  V44  1  0.49930351  0.24209392  0.25134573  1
  V  V45  1  0.88158961  0.63983965  0.25140591  1
  V  V46  1  0.00010477  0.37205208  0.37987134  1
  V  V47  1  0.74688918  0.84573702  0.11380035  1
  V  V48  1  0.37388924  0.62982741  0.24995050  1
  V  V49  1  0.62649133  0.75732322  0.88470010  1
  V  V50  1  0.12886566  -0.01988386  0.12221138  1
  V  V51  1  0.62704571  0.23864626  0.37802690  1
  V  V52  1  0.13285244  0.87911273  0.73736701  1
  V  V53  1  0.24459503  0.37696494  0.12667822  1
  V  V54  1  0.74431062  0.00094643  0.74227765  1
  V  V55  1  0.87846752  -0.00493310  0.37432023  1
  V  V56  1  0.12243462  0.23746145  0.38003287  1
  V  V57  1  0.12507753  0.26997214  0.87085508  1
  V  V58  1  0.61954792  0.61736827  0.00116816  1
  V  V59  1  0.61711275  0.86241312  0.25469599  1
  V  V60  1  0.38207912  0.88358637  0.48256235  1
  V  V61  1  0.62663791  0.37276613  0.25228451  1
  V  V62  1  0.64209803  0.51491743  0.61714258  1
  V  V63  1  0.12976900  0.12815793  -0.00698647  1
  V  V64  1  0.75641053  0.36588978  0.11153157  1
  V  V65  1  0.37057093  0.12021753  0.24714641  1
  V  V66  1  0.74883516  0.24460202  0.50877694  1
  V  V67  1  0.88000190  0.63963070  0.75216838  1
  V  V68  1  0.87352511  0.37263272  0.50344126  1
  V  V69  1  0.49768936  0.37192901  0.38336914  1
  V  V70  1  0.73891571  0.63135018  0.38853872  1
  V  V71  1  0.26900048  0.24986216  0.49975512  1
  V  V72  1  0.24946209  0.49568451  0.25663766  1
  Zn  Zn73  1  0.50035605  0.11171809  0.10420362  1
  Zn  Zn74  1  0.02231868  -0.00039151  0.48300050  1
  Zn  Zn75  1  0.31302332  0.65503836  0.79412542  1
  Zn  Zn76  1  0.20600011  0.60941956  0.42351193  1
  Zn  Zn77  1  0.04630308  0.56148721  0.52765858  1
  Zn  Zn78  1  0.63147997  0.25225605  0.91256694  1
  Zn  Zn79  1  0.15544121  0.01440546  0.61316745  1
  Zn  Zn80  1  0.30547588  0.16933495  0.83432577  1
  Zn  Zn81  1  0.97589415  0.49182588  1.00537808  1
  Zn  Zn82  1  0.18163946  0.18599774  0.18660424  1
  Zn  Zn83  1  0.18021611  0.20946771  0.67657361  1
  Zn  Zn84  1  0.16591363  0.67311641  0.22954432  1
  Zn  Zn85  1  0.16479851  0.68665423  0.69155752  1
  Zn  Zn86  1  0.69169196  0.18405518  0.18489639  1
  Zn  Zn87  1  0.67480858  0.17228033  0.78579603  1
  Zn  Zn88  1  0.68226592  0.68666714  0.19411994  1
  Zn  Zn89  1  0.68542872  0.68989641  0.68936598  1
  Zn  Zn90  1  0.31222764  0.30803036  0.31539599  1
  Zn  Zn91  1  0.32368339  0.33503847  0.80075601  1
  Zn  Zn92  1  0.30307224  0.80358716  0.32083581  1
  Zn  Zn93  1  0.31430784  0.83058373  0.81455753  1
  Zn  Zn94  1  0.81146070  0.30790076  0.31044057  1
  Zn  Zn95  1  0.80292145  0.30567413  0.81333707  1
  Zn  Zn96  1  0.77195303  0.82724190  0.32377160  1
  Zn  Zn97  1  0.80964568  0.81555713  0.81346140  1
  Zn  Zn98  1  0.18870517  0.43745378  0.45637343  1
  Zn  Zn99  1  0.19331472  0.45313163  0.94194941  1
  Zn  Zn100  1  0.19882677  0.93945796  0.44214093  1
  Zn  Zn101  1  0.19215472  0.93605308  0.93093808  1
  Zn  Zn102  1  0.69040132  0.43521888  0.43994019  1
  Zn  Zn103  1  0.80281154  0.43928742  0.94349090  1
  Zn  Zn104  1  0.67881920  0.94144047  0.44108147  1
  Zn  Zn105  1  0.68789043  0.93917724  0.94684192  1
  Zn  Zn106  1  0.31488550  0.06086676  0.05697142  1
  Zn  Zn107  1  0.35337385  0.03758759  0.58137255  1
  Zn  Zn108  1  0.29577481  0.56346172  0.06093160  1
  Zn  Zn109  1  0.27647882  0.58249093  0.61151306  1
  Zn  Zn110  1  0.84737459  -0.00608404  0.10393396  1
  Zn  Zn111  1  0.81026756  0.06091050  0.56198341  1
  Zn  Zn112  1  0.80716057  0.57296272  0.07058054  1
  Zn  Zn113  1  0.84615963  0.58078193  0.54815822  1
  Zn  Zn114  1  0.43544441  0.43440551  0.19337259  1
  Zn  Zn115  1  0.43270450  0.43300659  0.67216738  1
  Zn  Zn116  1  0.44458422  0.93316001  0.18320897  1
  Zn  Zn117  1  0.42659556  0.94040249  0.69074370  1
  Zn  Zn118  1  0.93638687  0.43893307  0.18749798  1
  Zn  Zn119  1  0.93826073  0.43699674  0.69193405  1
  Zn  Zn120  1  0.92368658  0.81815469  0.18340087  1
  Zn  Zn121  1  0.93563967  0.93706571  0.68845885  1
  Zn  Zn122  1  0.05445303  -0.07609368  0.30072178  1
  Zn  Zn123  1  0.06802583  0.06380178  0.80763596  1
  Zn  Zn124  1  0.06369913  0.55829421  0.33487563  1
  Zn  Zn125  1  0.05036887  0.56532427  0.82951855  1
  Zn  Zn126  1  0.56270385  0.04608206  0.30533365  1
  Zn  Zn127  1  0.57100103  0.07323496  0.93197821  1
  Zn  Zn128  1  0.55826422  0.56687724  0.30943849  1
  Zn  Zn129  1  0.56708357  0.56166117  0.81135366  1
  Zn  Zn130  1  0.43829143  0.17195686  0.43375789  1
  Zn  Zn131  1  0.47076730  0.19419899  0.84901410  1
  Zn  Zn132  1  0.38858978  0.66044070  0.46559519  1
  Zn  Zn133  1  0.43993416  0.69069505  0.93949075  1
  Zn  Zn134  1  0.93763647  0.18484832  0.43667271  1
  Zn  Zn135  1  0.95009988  0.18163981  0.92636292  1
  Zn  Zn136  1  0.93755521  0.69549249  0.43364487  1
  Zn  Zn137  1  0.93909412  0.68485279  0.94327571  1
  Zn  Zn138  1  0.05702881  0.31416532  0.05746621  1
  Zn  Zn139  1  0.06652882  0.30867508  0.56544816  1
  Zn  Zn140  1  0.06712436  0.80193607  0.04861849  1
  Zn  Zn141  1  0.06648580  0.81485838  0.55364895  1
  Zn  Zn142  1  0.56407809  0.31175487  0.06718893  1
  Zn  Zn143  1  0.57503341  0.32092461  0.56010190  1
  Zn  Zn144  1  0.55103940  0.82577767  0.06503570  1
  Zn  Zn145  1  0.51391572  0.84024392  0.58971060  1
  O  O146  1  0.11570361  0.12259832  0.11317392  1
  O  O147  1  0.10512891  0.12804060  0.63215758  1
  O  O148  1  0.08945783  0.65159658  0.14650026  1
  O  O149  1  0.09352629  0.60487801  0.63424419  1
  O  O150  1  0.61959163  0.11159671  0.13991496  1
  O  O151  1  0.52440434  0.20023119  0.66003895  1
  O  O152  1  0.61082312  0.61882331  0.12307897  1
  O  O153  1  0.61899498  0.61687220  0.62462468  1
  O  O154  1  0.38944583  0.37930850  0.36524430  1
  O  O155  1  0.39253059  0.38810437  0.88936304  1
  O  O156  1  0.37854137  0.86324957  0.38356133  1
  O  O157  1  0.37229777  0.89607920  0.88338473  1
  O  O158  1  0.88126857  0.37444162  0.38017700  1
  O  O159  1  0.87392828  0.36931991  0.87999096  1
  O  O160  1  0.85601403  0.88022481  0.39069267  1
  O  O161  1  0.88906731  0.88894127  0.86286836  1
  O  O162  1  0.23916385  0.01156034  0.35250126  1
  O  O163  1  0.24751892  0.01056407  0.86247021  1
  O  O164  1  0.26178112  0.49184889  0.37010826  1
  O  O165  1  0.27508374  0.49177857  0.86690691  1
  O  O166  1  0.75621007  0.01529249  0.38302199  1
  O  O167  1  0.76526246  -0.00976408  0.86744136  1
  O  O168  1  0.75541666  0.49987023  0.36660657  1
  O  O169  1  0.75276924  0.51301072  0.85970032  1
  O  O170  1  0.25701176  0.48167961  0.14309471  1
  O  O171  1  0.22535124  0.47964126  0.59883163  1
  O  O172  1  0.23733179  1.00660167  0.12942409  1
  O  O173  1  0.26549604  1.01151321  0.64750037  1
  O  O174  1  0.73635590  0.49447563  0.13562111  1
  O  O175  1  0.74383540  0.51486062  0.62865329  1
  O  O176  1  0.73328306  0.99896614  0.11564594  1
  O  O177  1  0.75534247  0.98723882  0.63756868  1
  O  O178  1  0.00316404  0.36581882  0.25477058  1
  O  O179  1  -0.00952452  0.37705824  0.77348935  1
  O  O180  1  0.01174174  0.87462366  0.21300624  1
  O  O181  1  0.01361849  0.89006013  0.76075221  1
  O  O182  1  0.50961728  0.36494047  0.25983446  1
  O  O183  1  0.51541920  0.37937941  0.74758680  1
  O  O184  1  0.51550071  0.88025469  0.25450865  1
  O  O185  1  0.51008997  0.86016567  0.73817683  1
  O  O186  1  0.48906705  0.13407758  0.25612769  1
  O  O187  1  0.44134028  0.13500891  0.68558139  1
  O  O188  1  0.48522628  0.61898897  0.23702450  1
  O  O189  1  0.50862173  0.63451568  0.74059669  1
  O  O190  1  0.99227247  0.13180428  0.23891256  1
  O  O191  1  0.98518675  0.11972119  0.74045057  1
  O  O192  1  0.98070439  0.61756120  0.25747563  1
  O  O193  1  0.97733114  0.62381271  0.75953706  1
  O  O194  1  0.36745131  0.26523741  0.01199593  1
  O  O195  1  0.36718342  0.24926198  0.47910824  1
  O  O196  1  0.38045273  0.76834776  -0.00785893  1
  O  O197  1  0.36302474  0.76436920  0.50428654  1
  O  O198  1  0.85215109  0.22428752  -0.00349293  1
  O  O199  1  0.86900559  0.25442097  0.50384920  1
  O  O200  1  0.91202078  0.75028273  0.03460818  1
  O  O201  1  0.87232168  0.76657216  0.51271354  1
  O  O202  1  0.12347896  0.24235642  0.48076298  1
  O  O203  1  0.13441194  0.24707732  0.99681136  1
  O  O204  1  0.13473512  0.75199761  0.49040580  1
  O  O205  1  0.12753083  0.74969090  0.96810617  1
  O  O206  1  0.63964351  0.25304578  0.49275137  1
  O  O207  1  0.60107165  0.21383856  1.01911014  1
  O  O208  1  0.55871835  0.76343170  0.42479936  1
  O  O209  1  0.61463617  0.74243494  0.98605365  1
  O  O210  1  0.49069969  0.25506040  0.14169576  1
  O  O211  1  0.49297533  0.25098756  0.61436659  1
  O  O212  1  0.49540179  0.73648922  0.12687039  1
  O  O213  1  0.50735588  0.73450774  0.63654872  1
  O  O214  1  1.00243300  0.23799214  0.12991094  1
  O  O215  1  0.98669649  0.23578070  0.61783849  1
  O  O216  1  0.97384814  0.74253022  0.09410368  1
  O  O217  1  0.98713006  0.75822108  0.62476257  1
  O  O218  1  0.00687368  0.25104521  0.36587057  1
  O  O219  1  0.01298129  0.26713105  0.88516426  1
  O  O220  1  0.01784866  0.75066560  0.37796634  1
  O  O221  1  -0.00556095  0.76712607  0.87328723  1
  O  O222  1  0.50782800  0.25284991  0.36994839  1
  O  O223  1  0.51996771  0.29469796  0.89650720  1
  O  O224  1  0.50583466  0.73984125  0.38084051  1
  O  O225  1  0.51696565  0.73877377  0.86038536  1
  O  O226  1  0.25392283  0.12912786  0.47268884  1
  O  O227  1  0.24321609  0.14009529  1.00711941  1
  O  O228  1  0.27595179  0.63785697  0.50739906  1
  O  O229  1  0.25779470  0.70742020  1.06188925  1
  O  O230  1  0.75951599  0.13820251  0.48871281  1
  O  O231  1  0.79478951  0.17775627  1.00346848  1
  O  O232  1  0.75433668  0.61432533  0.48695881  1
  O  O233  1  0.73639394  0.62715456  0.99131881  1
  O  O234  1  0.25723778  0.36891659  0.01145272  1
  O  O235  1  0.24484897  0.35074565  0.49703742  1
  O  O236  1  0.26096662  0.87493425  -0.00558972  1
  O  O237  1  0.26279602  0.86753924  0.50465460  1
  O  O238  1  0.73890654  0.37263639  0.01136277  1
  O  O239  1  0.76130569  0.35701617  0.49210140  1
  O  O240  1  0.73843914  0.86425683  0.01259129  1
  O  O241  1  0.75252247  0.88149404  0.51734679  1
  O  O242  1  0.13445478  0.48283435  0.26359195  1
  O  O243  1  0.07984091  0.53478025  0.67825187  1
  O  O244  1  0.13615299  0.98821399  0.23085012  1
  O  O245  1  0.13723920  0.99798069  0.74364202  1
  O  O246  1  0.62951235  0.49004858  0.24670748  1
  O  O247  1  0.64027350  0.50336512  0.73513821  1
  O  O248  1  0.62735769  0.98676319  0.23522195  1
  O  O249  1  0.64191870  0.98816620  0.75856858  1
  O  O250  1  0.36236541  0.01333509  0.23231218  1
  O  O251  1  0.36611036  -0.00019938  0.76796105  1
  O  O252  1  0.36781234  0.49800027  0.26066003  1
  O  O253  1  0.39062418  0.49412971  0.76245416  1
  O  O254  1  0.87037624  0.00936004  0.26135659  1
  O  O255  1  0.86665377  0.00685930  0.75662161  1
  O  O256  1  0.86238370  0.49629617  0.26019401  1
  O  O257  1  0.86220376  0.51847514  0.73515738  1
  O  O258  1  0.11451135  0.36058435  0.36690508  1
  O  O259  1  0.13040008  0.37139785  0.88491461  1
  O  O260  1  0.12032034  0.87632043  0.38332667  1
  O  O261  1  0.11826711  0.86956393  0.86381660  1
  O  O262  1  0.61997085  0.36366383  0.36946857  1
  O  O263  1  0.62459543  0.39245063  0.84698832  1
  O  O264  1  0.65398336  0.87442950  0.35484207  1
  O  O265  1  0.63057346  0.86287541  0.86919256  1
  O  O266  1  0.38033849  0.13634195  0.12647795  1
  O  O267  1  0.38837380  0.15016313  0.63648431  1
  O  O268  1  0.38238843  0.61391556  0.13056660  1
  O  O269  1  0.39219094  0.61562527  0.63314946  1
  O  O270  1  0.89146720  0.09941999  0.13234895  1
  O  O271  1  0.88040412  0.12749556  0.63322520  1
  O  O272  1  0.88479909  0.62105971  0.14342691  1
  O  O273  1  0.86379136  0.64785394  0.64051449  1
  O  O274  1  0.25762374  0.25743447  0.12236806  1
  O  O275  1  0.26304367  0.22174562  0.59647800  1
  O  O276  1  0.23705305  0.74470733  0.12134257  1
  O  O277  1  0.22792191  0.74851866  0.61196634  1
  O  O278  1  0.74399948  0.26731480  0.13085461  1
  O  O279  1  0.76264835  0.24341488  0.60921374  1
  O  O280  1  0.74740970  0.74476962  0.11860486  1
  O  O281  1  0.75272143  0.76470161  0.62956083  1
  O  O282  1  0.23718941  0.24244029  0.37408018  1
  O  O283  1  0.24211917  0.25651088  0.88905005  1
  O  O284  1  0.23702208  0.74793414  0.39559886  1
  O  O285  1  0.25127425  0.74115736  0.85705360  1
  O  O286  1  0.74453495  0.24125036  0.38075171  1
  O  O287  1  0.73073164  0.23813130  0.86499019  1
  O  O288  1  0.75319225  0.72972761  0.37730240  1
  O  O289  1  0.73537403  0.74328457  0.86954562  1
  O  O290  1  0.00731850  0.11724785  0.00431728  1
  O  O291  1  -0.00830987  0.11602616  0.51022018  1
  O  O292  1  0.00276752  0.61331637  0.01066584  1
  O  O293  1  -0.04835856  0.61303484  0.50722357  1
  O  O294  1  0.52785619  0.16590782  0.00346043  1
  O  O295  1  0.50261511  0.11954764  0.50652999  1
  O  O296  1  0.50507123  0.62634931  0.01450584  1
  O  O297  1  0.49328034  0.61727677  0.51247709  1
  O  O298  1  0.50801471  0.38398977  0.48919127  1
  O  O299  1  0.48667390  0.38271412  1.01966033  1
  O  O300  1  0.49331144  0.89468520  0.49160241  1
  O  O301  1  0.47630744  0.85795823  0.98960880  1
  O  O302  1  0.99389537  0.36489244  0.48840697  1
  O  O303  1  0.99673174  0.37920607  0.99040295  1
  O  O304  1  0.98049471  0.88277047  0.50575893  1
  O  O305  1  1.01161502  0.88797417  0.98011915  1
  O  O306  1  0.49949884  0.49038515  0.37911657  1
  O  O307  1  0.50106617  0.49161078  0.87743096  1
  O  O308  1  0.50536024  1.01316040  0.39530392  1
  O  O309  1  0.49807824  0.99635962  0.87727577  1
  O  O310  1  0.98386884  0.48270985  0.36702038  1
  O  O311  1  1.00417299  0.48351804  0.88425351  1
  O  O312  1  0.98290543  0.98923409  0.37194816  1
  O  O313  1  0.99525447  0.99855782  0.87851475  1
  O  O314  1  0.01860808  0.00555815  0.10810821  1
  O  O315  1  -0.00557409  0.01179541  0.62342486  1
  O  O316  1  0.00276772  0.51071647  0.12696466  1
  O  O317  1  0.02923841  0.48693836  0.63017288  1
  O  O318  1  0.51542718  -0.00039784  0.12081346  1
  O  O319  1  0.46929177  0.00741171  0.60308694  1
  O  O320  1  0.51100681  0.49937891  0.13489855  1
  O  O321  1  0.50910064  0.50881656  0.61768787  1
  O  O322  1  0.24219909  0.37409320  0.24710694  1
  O  O323  1  0.24600895  0.39103027  0.74344713  1
  O  O324  1  0.26595853  0.89110397  0.25124167  1
  O  O325  1  0.23749093  0.89048301  0.75126376  1
  O  O326  1  0.73909899  0.38064834  0.25135873  1
  O  O327  1  0.74821069  0.39507221  0.74875069  1
  O  O328  1  0.73431254  0.86694001  0.22522105  1
  O  O329  1  0.74274688  0.88087833  0.74116204  1
  O  O330  1  0.25483716  0.12198824  0.24952642  1
  O  O331  1  0.24140353  0.12324072  0.75117370  1
  O  O332  1  0.26224643  0.60483183  0.23846068  1
  O  O333  1  0.24660941  0.61332791  0.71706975  1
  O  O334  1  0.76645637  0.13577919  0.25984341  1
  O  O335  1  0.75778506  0.10640680  0.74373728  1
  O  O336  1  0.75707962  0.61347806  0.25204251  1
  O  O337  1  0.75323404  0.62165498  0.75998647  1
  O  O338  1  0.35831834  0.13072563  0.35656627  1
  O  O339  1  0.38856196  0.10942068  0.88728689  1
  O  O340  1  0.38185744  0.60833484  0.35926884  1
  O  O341  1  0.38287005  0.61237490  0.87585444  1
  O  O342  1  0.87276298  0.11547527  0.36863281  1
  O  O343  1  0.88143666  0.11246998  0.86075990  1
  O  O344  1  0.86296568  0.61404442  0.36388148  1
  O  O345  1  0.86243630  0.64572721  0.86390003  1
  O  O346  1  0.13246836  0.36552695  0.13626120  1
  O  O347  1  0.15502611  0.32622743  0.63186484  1
  O  O348  1  0.13024778  0.88372438  0.10310907  1
  O  O349  1  0.11618745  0.88093611  0.63729738  1
  O  O350  1  0.63042534  0.38038039  0.13528541  1
  O  O351  1  0.62546607  0.39676225  0.63068812  1
  O  O352  1  0.62912257  0.87682833  0.12934376  1
  O  O353  1  0.63079321  0.86944685  0.63360251  1
  O  O354  1  0.11402803  0.25663566  0.25490911  1
  O  O355  1  0.13235173  0.24993386  0.77458652  1
  O  O356  1  0.14696668  0.77793308  0.27035913  1
  O  O357  1  0.12480270  0.77150340  0.75697195  1
  O  O358  1  0.61838514  0.25535890  0.25784987  1
  O  O359  1  0.64225799  0.27349946  0.72777679  1
  O  O360  1  0.61638152  0.75963998  0.24782895  1
  O  O361  1  0.61961731  0.75858910  0.75903972  1
  O  O362  1  0.37933371  0.24404040  0.24160952  1
  O  O363  1  0.38442566  0.24326337  0.79117117  1
  O  O364  1  0.36106862  0.72707457  0.25424684  1
  O  O365  1  0.39216415  0.75160247  0.76322673  1
  O  O366  1  0.88711186  0.23998765  0.25504142  1
  O  O367  1  0.86477380  0.23315504  0.74185743  1
  O  O368  1  0.87385846  0.74019117  0.25573024  1
  O  O369  1  0.87271956  0.74952220  0.74046687  1
  O  O370  1  0.39217960  0.49938904  0.48487452  1
  O  O371  1  0.37139365  0.49000232  0.99978472  1
  O  O372  1  0.35879531  0.98486189  0.48193801  1
  O  O373  1  0.37727385  0.99201879  0.99294189  1
  O  O374  1  0.86385989  0.48065154  0.48761521  1
  O  O375  1  0.86485498  0.51673696  0.99420611  1
  O  O376  1  0.87036515  0.98878474  0.49321160  1
  O  O377  1  0.88622844  1.00158731  0.98471256  1
  O  O378  1  0.12551657  0.00953535  0.00151843  1
  O  O379  1  0.13127689  0.00081444  0.50583074  1
  O  O380  1  0.19971304  0.54532342  0.00389126  1
  O  O381  1  0.12190754  0.52664314  0.45310859  1
  O  O382  1  0.62299743  0.00785370  0.00673652  1
  O  O383  1  0.61940798  0.00415293  0.51347542  1
  O  O384  1  0.62551504  0.51399538  0.01250275  1
  O  O385  1  0.62007696  0.49676829  0.50982088  1
  O  O386  1  0.36730084  0.36885317  0.12275501  1
  O  O387  1  0.34879305  0.37214910  0.62743379  1
  O  O388  1  0.37185949  0.88268543  0.11179276  1
  O  O389  1  0.39779640  0.86938167  0.60566202  1
  O  O390  1  0.85519732  0.38352585  0.12789293  1
  O  O391  1  0.88629404  0.36515851  0.61437153  1
  O  O392  1  0.84976779  0.88069248  0.12329941  1
  O  O393  1  0.86485459  0.86860424  0.62175258  1
  O  O394  1  0.13444073  0.13642376  0.36094400  1
  O  O395  1  0.11412930  0.13848636  0.88905194  1
  O  O396  1  0.13413293  0.64497082  0.34220427  1
  O  O397  1  0.12549471  0.64340127  0.84737245  1
  O  O398  1  0.63483838  0.13498209  0.36260451  1
  O  O399  1  0.58022209  0.15167455  0.84809131  1
  O  O400  1  0.63922676  0.61484692  0.37045915  1
  O  O401  1  0.63139555  0.63117054  0.88229859  1
