# generated using pymatgen
data_V73Zn73O256
_symmetry_space_group_name_H-M   'P 1'
_cell_length_a   16.86682804
_cell_length_b   16.91641699
_cell_length_c   16.86621949
_cell_angle_alpha   89.74851811
_cell_angle_beta   89.75659132
_cell_angle_gamma   89.98523240
_symmetry_Int_Tables_number   1
_chemical_formula_structural   V73Zn73O256
_chemical_formula_sum   'V73 Zn73 O256'
_cell_volume   4812.28602245
_cell_formula_units_Z   1
loop_
 _symmetry_equiv_pos_site_id
 _symmetry_equiv_pos_as_xyz
  1  'x, y, z'
loop_
 _atom_site_type_symbol
 _atom_site_label
 _atom_site_symmetry_multiplicity
 _atom_site_fract_x
 _atom_site_fract_y
 _atom_site_fract_z
 _atom_site_occupancy
  V  V0  1  0.62084036  0.12306904  0.51055192  1
  V  V1  1  0.87434696  0.24001469  0.62792740  1
  V  V2  1  0.00210851  0.25477855  0.75757129  1
  V  V3  1  0.62879749  0.62622323  -0.00316128  1
  V  V4  1  0.25661942  0.38238619  0.60923243  1
  V  V5  1  0.01372120  0.01037215  0.50588681  1
  V  V6  1  0.25743407  0.37580024  0.11574886  1
  V  V7  1  0.49718129  0.75786722  0.74906801  1
  V  V8  1  0.25357014  0.23441215  -0.00197977  1
  V  V9  1  -0.00362374  0.73866168  0.74873227  1
  V  V10  1  0.87755178  0.87195615  0.51138385  1
  V  V11  1  0.00274341  0.73707852  0.24672583  1
  V  V12  1  0.11753766  0.62605616  0.00348059  1
  V  V13  1  0.75684107  0.25293947  0.50213148  1
  V  V14  1  0.77563386  0.11912605  0.87871150  1
  V  V15  1  0.75513161  0.38771180  0.62200039  1
  V  V16  1  0.13753142  0.38543992  0.75144634  1
  V  V17  1  -0.01721799  0.38231486  0.38876526  1
  V  V18  1  0.36192584  0.12431501  0.76322308  1
  V  V19  1  0.49540474  0.63482941  0.12100060  1
  V  V20  1  0.49938458  0.50023882  -0.00040395  1
  V  V21  1  0.63611452  0.38776828  0.74492939  1
  V  V22  1  0.37102558  -0.00517501  0.37943775  1
  V  V23  1  0.12668052  0.75217423  0.87570960  1
  V  V24  1  0.25313945  0.61946145  0.86605219  1
  V  V25  1  0.37069296  0.74018057  0.62806679  1
  V  V26  1  0.49819120  0.12164081  0.11272089  1
  V  V27  1  0.87744907  0.12391506  0.24216065  1
  V  V28  1  0.25198986  0.73943438  0.50081801  1
  V  V29  1  0.12699993  0.24549996  0.38748697  1
  V  V30  1  0.12703978  0.88766174  0.74376896  1
  V  V31  1  0.13949328  -0.01348974  0.13201364  1
  V  V32  1  0.51715407  0.61860888  0.62368018  1
  V  V33  1  0.62238490  0.76118192  0.86488245  1
  V  V34  1  0.75039316  0.12446920  0.37759346  1
  V  V35  1  0.25147915  0.87919868  0.62188295  1
  V  V36  1  0.86019748  0.75596413  0.13740238  1
  V  V37  1  0.37402979  0.50160806  0.38398078  1
  V  V38  1  0.49230449  0.25053756  0.24222392  1
  V  V39  1  0.74913478  0.77112573  -0.00035379  1
  V  V40  1  0.50543543  0.37243746  0.86507789  1
  V  V41  1  0.12733097  0.74181993  0.37507047  1
  V  V42  1  0.01041213  0.87562825  0.37145994  1
  V  V43  1  0.49434564  0.37487081  0.37737052  1
  V  V44  1  -0.00499556  -0.00569670  0.00075139  1
  V  V45  1  0.26219490  0.75545920  0.01210967  1
  V  V46  1  0.63367942  0.49163697  0.13337671  1
  V  V47  1  0.63265559  0.25724219  0.36499659  1
  V  V48  1  0.75007463  0.01159239  0.74763338  1
  V  V49  1  0.50721629  0.75368269  0.26379291  1
  V  V50  1  0.73923167  -0.00635437  0.24621203  1
  V  V51  1  0.74491319  0.64506352  0.38369146  1
  V  V52  1  -0.01757372  0.26490392  0.23461526  1
  V  V53  1  0.74219030  0.87978543  0.63307527  1
  V  V54  1  0.87854972  0.00025488  0.37781333  1
  V  V55  1  0.02066176  0.12853953  0.62727680  1
  V  V56  1  0.62740637  0.23790671  0.87550964  1
  V  V57  1  0.75800279  0.62321711  0.86550564  1
  V  V58  1  0.12565941  0.37244997  0.25073497  1
  V  V59  1  0.37267578  0.50316081  0.86368533  1
  V  V60  1  0.12105688  0.50403373  0.12586056  1
  V  V61  1  0.87487178  0.49276495  0.86564239  1
  V  V62  1  0.10996713  0.61569006  0.51494113  1
  V  V63  1  0.77586105  0.50621867  0.26420224  1
  V  V64  1  -0.01120600  0.48740142  0.00510886  1
  V  V65  1  0.48526866  -0.03973513  -0.04957097  1
  V  V66  1  0.01017501  0.12558430  0.11865252  1
  V  V67  1  -0.01260826  0.88079377  0.87683672  1
  V  V68  1  0.37638055  0.62649224  0.24578190  1
  V  V69  1  0.87765374  0.73632754  0.62851171  1
  V  V70  1  0.13168669  0.24355513  0.88397835  1
  V  V71  1  0.25380694  0.50387085  0.25088912  1
  V  V72  1  0.49459947  -0.00993101  0.50835816  1
  Zn  Zn73  1  0.61496351  -0.00222249  0.09914780  1
  Zn  Zn74  1  0.67451342  0.83873921  0.19495685  1
  Zn  Zn75  1  0.51512203  0.50037556  0.50462401  1
  Zn  Zn76  1  0.50116523  0.13793012  0.63752634  1
  Zn  Zn77  1  0.24037351  0.11959060  0.35778146  1
  Zn  Zn78  1  0.38239717  0.37116810  0.00188320  1
  Zn  Zn79  1  0.38302724  0.26176098  0.64155975  1
  Zn  Zn80  1  0.36412638  0.12306488  0.24429272  1
  Zn  Zn81  1  0.75748989  0.25497847  0.01169612  1
  Zn  Zn82  1  0.18327839  0.19214589  0.18077163  1
  Zn  Zn83  1  0.19614277  0.19801660  0.68887152  1
  Zn  Zn84  1  0.18695006  0.68831121  0.19072329  1
  Zn  Zn85  1  0.17919363  0.68305781  0.68731375  1
  Zn  Zn86  1  0.68121295  0.17568522  0.18116555  1
  Zn  Zn87  1  0.68443909  0.19598122  0.69590898  1
  Zn  Zn88  1  0.67948523  0.67017149  0.19327393  1
  Zn  Zn89  1  0.69457158  0.69384154  0.68459787  1
  Zn  Zn90  1  0.30980474  0.31315516  0.31211568  1
  Zn  Zn91  1  0.31406584  0.31012990  0.81182415  1
  Zn  Zn92  1  0.32506428  0.80804327  0.32446030  1
  Zn  Zn93  1  0.30658416  0.80960496  0.80801729  1
  Zn  Zn94  1  0.79233668  0.32568987  0.18322032  1
  Zn  Zn95  1  0.81301260  0.30720119  0.81609281  1
  Zn  Zn96  1  0.82189440  0.81157799  0.32142745  1
  Zn  Zn97  1  0.81000159  0.81411198  0.80904699  1
  Zn  Zn98  1  0.18211358  0.43769263  0.43713804  1
  Zn  Zn99  1  0.17542964  0.43354008  0.93411494  1
  Zn  Zn100  1  0.19436789  0.93365297  0.44207519  1
  Zn  Zn101  1  0.17912431  0.93225198  0.95381838  1
  Zn  Zn102  1  0.69613289  0.43671938  0.42747321  1
  Zn  Zn103  1  0.69379695  0.43545332  0.94385016  1
  Zn  Zn104  1  0.69187642  0.94203014  0.45084292  1
  Zn  Zn105  1  0.67478277  0.95020040  0.92611489  1
  Zn  Zn106  1  0.32735077  0.05484533  0.06112371  1
  Zn  Zn107  1  0.34432733  0.04061568  0.60539651  1
  Zn  Zn108  1  0.31074871  0.56680696  0.05673480  1
  Zn  Zn109  1  0.30768590  0.56217868  0.56802054  1
  Zn  Zn110  1  0.81298036  0.05660435  0.06163161  1
  Zn  Zn111  1  0.81684487  0.06138219  0.56662144  1
  Zn  Zn112  1  0.81569933  0.57693182  0.06969284  1
  Zn  Zn113  1  0.69122308  0.56663477  0.54715853  1
  Zn  Zn114  1  0.44537100  0.43676854  0.19108316  1
  Zn  Zn115  1  0.43538414  0.43951774  0.68436571  1
  Zn  Zn116  1  0.44436014  0.94454289  0.19939981  1
  Zn  Zn117  1  0.46785340  0.96550370  0.72467069  1
  Zn  Zn118  1  0.94211019  0.44586854  0.19594336  1
  Zn  Zn119  1  0.92858576  0.42651553  0.69644308  1
  Zn  Zn120  1  0.94057798  0.93239530  0.18527834  1
  Zn  Zn121  1  0.93910306  0.94635285  0.69474914  1
  Zn  Zn122  1  0.06588216  0.06472934  0.30570039  1
  Zn  Zn123  1  0.06542191  0.06626727  0.81444577  1
  Zn  Zn124  1  0.06097716  0.55907650  0.32337142  1
  Zn  Zn125  1  0.05813784  0.55952274  0.82073350  1
  Zn  Zn126  1  0.55741442  0.06397622  0.31803176  1
  Zn  Zn127  1  0.56681869  0.05799438  0.80754908  1
  Zn  Zn128  1  0.56685410  0.56625964  0.31619269  1
  Zn  Zn129  1  0.56456132  0.56815735  0.80704863  1
  Zn  Zn130  1  0.44440734  0.17187329  0.42068220  1
  Zn  Zn131  1  0.43205150  0.18628011  0.93117118  1
  Zn  Zn132  1  0.43982480  0.68230090  0.44031615  1
  Zn  Zn133  1  0.43823101  0.68983079  0.93348118  1
  Zn  Zn134  1  0.94303056  0.19615888  0.43321192  1
  Zn  Zn135  1  0.94195547  0.18259617  0.93640590  1
  Zn  Zn136  1  0.92906754  0.67583531  0.43770267  1
  Zn  Zn137  1  0.93276955  0.69336407  0.94453629  1
  Zn  Zn138  1  -0.07241485  0.31197581  0.05493334  1
  Zn  Zn139  1  0.06933610  0.32020732  0.56767493  1
  Zn  Zn140  1  0.06713393  0.81495067  0.06437742  1
  Zn  Zn141  1  0.06292622  0.81068683  0.56097358  1
  Zn  Zn142  1  0.57200550  0.31029915  0.05782607  1
  Zn  Zn143  1  0.56736814  0.31307921  0.56022121  1
  Zn  Zn144  1  0.55240684  0.81914662  0.05287764  1
  Zn  Zn145  1  0.55276152  0.81616452  0.56943757  1
  O  O146  1  0.11171415  0.11700673  0.12404407  1
  O  O147  1  0.11870074  0.13640300  0.62037063  1
  O  O148  1  0.13403367  0.61205942  0.11763616  1
  O  O149  1  0.11919805  0.62197132  0.61613722  1
  O  O150  1  0.60751861  0.11105386  0.12904413  1
  O  O151  1  0.62888301  0.13313568  0.61237666  1
  O  O152  1  0.61377959  0.61835298  0.11228091  1
  O  O153  1  0.62301751  0.63004520  0.62124409  1
  O  O154  1  0.38696691  0.38199443  0.37162756  1
  O  O155  1  0.38860297  0.38757914  0.87495915  1
  O  O156  1  0.36698060  0.89288445  0.38303741  1
  O  O157  1  0.32893054  0.91919431  0.86439118  1
  O  O158  1  0.88748616  0.36818692  0.37520729  1
  O  O159  1  0.86389139  0.39359500  0.87328064  1
  O  O160  1  0.88617141  0.88127502  0.39063976  1
  O  O161  1  0.88917532  0.87321037  0.87040193  1
  O  O162  1  0.26250509  0.00993528  0.39560758  1
  O  O163  1  0.27268663  -0.03091597  0.87324496  1
  O  O164  1  0.26668963  0.48813378  0.36397138  1
  O  O165  1  0.26070538  0.50911258  0.88296616  1
  O  O166  1  0.75998016  0.00556018  0.37583012  1
  O  O167  1  0.74945056  0.01292844  0.86613429  1
  O  O168  1  0.76184255  0.50786977  0.36868542  1
  O  O169  1  0.76185975  0.51532354  0.88334115  1
  O  O170  1  0.24615334  0.49463563  0.13138951  1
  O  O171  1  0.25603583  0.48434752  0.62909192  1
  O  O172  1  0.23803627  1.00341123  0.11047131  1
  O  O173  1  0.24851977  0.97752840  0.60882662  1
  O  O174  1  0.73637324  0.51721641  0.13002098  1
  O  O175  1  0.75755012  0.48533013  0.61476127  1
  O  O176  1  0.74348482  1.00667240  0.14341807  1
  O  O177  1  0.75006938  0.99029616  0.62995759  1
  O  O178  1  0.01132611  0.37515904  0.26186208  1
  O  O179  1  0.01236066  0.35879811  0.73765957  1
  O  O180  1  -0.00514185  0.86736843  0.26770933  1
  O  O181  1  0.00996006  0.87467372  0.76094412  1
  O  O182  1  0.50369466  0.36146075  0.26014669  1
  O  O183  1  0.51056867  0.38283096  0.76076477  1
  O  O184  1  0.48419391  0.84951459  0.24326016  1
  O  O185  1  0.50649097  0.85573117  0.73085943  1
  O  O186  1  0.50013349  0.14186457  0.25162239  1
  O  O187  1  0.48741267  0.11071176  0.74771953  1
  O  O188  1  0.49578758  0.63351499  0.24031402  1
  O  O189  1  0.50690187  0.63746794  0.73327190  1
  O  O190  1  0.99389707  0.13197397  0.23812215  1
  O  O191  1  1.00994045  0.13641089  0.73560500  1
  O  O192  1  1.00541023  0.63859568  0.25935775  1
  O  O193  1  1.00191426  0.64070997  0.75981050  1
  O  O194  1  0.35752011  0.25808846  -0.01059286  1
  O  O195  1  0.35343594  0.24100830  0.49137656  1
  O  O196  1  0.36140133  0.73889546  -0.00173281  1
  O  O197  1  0.35825608  0.74185108  0.50418865  1
  O  O198  1  0.87046440  0.25452686  -0.01862134  1
  O  O199  1  0.86378207  0.24162773  0.50740544  1
  O  O200  1  0.85071831  0.76073791  -0.00537482  1
  O  O201  1  0.89073544  0.76562640  0.51555562  1
  O  O202  1  0.12187373  0.25135384  0.48628475  1
  O  O203  1  0.13711699  0.25293147  0.98679049  1
  O  O204  1  0.12857079  0.73917616  0.49515413  1
  O  O205  1  0.12958625  0.74540333  0.99006638  1
  O  O206  1  0.63747677  0.24070961  0.49069341  1
  O  O207  1  0.63772179  0.25883573  0.97905778  1
  O  O208  1  0.62160488  0.78546755  0.46228365  1
  O  O209  1  0.62751166  0.74427049  0.98635627  1
  O  O210  1  0.51233199  0.24645828  0.13776255  1
  O  O211  1  0.49640536  0.25283626  0.62069893  1
  O  O212  1  0.49946481  0.73635951  0.12108849  1
  O  O213  1  0.49312538  0.73987292  0.62980243  1
  O  O214  1  0.99992366  0.23035050  0.12349798  1
  O  O215  1  0.99581149  0.24011031  0.62735811  1
  O  O216  1  1.01522366  0.75150360  0.14695939  1
  O  O217  1  0.99367831  0.75493727  0.64088972  1
  O  O218  1  0.01005114  0.25936052  0.36138629  1
  O  O219  1  0.00849839  0.24630949  0.86198951  1
  O  O220  1  0.01072227  0.75658625  0.37101518  1
  O  O221  1  0.00458273  0.76106599  0.86936849  1
  O  O222  1  0.51152126  0.25718336  0.36835501  1
  O  O223  1  0.51006264  0.26854146  0.88219963  1
  O  O224  1  0.49853851  0.74411163  0.36368469  1
  O  O225  1  0.51031734  0.74202263  0.85929333  1
  O  O226  1  0.29147571  0.20257009  0.50289280  1
  O  O227  1  0.25644754  0.13721747  1.00757656  1
  O  O228  1  0.23761423  0.63592509  0.50446818  1
  O  O229  1  0.23810323  0.63135911  0.99012735  1
  O  O230  1  0.74410147  0.12717008  0.49390652  1
  O  O231  1  0.75931501  0.11959839  0.98221570  1
  O  O232  1  0.75081083  0.64002471  0.48805421  1
  O  O233  1  0.73932235  0.63984132  0.99513788  1
  O  O234  1  0.25083503  0.38673349  0.01132368  1
  O  O235  1  0.24651889  0.37700384  0.50871846  1
  O  O236  1  0.24990414  0.85484271  -0.00393305  1
  O  O237  1  0.23346189  0.85260849  0.51654661  1
  O  O238  1  0.75677270  0.37251145  0.00880322  1
  O  O239  1  0.74433808  0.36236690  0.51283044  1
  O  O240  1  0.73507177  0.86870060  -0.00977273  1
  O  O241  1  0.77101370  0.88252360  0.51188647  1
  O  O242  1  0.13425227  0.49690814  0.24768054  1
  O  O243  1  0.11409176  0.48351025  0.76034656  1
  O  O244  1  0.12400730  1.00162668  0.23345742  1
  O  O245  1  0.12392343  0.98621503  0.75461873  1
  O  O246  1  0.61423660  0.50222003  0.23223768  1
  O  O247  1  0.62819240  0.48759249  0.75198558  1
  O  O248  1  0.64016376  0.99894151  0.26689474  1
  O  O249  1  0.64598316  0.99686206  0.75179205  1
  O  O250  1  0.38233949  0.00489874  0.27360335  1
  O  O251  1  0.36780299  0.01756123  0.72103104  1
  O  O252  1  0.37130304  0.50480467  0.25511012  1
  O  O253  1  0.37860747  0.50247910  0.76550278  1
  O  O254  1  0.87240709  0.00335763  0.26270171  1
  O  O255  1  0.85458294  -0.00200787  0.74676200  1
  O  O256  1  0.87382654  0.51963490  0.24176486  1
  O  O257  1  0.88769735  0.50571258  0.76655174  1
  O  O258  1  0.12677072  0.36573627  0.36279368  1
  O  O259  1  0.12423986  0.36131441  0.86293521  1
  O  O260  1  0.11675340  0.86354498  0.38725616  1
  O  O261  1  0.12388823  0.86522731  0.86443365  1
  O  O262  1  0.62177395  0.36003556  0.37401125  1
  O  O263  1  0.61773092  0.38029392  0.86696247  1
  O  O264  1  0.62935825  0.84248948  0.41322214  1
  O  O265  1  0.62567523  0.85870734  0.87026847  1
  O  O266  1  0.39127090  0.12550432  0.13065471  1
  O  O267  1  0.37989911  0.14323061  0.63452241  1
  O  O268  1  0.38514375  0.61332485  0.13380413  1
  O  O269  1  0.37859225  0.63598100  0.62612670  1
  O  O270  1  0.88478736  0.11128847  0.13754308  1
  O  O271  1  0.88108296  0.13618984  0.62632924  1
  O  O272  1  0.88515175  0.66215400  0.10556005  1
  O  O273  1  0.87155700  0.64169087  0.62575667  1
  O  O274  1  0.24035356  0.26851241  0.10806961  1
  O  O275  1  0.26134812  0.27212592  0.63389669  1
  O  O276  1  0.24593535  0.74231222  0.11149561  1
  O  O277  1  0.25177966  0.74550174  0.61841275  1
  O  O278  1  0.75372760  0.23899362  0.12703477  1
  O  O279  1  0.75719561  0.25031413  0.61957967  1
  O  O280  1  0.74996887  0.75732024  0.11973744  1
  O  O281  1  0.77129223  0.76605007  0.63507792  1
  O  O282  1  0.23004604  0.25149452  0.36498434  1
  O  O283  1  0.24237066  0.25369439  0.88673601  1
  O  O284  1  0.23859865  0.75819545  0.38845773  1
  O  O285  1  0.24416913  0.73872774  0.87954754  1
  O  O286  1  0.74238358  0.24030976  0.38169764  1
  O  O287  1  0.74332376  0.22961458  0.86794488  1
  O  O288  1  0.74124092  0.74598700  0.36008122  1
  O  O289  1  0.73999163  0.74595222  0.88038392  1
  O  O290  1  -0.00496072  0.11061981  0.01080303  1
  O  O291  1  -0.00238056  0.11719546  0.50770002  1
  O  O292  1  0.01452667  0.63062793  -0.00342291  1
  O  O293  1  0.01041700  0.63262863  0.49961155  1
  O  O294  1  0.49829357  0.14282186  0.01441865  1
  O  O295  1  0.51744245  0.13357034  0.50008912  1
  O  O296  1  0.50689790  0.61981731  0.00075440  1
  O  O297  1  0.49968572  0.62547011  0.51823586  1
  O  O298  1  0.50549338  0.37463067  0.48035226  1
  O  O299  1  0.50384662  0.38631771  0.98895327  1
  O  O300  1  0.49783336  0.89021452  0.50554858  1
  O  O301  1  0.47970409  0.86164790  0.97622035  1
  O  O302  1  1.00138902  0.36469401  0.48930048  1
  O  O303  1  0.99755503  0.38925503  1.00234864  1
  O  O304  1  0.99476136  0.88949541  0.49913571  1
  O  O305  1  1.00524997  0.87805442  0.98483412  1
  O  O306  1  0.49240954  0.48671485  0.36899666  1
  O  O307  1  0.49252288  0.49939559  0.87921614  1
  O  O308  1  0.48712242  1.01237840  0.39352170  1
  O  O309  1  0.49221115  0.97273654  0.84712651  1
  O  O310  1  1.00006464  0.48342865  0.37603854  1
  O  O311  1  0.98327893  0.50963564  0.89440814  1
  O  O312  1  0.99643376  0.99787170  0.38384034  1
  O  O313  1  1.00621137  0.99046565  0.88578056  1
  O  O314  1  0.00739778  0.00365687  0.11919412  1
  O  O315  1  -0.00080944  0.01627025  0.61708993  1
  O  O316  1  0.01051702  0.50009153  0.11682416  1
  O  O317  1  -0.02302139  0.49910964  0.60467331  1
  O  O318  1  0.49494254  0.01387441  0.12734280  1
  O  O319  1  0.49958187  0.01126155  0.61081573  1
  O  O320  1  0.50801752  0.50624672  0.11425218  1
  O  O321  1  0.50038824  0.51546216  0.62727234  1
  O  O322  1  0.24614651  0.38264866  0.23879742  1
  O  O323  1  0.24077029  0.37992129  0.75588437  1
  O  O324  1  0.27921709  0.86984702  0.22018408  1
  O  O325  1  0.23464853  0.86499243  0.73666193  1
  O  O326  1  0.75262474  0.40763103  0.24608904  1
  O  O327  1  0.74449695  0.37446546  0.73984942  1
  O  O328  1  0.75740459  0.88921484  0.25688387  1
  O  O329  1  0.75065464  0.88181434  0.73821492  1
  O  O330  1  0.25054453  0.13244229  0.24354547  1
  O  O331  1  0.25995539  0.12598756  0.74880944  1
  O  O332  1  0.25925975  0.61186808  0.24541311  1
  O  O333  1  0.24262528  0.62759598  0.76736011  1
  O  O334  1  0.75782906  0.11213187  0.26224769  1
  O  O335  1  0.74837060  0.11881537  0.75708311  1
  O  O336  1  0.74448142  0.61121242  0.25876690  1
  O  O337  1  0.74963018  0.63214927  0.76665073  1
  O  O338  1  0.36222958  0.12069861  0.36813004  1
  O  O339  1  0.37654040  0.11610341  0.86421736  1
  O  O340  1  0.38561775  0.60672424  0.36364630  1
  O  O341  1  0.36401362  0.61527257  0.87780934  1
  O  O342  1  0.87058564  0.11641477  0.37202928  1
  O  O343  1  0.87401236  0.12000607  0.86639831  1
  O  O344  1  0.85397971  0.63789459  0.36957294  1
  O  O345  1  0.86143932  0.62619083  0.88284754  1
  O  O346  1  0.13811882  0.39274519  0.13552155  1
  O  O347  1  0.14061853  0.37139385  0.63985926  1
  O  O348  1  0.12816557  0.88539444  0.12702480  1
  O  O349  1  0.12704605  0.86991707  0.63838785  1
  O  O350  1  0.62666923  0.39287659  0.11615981  1
  O  O351  1  0.63825363  0.36967474  0.63748650  1
  O  O352  1  0.61506250  0.88649600  0.11551841  1
  O  O353  1  0.64580707  0.86281162  0.61414945  1
  O  O354  1  0.10744187  0.26429280  0.23878466  1
  O  O355  1  0.11857274  0.25840719  0.75749256  1
  O  O356  1  0.12174321  0.74770085  0.26704433  1
  O  O357  1  0.11267426  0.75497267  0.75892376  1
  O  O358  1  0.62479347  0.24282678  0.26383698  1
  O  O359  1  0.62838983  0.26816797  0.76830195  1
  O  O360  1  0.61157550  0.75118121  0.24105287  1
  O  O361  1  0.61940537  0.74656018  0.75926237  1
  O  O362  1  0.39024285  0.25309074  0.25213511  1
  O  O363  1  0.37935070  0.23539119  0.75971974  1
  O  O364  1  0.37961954  0.73129627  0.25927947  1
  O  O365  1  0.38819038  0.75233656  0.74853608  1
  O  O366  1  0.88278217  0.23156243  0.26145284  1
  O  O367  1  0.89288633  0.25489244  0.74478701  1
  O  O368  1  0.88683535  0.75152074  0.24245871  1
  O  O369  1  0.88853460  0.75572417  0.74372034  1
  O  O370  1  0.37881068  0.50777881  0.48491097  1
  O  O371  1  0.38741859  0.50037967  0.99224061  1
  O  O372  1  0.38872414  1.01165674  0.49914201  1
  O  O373  1  0.40309398  1.00545028  0.98995578  1
  O  O374  1  0.93368390  0.50441503  0.54551975  1
  O  O375  1  0.88687788  0.50642586  1.01049712  1
  O  O376  1  0.88508988  0.99484265  0.49335749  1
  O  O377  1  0.89427048  0.99093368  1.01055743  1
  O  O378  1  0.10920795  -0.00347432  0.01281139  1
  O  O379  1  0.11116444  -0.00039572  0.49692351  1
  O  O380  1  0.11301991  0.50696051  0.00397828  1
  O  O381  1  0.12609501  0.51865485  0.49061658  1
  O  O382  1  0.58311603  -0.00686629  -0.01877378  1
  O  O383  1  0.61525878  0.01576746  0.49363206  1
  O  O384  1  0.61867808  0.51063160  0.00170391  1
  O  O385  1  0.62699548  0.48879307  0.49997939  1
  O  O386  1  0.36169575  0.38207737  0.12455206  1
  O  O387  1  0.36782317  0.37598350  0.62416871  1
  O  O388  1  0.32815590  0.88168192  0.16455404  1
  O  O389  1  0.35397765  0.85489507  0.62736633  1
  O  O390  1  0.90703375  0.34213736  0.16241067  1
  O  O391  1  0.86079749  0.36088174  0.63029877  1
  O  O392  1  0.89279407  0.85140443  0.11862930  1
  O  O393  1  0.87779164  0.87920405  0.61734340  1
  O  O394  1  0.12128739  0.14060615  0.37027867  1
  O  O395  1  0.12501371  0.14302066  0.87133480  1
  O  O396  1  0.12489477  0.63925577  0.38338249  1
  O  O397  1  0.13331177  0.63100211  0.88188726  1
  O  O398  1  0.63499366  0.13357152  0.38346500  1
  O  O399  1  0.61527728  0.13894121  0.87361002  1
  O  O400  1  0.63979989  0.62080431  0.37719768  1
  O  O401  1  0.63524750  0.62939302  0.88099928  1
