# generated using pymatgen
data_V73Zn73O256
_symmetry_space_group_name_H-M   'P 1'
_cell_length_a   16.87204870
_cell_length_b   16.86404020
_cell_length_c   16.88496256
_cell_angle_alpha   90.11282439
_cell_angle_beta   89.76282337
_cell_angle_gamma   90.09093495
_symmetry_Int_Tables_number   1
_chemical_formula_structural   V73Zn73O256
_chemical_formula_sum   'V73 Zn73 O256'
_cell_volume   4804.23725536
_cell_formula_units_Z   1
loop_
 _symmetry_equiv_pos_site_id
 _symmetry_equiv_pos_as_xyz
  1  'x, y, z'
loop_
 _atom_site_type_symbol
 _atom_site_label
 _atom_site_symmetry_multiplicity
 _atom_site_fract_x
 _atom_site_fract_y
 _atom_site_fract_z
 _atom_site_occupancy
  V  V0  1  0.88339149  0.62892644  0.74093921  1
  V  V1  1  0.51774191  0.86700828  0.36788954  1
  V  V2  1  0.87986999  0.13701347  0.23850759  1
  V  V3  1  0.62372850  0.37738081  0.75264896  1
  V  V4  1  0.12721146  0.37751173  0.27535560  1
  V  V5  1  -0.00961317  0.64943787  0.14296951  1
  V  V6  1  0.13810706  0.87994092  0.74684218  1
  V  V7  1  0.74804320  0.75255770  0.49741178  1
  V  V8  1  0.49835942  0.63141987  0.63277113  1
  V  V9  1  0.88305052  0.74980208  0.62173338  1
  V  V10  1  0.11230709  0.76464975  0.37265966  1
  V  V11  1  0.87909327  -0.00560448  0.38631525  1
  V  V12  1  0.49532709  0.49803105  0.49603990  1
  V  V13  1  0.62205368  0.25075300  0.87570128  1
  V  V14  1  0.75865416  0.50229632  0.24906626  1
  V  V15  1  0.62653818  0.50876524  0.11133035  1
  V  V16  1  0.59873805  0.12350470  -0.00110241  1
  V  V17  1  0.26925684  0.62486799  0.85998903  1
  V  V18  1  0.62052500  0.37788709  0.24904949  1
  V  V19  1  0.74640605  -0.00276047  0.24371416  1
  V  V20  1  0.37444538  0.87554299  0.49752570  1
  V  V21  1  0.37858879  0.24286361  0.13086247  1
  V  V22  1  0.49961670  0.23576592  0.24780026  1
  V  V23  1  0.16104070  0.00951952  0.62812383  1
  V  V24  1  0.37765271  0.75152229  0.63287621  1
  V  V25  1  0.10973862  0.62914131  0.00090395  1
  V  V26  1  0.25172003  0.50671368  0.24177186  1
  V  V27  1  0.50109020  0.00387749  0.50010256  1
  V  V28  1  0.38178435  -0.02570561  0.90462825  1
  V  V29  1  0.75411627  0.36952455  0.12235612  1
  V  V30  1  0.75310522  0.01234200  0.75312509  1
  V  V31  1  0.76060784  0.62626670  0.37323237  1
  V  V32  1  0.24503839  0.38235481  0.63314409  1
  V  V33  1  0.62969034  0.49798743  0.62229752  1
  V  V34  1  0.36569612  0.11925002  0.74967005  1
  V  V35  1  0.11929794  0.00299152  0.11445092  1
  V  V36  1  0.25391371  0.75316014  0.50046141  1
  V  V37  1  0.37350659  0.00832553  0.36420278  1
  V  V38  1  0.24104057  0.37118643  0.12345963  1
  V  V39  1  0.87433492  0.25345280  0.63768008  1
  V  V40  1  0.38115907  0.25947726  0.61726606  1
  V  V41  1  0.12448329  0.24088841  0.88439148  1
  V  V42  1  0.61992368  0.00415823  0.62802440  1
  V  V43  1  0.75199283  0.24090063  -0.00431321  1
  V  V44  1  0.62504014  0.62891875  0.48984993  1
  V  V45  1  0.11623368  0.12573558  0.49378465  1
  V  V46  1  0.37620571  0.49977617  0.37364041  1
  V  V47  1  0.75000121  0.12959711  0.37374873  1
  V  V48  1  0.62312937  0.12843507  0.50279974  1
  V  V49  1  0.38811756  0.38041982  -0.00235381  1
  V  V50  1  0.75633951  0.26522056  0.50586512  1
  V  V51  1  0.88423577  0.48558515  0.37967718  1
  V  V52  1  0.11689179  0.62460949  0.50822105  1
  V  V53  1  0.25435600  0.86542131  0.12561305  1
  V  V54  1  0.00535734  0.37852798  0.86295654  1
  V  V55  1  0.00200190  0.48196815  0.50506871  1
  V  V56  1  0.61182814  0.86766483  0.75522636  1
  V  V57  1  0.65364526  0.74655074  0.87913208  1
  V  V58  1  0.25384939  0.62835286  0.37256164  1
  V  V59  1  0.75783932  0.87454713  0.10862636  1
  V  V60  1  0.60696362  0.00241561  0.12123513  1
  V  V61  1  0.75011541  0.87443759  0.62418421  1
  V  V62  1  0.50332285  0.73737585  0.24210788  1
  V  V63  1  0.01560261  0.25140013  0.25626933  1
  V  V64  1  0.24814385  0.25050341  0.48949930  1
  V  V65  1  0.49767327  0.24557121  0.75546810  1
  V  V66  1  0.86995033  0.50471013  0.87753173  1
  V  V67  1  -0.00086893  0.87032813  0.87054756  1
  V  V68  1  0.23595596  0.00209130  0.25531293  1
  V  V69  1  0.87442585  0.01242712  0.87698936  1
  V  V70  1  0.00564911  0.23588273  0.74484266  1
  V  V71  1  0.74975879  0.50333304  0.74592093  1
  V  V72  1  0.88335189  0.36860993  -0.00187130  1
  Zn  Zn73  1  0.07947372  0.47475943  0.09176232  1
  Zn  Zn74  1  -0.00027263  0.00847402  -0.00271501  1
  Zn  Zn75  1  0.12174645  0.50253945  0.63982824  1
  Zn  Zn76  1  0.50759959  0.62689575  0.11487986  1
  Zn  Zn77  1  0.24027423  0.24483272  0.00522493  1
  Zn  Zn78  1  0.22920452  0.75674131  -0.02216537  1
  Zn  Zn79  1  0.49604475  0.37539666  0.37514662  1
  Zn  Zn80  1  0.24168070  0.10660598  0.87645115  1
  Zn  Zn81  1  0.62198605  0.25370133  0.37751871  1
  Zn  Zn82  1  0.19250978  0.18106989  0.20087529  1
  Zn  Zn83  1  0.19031505  0.19230022  0.68540655  1
  Zn  Zn84  1  0.16390187  0.68908652  0.18631422  1
  Zn  Zn85  1  0.19153732  0.68980789  0.69426573  1
  Zn  Zn86  1  0.68416105  0.18443004  0.18246566  1
  Zn  Zn87  1  0.68695808  0.19135766  0.68385563  1
  Zn  Zn88  1  0.68699667  0.69050007  0.19949329  1
  Zn  Zn89  1  0.68922471  0.68553256  0.68800744  1
  Zn  Zn90  1  0.31628314  0.31678814  0.31057683  1
  Zn  Zn91  1  0.31467243  0.31102515  0.81526133  1
  Zn  Zn92  1  0.31595248  0.81601165  0.30695374  1
  Zn  Zn93  1  0.31426727  0.81307805  0.81754351  1
  Zn  Zn94  1  0.81196465  0.31213792  0.31587790  1
  Zn  Zn95  1  0.80754251  0.31504280  0.81102685  1
  Zn  Zn96  1  0.80133527  0.82066565  0.31637846  1
  Zn  Zn97  1  0.81527982  0.82142286  0.80765367  1
  Zn  Zn98  1  0.19887892  0.43931324  0.44866306  1
  Zn  Zn99  1  0.19199376  0.44512319  0.80995241  1
  Zn  Zn100  1  0.18710783  0.94295336  0.44290364  1
  Zn  Zn101  1  0.19221191  0.93442716  0.93599750  1
  Zn  Zn102  1  0.68489998  0.44284757  0.43312991  1
  Zn  Zn103  1  0.69191188  0.43326761  0.93369351  1
  Zn  Zn104  1  0.69528485  0.94229791  0.43883665  1
  Zn  Zn105  1  0.68133827  0.93991639  0.93537401  1
  Zn  Zn106  1  0.30535978  0.05730913  0.06497420  1
  Zn  Zn107  1  0.32299046  0.07639357  0.55924618  1
  Zn  Zn108  1  0.24827176  0.51016717  -0.00592156  1
  Zn  Zn109  1  0.31318764  0.56644064  0.56268852  1
  Zn  Zn110  1  0.81659501  0.06287848  0.05855525  1
  Zn  Zn111  1  0.81157301  0.07247594  0.56805261  1
  Zn  Zn112  1  0.87246446  0.54102856  0.08423882  1
  Zn  Zn113  1  0.81568248  0.56087628  0.55845446  1
  Zn  Zn114  1  0.43584666  0.44131873  0.18064288  1
  Zn  Zn115  1  0.44273420  0.43664522  0.68950087  1
  Zn  Zn116  1  0.43467121  0.92268428  0.18733416  1
  Zn  Zn117  1  0.43381795  0.93569585  0.68648213  1
  Zn  Zn118  1  0.94195582  0.42418424  0.19519497  1
  Zn  Zn119  1  0.93280723  0.43142068  0.68241748  1
  Zn  Zn120  1  0.92877230  0.94594480  0.18452295  1
  Zn  Zn121  1  0.93142445  0.92818921  0.70189355  1
  Zn  Zn122  1  0.05766425  0.06312290  0.31804978  1
  Zn  Zn123  1  0.06232998  0.05835259  0.80397547  1
  Zn  Zn124  1  0.06581066  0.56790922  0.31668113  1
  Zn  Zn125  1  0.06056752  0.56675585  0.81298651  1
  Zn  Zn126  1  0.56423683  0.05740629  0.31480169  1
  Zn  Zn127  1  0.55287831  0.06267722  0.81556505  1
  Zn  Zn128  1  0.56449678  0.56718205  0.30418498  1
  Zn  Zn129  1  0.56412948  0.57107500  0.81329042  1
  Zn  Zn130  1  0.43625996  0.19079160  0.43445924  1
  Zn  Zn131  1  0.39594017  0.16397279  0.95964569  1
  Zn  Zn132  1  0.43842851  0.68656232  0.43409182  1
  Zn  Zn133  1  0.42971069  0.56002396  0.94669304  1
  Zn  Zn134  1  0.93639318  0.18850774  0.43699119  1
  Zn  Zn135  1  0.93669590  0.18309864  0.92913878  1
  Zn  Zn136  1  0.93601971  0.68546437  0.43952648  1
  Zn  Zn137  1  0.96341425  0.67466991  0.92642832  1
  Zn  Zn138  1  0.05044442  0.18122856  0.07580989  1
  Zn  Zn139  1  0.06721898  0.30815925  0.56620224  1
  Zn  Zn140  1  0.06065446  0.82426608  0.06320317  1
  Zn  Zn141  1  0.08753009  0.80197055  0.59616537  1
  Zn  Zn142  1  0.56272179  0.31528246  0.06430080  1
  Zn  Zn143  1  0.56343100  0.31600764  0.56361405  1
  Zn  Zn144  1  0.60846400  0.79003175  0.08295689  1
  Zn  Zn145  1  0.56325262  0.81631165  0.55918221  1
  O  O146  1  0.12934524  0.11303576  0.13164831  1
  O  O147  1  0.13360416  0.11397890  0.62104924  1
  O  O148  1  0.10644461  0.61907996  0.11813722  1
  O  O149  1  0.13801254  0.62016879  0.61004373  1
  O  O150  1  0.62444755  0.11854373  0.10749616  1
  O  O151  1  0.62868543  0.11528846  0.61467321  1
  O  O152  1  0.63797549  0.61065004  0.12575887  1
  O  O153  1  0.61593910  0.61964316  0.61537750  1
  O  O154  1  0.37748259  0.39438599  0.37160093  1
  O  O155  1  0.36920967  0.36157578  0.90060151  1
  O  O156  1  0.38653882  0.88467567  0.38582013  1
  O  O157  1  0.37603393  0.87331202  0.88951311  1
  O  O158  1  0.87402897  0.38643169  0.37941883  1
  O  O159  1  0.87678352  0.38016684  0.88071200  1
  O  O160  1  0.85798370  0.89509257  0.37968707  1
  O  O161  1  0.89024693  0.89368700  0.85284161  1
  O  O162  1  0.26454170  -0.00952677  0.36677130  1
  O  O163  1  0.27618586  -0.00330685  0.88202300  1
  O  O164  1  0.25762463  0.50856187  0.37188270  1
  O  O165  1  0.24594232  0.51842562  0.87660900  1
  O  O166  1  0.74694140  0.01209009  0.36052347  1
  O  O167  1  0.75693396  -0.00750350  0.85915473  1
  O  O168  1  0.76268495  0.50456871  0.37123583  1
  O  O169  1  0.76258282  0.49481800  0.86253442  1
  O  O170  1  0.25211511  0.48937674  0.14011425  1
  O  O171  1  0.25293809  0.48601051  0.61701242  1
  O  O172  1  0.24063117  0.99397110  0.13696025  1
  O  O173  1  0.26011770  1.00254292  0.62394707  1
  O  O174  1  0.75196910  0.48921105  0.13382641  1
  O  O175  1  0.73820321  0.50659268  0.62788275  1
  O  O176  1  0.75084941  0.99709065  0.13292228  1
  O  O177  1  0.73990448  0.99526961  0.63051918  1
  O  O178  1  0.01902854  0.36746476  0.25693466  1
  O  O179  1  -0.00991388  0.36496956  0.76134642  1
  O  O180  1  -0.03892926  0.84118159  0.25426507  1
  O  O181  1  0.01703474  0.88646542  0.75776548  1
  O  O182  1  0.51158111  0.37617272  0.24779559  1
  O  O183  1  0.51561093  0.36333914  0.74550779  1
  O  O184  1  0.50643461  0.87273227  0.26464648  1
  O  O185  1  0.51292718  0.87510298  0.74387571  1
  O  O186  1  0.50548498  0.13740312  0.25264538  1
  O  O187  1  0.50002297  0.14175665  0.74342930  1
  O  O188  1  0.49593941  0.62943143  0.23723422  1
  O  O189  1  0.50524766  0.63059621  0.73053995  1
  O  O190  1  0.98742764  0.13296402  0.25479335  1
  O  O191  1  0.99575670  0.13717054  0.74864404  1
  O  O192  1  1.00993245  0.62914071  0.24231584  1
  O  O193  1  0.98199038  0.62300057  0.74486076  1
  O  O194  1  0.37548321  0.26387965  0.02209694  1
  O  O195  1  0.37182817  0.24957640  0.51193954  1
  O  O196  1  0.35830272  0.71251466  0.05730564  1
  O  O197  1  0.37043211  0.75718287  0.49979912  1
  O  O198  1  0.86093982  0.25943500  -0.01303600  1
  O  O199  1  0.85822484  0.25245106  0.49722991  1
  O  O200  1  0.85603344  0.73479056  -0.00433022  1
  O  O201  1  0.86076682  0.74081863  0.51346133  1
  O  O202  1  0.13861766  0.23925406  0.50609056  1
  O  O203  1  0.11799950  0.24264929  0.98789174  1
  O  O204  1  0.13568538  0.74147002  0.50478730  1
  O  O205  1  0.11906026  0.73659745  1.01274702  1
  O  O206  1  0.62910321  0.24302670  0.50197571  1
  O  O207  1  0.62837594  0.24227991  0.99548769  1
  O  O208  1  0.63570625  0.73989642  0.50528217  1
  O  O209  1  0.63355725  0.76070437  0.97694518  1
  O  O210  1  0.49125689  0.25382805  0.13727037  1
  O  O211  1  0.48834061  0.25964892  0.63176254  1
  O  O212  1  0.51490834  0.75186901  0.13701014  1
  O  O213  1  0.49298857  0.73933890  0.61289879  1
  O  O214  1  1.00194474  0.25049411  0.15322588  1
  O  O215  1  0.99157313  0.25693563  0.63855523  1
  O  O216  1  1.00282740  0.74990880  0.13053999  1
  O  O217  1  0.98082650  0.76017843  0.61242602  1
  O  O218  1  -0.00970838  0.24847151  0.35684405  1
  O  O219  1  0.00427516  0.25584595  0.86418876  1
  O  O220  1  0.01311579  0.74894083  0.38927701  1
  O  O221  1  -0.01534610  0.77149616  0.87179249  1
  O  O222  1  0.50011099  0.25583273  0.36157668  1
  O  O223  1  0.50936982  0.25212782  0.85937348  1
  O  O224  1  0.50342211  0.76410201  0.37959087  1
  O  O225  1  0.46908120  0.74812221  0.95041733  1
  O  O226  1  0.25031446  0.14500431  0.50439541  1
  O  O227  1  0.27927229  0.13800689  0.98472606  1
  O  O228  1  0.24586146  0.63269645  0.49092064  1
  O  O229  1  0.22663073  0.63351764  0.97610541  1
  O  O230  1  0.73851083  0.13475627  0.49204631  1
  O  O231  1  0.74939404  0.14013851  1.00214410  1
  O  O232  1  0.74362710  0.63069269  0.49371199  1
  O  O233  1  0.80358933  0.68805608  1.01635670  1
  O  O234  1  0.25126609  0.37046398  0.02045540  1
  O  O235  1  0.24984621  0.36096490  0.51513060  1
  O  O236  1  0.24106727  0.86453241  0.01486757  1
  O  O237  1  0.26281959  0.86525795  0.49670115  1
  O  O238  1  0.75568404  0.36442816  0.00509482  1
  O  O239  1  0.73907807  0.36321023  0.49521289  1
  O  O240  1  0.74981544  0.88434183  0.00896978  1
  O  O241  1  0.74121117  0.86626257  0.51231520  1
  O  O242  1  0.13639584  0.48684533  0.26100354  1
  O  O243  1  0.11200844  0.49488511  0.75021476  1
  O  O244  1  0.13270079  1.00126075  0.25324480  1
  O  O245  1  0.13387115  1.00024114  0.73555992  1
  O  O246  1  0.64006399  0.49302480  0.24492985  1
  O  O247  1  0.62950087  0.49790373  0.74378486  1
  O  O248  1  0.63769959  1.01741277  0.23274708  1
  O  O249  1  0.62692991  0.99256823  0.74496776  1
  O  O250  1  0.38022153  -0.00295121  0.26353362  1
  O  O251  1  0.37846924  0.02021864  0.73445377  1
  O  O252  1  0.35910828  0.49995041  0.25552477  1
  O  O253  1  0.41649157  0.49650160  0.78894885  1
  O  O254  1  0.86158358  0.01291972  0.25727285  1
  O  O255  1  0.85730141  0.00590277  0.74368274  1
  O  O256  1  0.86636567  0.48850612  0.26374979  1
  O  O257  1  0.86843065  0.50609030  0.75126603  1
  O  O258  1  0.13414452  0.37554739  0.37325470  1
  O  O259  1  0.10737605  0.36734077  0.87317230  1
  O  O260  1  0.12533904  0.86348177  0.39205101  1
  O  O261  1  0.11733636  0.88545880  0.85761853  1
  O  O262  1  0.62346082  0.37519488  0.36054531  1
  O  O263  1  0.62579118  0.36524294  0.86681716  1
  O  O264  1  0.61644869  0.88243666  0.38091706  1
  O  O265  1  0.62694781  0.86597740  0.86131751  1
  O  O266  1  0.36728288  0.14466420  0.12607780  1
  O  O267  1  0.37147989  0.14911671  0.63800551  1
  O  O268  1  0.36294054  0.66746425  0.11453539  1
  O  O269  1  0.38920176  0.63579672  0.61875446  1
  O  O270  1  0.87120385  0.12184073  0.14005501  1
  O  O271  1  0.87308389  0.15103882  0.61695273  1
  O  O272  1  0.88547418  0.63773536  0.13758787  1
  O  O273  1  0.87135781  0.63392977  0.63172571  1
  O  O274  1  0.25804202  0.26061526  0.13720510  1
  O  O275  1  0.26274778  0.26386385  0.62401523  1
  O  O276  1  0.23685497  0.76668532  0.14217184  1
  O  O277  1  0.26956308  0.73995470  0.61193708  1
  O  O278  1  0.74120959  0.25930834  0.10958623  1
  O  O279  1  0.75463995  0.25250710  0.61397988  1
  O  O280  1  0.72288544  0.77640728  0.13100605  1
  O  O281  1  0.75227350  0.75618061  0.61713963  1
  O  O282  1  0.26010988  0.25796389  0.39027883  1
  O  O283  1  0.22681542  0.25976690  0.87490122  1
  O  O284  1  0.24802254  0.74566667  0.38357459  1
  O  O285  1  0.24794121  0.73496423  0.86683503  1
  O  O286  1  0.74458529  0.24438309  0.38432211  1
  O  O287  1  0.73658676  0.25436601  0.88620447  1
  O  O288  1  0.75908305  0.74059699  0.38440650  1
  O  O289  1  0.75386237  0.74880428  0.86884640  1
  O  O290  1  -0.01480425  0.12165494  0.00742298  1
  O  O291  1  0.01606560  0.13675994  0.50261583  1
  O  O292  1  -0.00213090  0.62566992  0.02391760  1
  O  O293  1  0.01484549  0.62186526  0.50269025  1
  O  O294  1  0.50102114  0.13424661  0.00230724  1
  O  O295  1  0.51070913  0.11519459  0.49102527  1
  O  O296  1  0.49629661  0.62790925  0.00394162  1
  O  O297  1  0.50995283  0.61852839  0.50027704  1
  O  O298  1  0.50996635  0.39347873  0.49479336  1
  O  O299  1  0.48891795  0.38015106  1.00730722  1
  O  O300  1  0.49728211  0.88533537  0.49086121  1
  O  O301  1  0.47860216  0.80909316  0.98845936  1
  O  O302  1  1.01337302  0.38401178  0.49507864  1
  O  O303  1  0.98293366  0.36738683  0.98574078  1
  O  O304  1  0.99204716  0.92137387  0.53327074  1
  O  O305  1  1.01007986  0.88903996  0.97678582  1
  O  O306  1  0.49290186  0.50703080  0.37823082  1
  O  O307  1  0.47525000  0.49882836  0.84580946  1
  O  O308  1  0.49465703  0.99089054  0.38108127  1
  O  O309  1  0.47535835  0.99985160  0.86746430  1
  O  O310  1  0.98953731  0.50365752  0.38255721  1
  O  O311  1  0.98221199  0.48450055  0.86871722  1
  O  O312  1  0.97908724  1.00109656  0.37233091  1
  O  O313  1  0.98589631  1.00334867  0.87091233  1
  O  O314  1  0.01389622  -0.00675923  0.12633895  1
  O  O315  1  -0.02205098  -0.02793712  0.58542408  1
  O  O316  1  -0.02167175  0.50511943  0.12621015  1
  O  O317  1  0.00102992  0.49263576  0.60915932  1
  O  O318  1  0.50935215  -0.00314996  0.13426536  1
  O  O319  1  0.51018230  -0.00618126  0.61210620  1
  O  O320  1  0.52187318  0.50262088  0.12915795  1
  O  O321  1  0.50388629  0.51312759  0.61647987  1
  O  O322  1  0.24144063  0.38241748  0.24880424  1
  O  O323  1  0.25588772  0.37672050  0.74107060  1
  O  O324  1  0.25512483  0.89040791  0.24256224  1
  O  O325  1  0.23811362  0.87619533  0.75560595  1
  O  O326  1  0.74454228  0.37736569  0.24192887  1
  O  O327  1  0.73656848  0.38682246  0.74985753  1
  O  O328  1  0.74648224  0.89443877  0.24552550  1
  O  O329  1  0.73818349  0.88577700  0.73808166  1
  O  O330  1  0.25686748  0.10187080  0.25168491  1
  O  O331  1  0.26207738  0.13511773  0.75738528  1
  O  O332  1  0.23573618  0.61142874  0.25725282  1
  O  O333  1  0.24888563  0.62115447  0.75864202  1
  O  O334  1  0.75582810  0.12495726  0.25480470  1
  O  O335  1  0.73566047  0.11070356  0.74850533  1
  O  O336  1  0.74908219  0.61405982  0.26143255  1
  O  O337  1  0.75839822  0.61107819  0.74587301  1
  O  O338  1  0.38026455  0.10711466  0.38088638  1
  O  O339  1  0.38132548  0.12939313  0.85234677  1
  O  O340  1  0.36222500  0.61954077  0.37551016  1
  O  O341  1  0.36833353  0.62705870  0.87380622  1
  O  O342  1  0.86164980  0.12069556  0.36694045  1
  O  O343  1  0.87000495  0.11243603  0.86613160  1
  O  O344  1  0.86539208  0.61326746  0.38166935  1
  O  O345  1  0.88107964  0.60939869  0.86497264  1
  O  O346  1  0.13836510  0.38008117  0.13611498  1
  O  O347  1  0.14071925  0.37645576  0.62782497  1
  O  O348  1  0.13382540  0.89463788  0.12666611  1
  O  O349  1  0.12673793  0.90488810  0.62824843  1
  O  O350  1  0.63584356  0.38390904  0.13052030  1
  O  O351  1  0.61920894  0.39185008  0.63227891  1
  O  O352  1  0.63367967  0.90216860  0.11420981  1
  O  O353  1  0.62948962  0.88311068  0.63243160  1
  O  O354  1  0.12449556  0.25903422  0.25880137  1
  O  O355  1  0.10988540  0.24849329  0.75432272  1
  O  O356  1  0.12684536  0.75272007  0.27424337  1
  O  O357  1  0.12261694  0.77821077  0.71060307  1
  O  O358  1  0.61340509  0.25766629  0.24503238  1
  O  O359  1  0.62041344  0.25570692  0.75407373  1
  O  O360  1  0.60616756  0.73954008  0.26561180  1
  O  O361  1  0.63072752  0.76352960  0.75329511  1
  O  O362  1  0.38961099  0.25733945  0.24395513  1
  O  O363  1  0.38850034  0.25016341  0.74644086  1
  O  O364  1  0.40103386  0.75683523  0.25915950  1
  O  O365  1  0.37552507  0.76079174  0.73061370  1
  O  O366  1  0.87364438  0.24067634  0.24974901  1
  O  O367  1  0.87775352  0.25158622  0.74388750  1
  O  O368  1  0.90934180  0.78680614  0.25942106  1
  O  O369  1  0.86713593  0.73629027  0.73698340  1
  O  O370  1  0.38632141  0.50993392  0.48933600  1
  O  O371  1  0.36299555  0.48562908  1.00619015  1
  O  O372  1  0.38450094  0.99564807  0.49677153  1
  O  O373  1  0.38545980  0.99837852  1.00370986  1
  O  O374  1  0.88979497  0.50094011  0.49241822  1
  O  O375  1  0.86420722  0.48619565  0.98387850  1
  O  O376  1  0.85873670  1.01264653  0.48435636  1
  O  O377  1  0.86874533  0.99978277  0.97953183  1
  O  O378  1  0.12960965  0.00631278  0.01162833  1
  O  O379  1  0.13741404  0.01542361  0.51585523  1
  O  O380  1  0.13215850  0.51852658  0.00311538  1
  O  O381  1  0.11596929  0.51063082  0.49581513  1
  O  O382  1  0.61952999  0.01619941  0.00308032  1
  O  O383  1  0.62117378  0.00780649  0.50724106  1
  O  O384  1  0.63676270  0.49501452  0.01222498  1
  O  O385  1  0.62013526  0.50981321  0.50573246  1
  O  O386  1  0.36402009  0.37026509  0.12394499  1
  O  O387  1  0.36955380  0.36764392  0.63140967  1
  O  O388  1  0.35664246  0.87422020  0.12344114  1
  O  O389  1  0.38787957  0.86088234  0.60972357  1
  O  O390  1  0.86761783  0.37767461  0.10818010  1
  O  O391  1  0.87277245  0.35673499  0.62088463  1
  O  O392  1  0.85767285  0.87753914  0.12559325  1
  O  O393  1  0.86124002  0.85942212  0.63634329  1
  O  O394  1  0.12822868  0.11478449  0.39395612  1
  O  O395  1  0.12518692  0.13655664  0.86796810  1
  O  O396  1  0.13550650  0.63459657  0.38974757  1
  O  O397  1  0.07841809  0.63434779  0.89819911  1
  O  O398  1  0.63297689  0.12669897  0.38320483  1
  O  O399  1  0.61600972  0.13439821  0.88890281  1
  O  O400  1  0.63903207  0.61432074  0.38470528  1
  O  O401  1  0.62260939  0.65021116  0.86325000  1
