# generated using pymatgen
data_V73Zn73O256
_symmetry_space_group_name_H-M   'P 1'
_cell_length_a   16.88574917
_cell_length_b   16.87861762
_cell_length_c   16.88707513
_cell_angle_alpha   89.88154120
_cell_angle_beta   89.96322718
_cell_angle_gamma   90.09171993
_symmetry_Int_Tables_number   1
_chemical_formula_structural   V73Zn73O256
_chemical_formula_sum   'V73 Zn73 O256'
_cell_volume   4812.93580190
_cell_formula_units_Z   1
loop_
 _symmetry_equiv_pos_site_id
 _symmetry_equiv_pos_as_xyz
  1  'x, y, z'
loop_
 _atom_site_type_symbol
 _atom_site_label
 _atom_site_symmetry_multiplicity
 _atom_site_fract_x
 _atom_site_fract_y
 _atom_site_fract_z
 _atom_site_occupancy
  V  V0  1  0.49853072  0.49852906  0.00290071  1
  V  V1  1  0.00671984  0.24611835  0.74498087  1
  V  V2  1  0.74931388  0.75414834  0.50235277  1
  V  V3  1  0.62269226  0.63837333  0.01216741  1
  V  V4  1  0.75452136  0.13088156  0.87638483  1
  V  V5  1  0.86953810  -0.00455548  0.38407256  1
  V  V6  1  0.26158621  0.10775777  0.36901553  1
  V  V7  1  0.26664314  0.36968313  0.13587420  1
  V  V8  1  0.60800543  0.87207346  0.24563501  1
  V  V9  1  0.75048048  0.26438847  0.50964708  1
  V  V10  1  0.12690656  0.62061230  0.00873080  1
  V  V11  1  -0.00498615  0.13345013  0.12521539  1
  V  V12  1  0.62111542  0.49928623  0.64511136  1
  V  V13  1  0.61352563  -0.00233425  0.10821632  1
  V  V14  1  0.37640330  0.86558512  -0.00705026  1
  V  V15  1  0.62396922  0.62426527  0.49605904  1
  V  V16  1  0.36336972  0.50264495  0.36701697  1
  V  V17  1  0.50525034  0.37227848  0.36678706  1
  V  V18  1  0.75772464  0.24218079  0.02895584  1
  V  V19  1  0.88326079  0.62789040  0.75531622  1
  V  V20  1  0.25161914  0.37362833  0.62801561  1
  V  V21  1  -0.00584892  0.00086306  0.51407793  1
  V  V22  1  -0.01244667  0.48100877  0.49498992  1
  V  V23  1  0.48534111  0.64106698  0.13040972  1
  V  V24  1  0.63631208  0.28754646  0.87804288  1
  V  V25  1  0.00645782  0.48847024  -0.02119318  1
  V  V26  1  0.11859996  0.87051168  0.74750296  1
  V  V27  1  0.42137380  0.13714647  0.21537849  1
  V  V28  1  0.11451420  0.75415017  0.87754931  1
  V  V29  1  0.12950678  0.12855922  -0.00320614  1
  V  V30  1  0.12542173  0.88721174  0.25264414  1
  V  V31  1  0.74133797  0.12110145  0.38742934  1
  V  V32  1  0.36839518  0.76656667  0.62566972  1
  V  V33  1  0.49049383  0.63133570  0.62438638  1
  V  V34  1  0.11984789  0.74539578  0.37344044  1
  V  V35  1  0.36176903  0.62299087  0.74287659  1
  V  V36  1  0.12892459  0.48382003  0.14055791  1
  V  V37  1  -0.00874479  0.64510795  0.61734952  1
  V  V38  1  0.12241391  0.38108042  0.75720266  1
  V  V39  1  0.25266696  0.86319950  0.12338851  1
  V  V40  1  0.60877134  0.74843967  0.36956487  1
  V  V41  1  0.50346600  0.49904522  0.49655931  1
  V  V42  1  0.14361191  0.00412379  0.62518217  1
  V  V43  1  -0.00405885  0.87514560  0.37456407  1
  V  V44  1  0.74566698  -0.00624976  0.74811542  1
  V  V45  1  0.86861708  0.12928689  0.24645907  1
  V  V46  1  0.13609493  0.00755667  0.12895354  1
  V  V47  1  0.60216325  0.82895472  0.75825132  1
  V  V48  1  0.25015797  0.63391336  0.87580422  1
  V  V49  1  0.13073445  0.62380421  0.49684046  1
  V  V50  1  0.50582120  0.03203037  0.55178463  1
  V  V51  1  0.25096011  0.00457436  0.77684705  1
  V  V52  1  0.61967446  0.24290570  0.37785092  1
  V  V53  1  0.63068311  0.37258382  0.22954925  1
  V  V54  1  0.00866797  0.25594185  0.26168951  1
  V  V55  1  0.75121448  0.61878380  0.36064579  1
  V  V56  1  0.88017011  -0.01488683  0.88182487  1
  V  V57  1  0.37591595  0.49659606  0.87894130  1
  V  V58  1  0.76538367  0.86982882  0.11959030  1
  V  V59  1  0.48459398  0.88159730  0.38664667  1
  V  V60  1  0.24718531  0.25057372  0.48804603  1
  V  V61  1  0.25109108  0.77177783  0.50027816  1
  V  V62  1  0.88562638  0.12425774  0.74822556  1
  V  V63  1  0.11799304  0.12920474  0.49536013  1
  V  V64  1  0.12370481  0.50144764  0.62318246  1
  V  V65  1  0.26341586  0.25667528  -0.00351937  1
  V  V66  1  0.74428266  -0.00211359  0.25182878  1
  V  V67  1  0.88617583  0.35293680  0.00193218  1
  V  V68  1  0.37478424  0.36942283  0.50012425  1
  V  V69  1  0.00010854  -0.01282384  0.00134862  1
  V  V70  1  0.40333082  0.00953732  0.87642290  1
  V  V71  1  0.12559387  0.24665899  0.87278738  1
  V  V72  1  0.74629407  0.62273092  0.87294848  1
  Zn  Zn73  1  0.74114252  0.76179478  -0.00598810  1
  Zn  Zn74  1  0.74554009  0.87620812  0.62759598  1
  Zn  Zn75  1  0.88141634  0.49341882  0.34308730  1
  Zn  Zn76  1  0.38474534  0.61844939  0.25280157  1
  Zn  Zn77  1  0.91221977  0.81579875  0.55413631  1
  Zn  Zn78  1  0.76523575  0.47730294  0.19268736  1
  Zn  Zn79  1  0.41125888  0.10921616  0.71650158  1
  Zn  Zn80  1  0.62113950  0.12020334  -0.00542710  1
  Zn  Zn81  1  0.87595991  0.25422893  0.62140373  1
  Zn  Zn82  1  0.19392164  0.19294338  0.18862249  1
  Zn  Zn83  1  0.23566673  0.16864184  0.66399869  1
  Zn  Zn84  1  0.15322265  0.69684210  0.17988491  1
  Zn  Zn85  1  0.18678093  0.69001379  0.68424679  1
  Zn  Zn86  1  0.63794160  0.17936520  0.19228593  1
  Zn  Zn87  1  0.69738017  0.32556003  0.68365659  1
  Zn  Zn88  1  0.68348267  0.69066430  0.18322135  1
  Zn  Zn89  1  0.69517454  0.67094546  0.68476525  1
  Zn  Zn90  1  0.32375194  0.30026002  0.30955933  1
  Zn  Zn91  1  0.30758363  0.31796532  0.81842694  1
  Zn  Zn92  1  0.30014368  0.81414462  0.31104889  1
  Zn  Zn93  1  0.30907750  0.82029837  0.81112451  1
  Zn  Zn94  1  0.80931860  0.31204085  0.30130943  1
  Zn  Zn95  1  0.82920626  0.31698047  0.82205712  1
  Zn  Zn96  1  0.79644698  0.81840774  0.32488086  1
  Zn  Zn97  1  0.81690126  0.80226050  0.81129984  1
  Zn  Zn98  1  0.18487823  0.43783641  0.43761330  1
  Zn  Zn99  1  0.20120368  0.44137939  0.93615752  1
  Zn  Zn100  1  0.18478868  0.94369502  0.43675670  1
  Zn  Zn101  1  0.18516474  0.93170856  0.94348982  1
  Zn  Zn102  1  0.72241198  0.41676923  0.41194759  1
  Zn  Zn103  1  0.70272411  0.45164655  0.98707950  1
  Zn  Zn104  1  0.66451409  0.94066815  0.44531335  1
  Zn  Zn105  1  0.68408403  0.92810078  0.92692525  1
  Zn  Zn106  1  0.31907247  0.06925948  0.05481356  1
  Zn  Zn107  1  0.32646259  0.06366558  0.55035825  1
  Zn  Zn108  1  0.30852575  0.56054237  0.06602443  1
  Zn  Zn109  1  0.31011876  0.55794771  0.55428146  1
  Zn  Zn110  1  0.81037389  0.05394904  0.06468071  1
  Zn  Zn111  1  0.80900890  0.06497108  0.56941456  1
  Zn  Zn112  1  0.81742575  0.56381838  0.03933916  1
  Zn  Zn113  1  0.82886194  0.52228022  0.60652554  1
  Zn  Zn114  1  0.44273795  0.43877573  0.18318008  1
  Zn  Zn115  1  0.43338032  0.44382671  0.68915398  1
  Zn  Zn116  1  0.42471214  0.95136650  0.18830536  1
  Zn  Zn117  1  0.44542038  0.93112104  0.70088508  1
  Zn  Zn118  1  0.94288123  0.44465092  0.17340834  1
  Zn  Zn119  1  0.94507078  0.44175046  0.70083279  1
  Zn  Zn120  1  0.94013611  0.94485748  0.19140967  1
  Zn  Zn121  1  0.93308373  0.92939399  0.69426500  1
  Zn  Zn122  1  0.05822616  0.06739689  0.31597609  1
  Zn  Zn123  1  0.06488350  0.05866960  0.81382196  1
  Zn  Zn124  1  0.06094594  0.42435880  0.31825537  1
  Zn  Zn125  1  0.06290145  0.57000398  0.80477970  1
  Zn  Zn126  1  0.54783423  0.05799131  0.30711126  1
  Zn  Zn127  1  0.57066784  0.07082872  0.80277847  1
  Zn  Zn128  1  0.56968521  0.55310598  0.30270997  1
  Zn  Zn129  1  0.55022187  0.59665894  0.82235049  1
  Zn  Zn130  1  0.44016297  0.18143979  0.44783234  1
  Zn  Zn131  1  0.44597993  0.19933062  0.90935148  1
  Zn  Zn132  1  0.43106873  0.69040726  0.43832111  1
  Zn  Zn133  1  0.43684487  0.69071732  0.93829478  1
  Zn  Zn134  1  0.92938023  0.18689581  0.43677753  1
  Zn  Zn135  1  0.94565839  0.18204563  0.93293053  1
  Zn  Zn136  1  0.93448611  0.67496991  0.43236710  1
  Zn  Zn137  1  0.94583380  0.68047388  0.93536219  1
  Zn  Zn138  1  0.06654242  0.31377886  0.06550464  1
  Zn  Zn139  1  0.06576845  0.30952933  0.56498295  1
  Zn  Zn140  1  0.06233218  0.80797309  0.06880102  1
  Zn  Zn141  1  0.07757151  0.82341469  0.55836425  1
  Zn  Zn142  1  0.55871001  0.30586884  0.03461493  1
  Zn  Zn143  1  0.56897494  0.31567442  0.55876909  1
  Zn  Zn144  1  0.55204965  0.81494047  0.06292543  1
  Zn  Zn145  1  0.56407946  0.81922154  0.56863586  1
  O  O146  1  0.11616986  0.12281514  0.11943440  1
  O  O147  1  0.13465663  0.11131242  0.61243407  1
  O  O148  1  0.14789512  0.60016155  0.10971524  1
  O  O149  1  0.11695353  0.62145411  0.61741729  1
  O  O150  1  0.63822342  0.10008917  0.11251252  1
  O  O151  1  0.56073748  0.19870144  0.68558771  1
  O  O152  1  0.60897323  0.63245969  0.11754723  1
  O  O153  1  0.60822172  0.62194473  0.61298773  1
  O  O154  1  0.38461300  0.38042537  0.38103158  1
  O  O155  1  0.36875565  0.39710150  0.87500320  1
  O  O156  1  0.38819603  0.86435630  0.35747837  1
  O  O157  1  0.36846041  0.88985028  0.88650190  1
  O  O158  1  0.82896454  0.39579990  0.37116489  1
  O  O159  1  0.86740973  0.38243785  0.90379039  1
  O  O160  1  0.87911728  0.88532086  0.36984464  1
  O  O161  1  0.87755422  0.88668696  0.87450070  1
  O  O162  1  0.25445616  0.00658883  0.37658170  1
  O  O163  1  0.24392433  0.00654731  0.87700735  1
  O  O164  1  0.26497839  0.49675116  0.38048773  1
  O  O165  1  0.26398850  0.51732691  0.87528808  1
  O  O166  1  0.74696340  -0.00092224  0.37366167  1
  O  O167  1  0.76831389  0.00448940  0.87721018  1
  O  O168  1  0.72430954  0.52278163  0.37357008  1
  O  O169  1  0.76990767  0.53313062  0.91539065  1
  O  O170  1  0.24381293  0.47995589  0.12027327  1
  O  O171  1  0.23433377  0.48797828  0.61239829  1
  O  O172  1  0.23722841  1.00930219  0.12004061  1
  O  O173  1  0.24217772  0.99623701  0.61953338  1
  O  O174  1  0.74080161  0.49668554  0.08616334  1
  O  O175  1  0.71922903  0.51602852  0.62721202  1
  O  O176  1  0.74210091  0.98619405  0.13333834  1
  O  O177  1  0.75194950  1.00243020  0.64466236  1
  O  O178  1  -0.00858007  0.35993434  0.24709681  1
  O  O179  1  0.01639123  0.36695715  0.74969230  1
  O  O180  1  0.00846264  0.88342980  0.26314007  1
  O  O181  1  0.01943789  0.88637952  0.75642234  1
  O  O182  1  0.50552890  0.37536506  0.26256162  1
  O  O183  1  0.46298634  0.34143618  0.74787831  1
  O  O184  1  0.50765181  0.87998533  0.24872400  1
  O  O185  1  0.50233919  0.84978634  0.75474041  1
  O  O186  1  0.52820962  0.13831392  0.22778642  1
  O  O187  1  0.51628999  0.16123038  0.74966953  1
  O  O188  1  0.50250695  0.61788514  0.23443483  1
  O  O189  1  0.48006954  0.62811469  0.72839513  1
  O  O190  1  0.98850255  0.12930452  0.24483612  1
  O  O191  1  0.99360057  0.12765874  0.75382430  1
  O  O192  1  0.92699514  0.68006235  0.24224844  1
  O  O193  1  0.99665310  0.62838589  0.72725436  1
  O  O194  1  0.36015322  0.24345526  -0.02247932  1
  O  O195  1  0.36767727  0.26402960  0.49757213  1
  O  O196  1  0.36829859  0.76567570  -0.01088598  1
  O  O197  1  0.35562946  0.74840401  0.50428380  1
  O  O198  1  0.87548553  0.24559341  0.00277826  1
  O  O199  1  0.85672124  0.24012807  0.50544330  1
  O  O200  1  0.88790116  0.71837085  0.03165319  1
  O  O201  1  0.85400867  0.74884448  0.48120111  1
  O  O202  1  0.12801643  0.23351969  0.50434872  1
  O  O203  1  0.12614376  0.24512713  0.98983174  1
  O  O204  1  0.13511546  0.74616162  0.49637825  1
  O  O205  1  0.12413296  0.73499200  0.98464701  1
  O  O206  1  0.63625762  0.25353252  0.48769714  1
  O  O207  1  0.65308038  0.24128995  0.99382060  1
  O  O208  1  0.62344815  0.74184110  0.48981529  1
  O  O209  1  0.61559764  0.74404035  0.99862021  1
  O  O210  1  0.50416705  0.20652846  0.06765090  1
  O  O211  1  0.51321912  0.23681544  0.63741753  1
  O  O212  1  0.49073726  0.74152550  0.13027294  1
  O  O213  1  0.47603890  0.74092662  0.60653705  1
  O  O214  1  1.00119537  0.23742798  0.13201947  1
  O  O215  1  0.99620213  0.25282621  0.63968186  1
  O  O216  1  1.05244765  0.72335854  0.13535089  1
  O  O217  1  0.99959184  0.74808502  0.60591118  1
  O  O218  1  -0.00633226  0.24155019  0.36082330  1
  O  O219  1  0.01433822  0.24790860  0.86279329  1
  O  O220  1  0.00865255  0.76346703  0.38988516  1
  O  O221  1  0.01480780  0.74610190  0.87080031  1
  O  O222  1  0.51339252  0.25642928  0.38787557  1
  O  O223  1  0.53609817  0.26813014  0.89747261  1
  O  O224  1  0.50420716  0.75493330  0.37226022  1
  O  O225  1  0.51205959  0.70156145  0.85871297  1
  O  O226  1  0.23995963  0.13053183  0.49219361  1
  O  O227  1  0.23519037  0.13917800  1.00632451  1
  O  O228  1  0.23354847  0.62533200  0.49876287  1
  O  O229  1  0.24031922  0.62367658  0.98397480  1
  O  O230  1  0.74369346  0.11809488  0.48946420  1
  O  O231  1  0.76299816  0.12876864  0.98954196  1
  O  O232  1  0.73070360  0.63545549  0.48483413  1
  O  O233  1  0.72929661  0.64314712  1.01426838  1
  O  O234  1  0.25090898  0.36074172  0.00121505  1
  O  O235  1  0.25689536  0.37013317  0.50474887  1
  O  O236  1  0.25889146  0.88599533  0.01639161  1
  O  O237  1  0.24461518  0.87065576  0.50465553  1
  O  O238  1  0.76698425  0.34562036  0.01456284  1
  O  O239  1  0.74658877  0.36428928  0.51218568  1
  O  O240  1  0.74972874  0.87596443  0.01391124  1
  O  O241  1  0.73130618  0.85787845  0.49958265  1
  O  O242  1  0.11665326  0.49299917  0.23897701  1
  O  O243  1  0.12041251  0.48812475  0.74014306  1
  O  O244  1  0.11712857  0.99769196  0.24171655  1
  O  O245  1  0.13222871  0.99674956  0.74085395  1
  O  O246  1  0.62801293  0.47595076  0.24067605  1
  O  O247  1  0.60439421  0.52006256  0.74121199  1
  O  O248  1  0.62945228  0.98785124  0.24499338  1
  O  O249  1  0.64680297  0.99863105  0.76081782  1
  O  O250  1  0.40112036  0.04231048  0.25340576  1
  O  O251  1  0.36133369  -0.00817438  0.76640964  1
  O  O252  1  0.37703733  0.49557389  0.26396116  1
  O  O253  1  0.37906860  0.51431342  0.76212550  1
  O  O254  1  0.86419717  0.00621369  0.26254766  1
  O  O255  1  0.88187119  0.00869248  0.76690359  1
  O  O256  1  0.86838672  0.50623320  0.23050539  1
  O  O257  1  0.87174334  0.52552182  0.71717677  1
  O  O258  1  0.12153368  0.36402475  0.38798478  1
  O  O259  1  0.13821749  0.37208626  0.85932205  1
  O  O260  1  0.11387109  0.87853530  0.37164377  1
  O  O261  1  0.12885740  0.86056430  0.87132951  1
  O  O262  1  0.62122789  0.36467152  0.36976765  1
  O  O263  1  0.65435228  0.38147464  0.90694564  1
  O  O264  1  0.61229458  0.86824539  0.36275812  1
  O  O265  1  0.64045039  0.85965249  0.84939012  1
  O  O266  1  0.38026965  0.13352296  0.12278546  1
  O  O267  1  0.34375230  0.13947342  0.63336232  1
  O  O268  1  0.37973770  0.62368051  0.13086691  1
  O  O269  1  0.37238418  0.62363708  0.62590328  1
  O  O270  1  0.88341121  0.10982221  0.13653771  1
  O  O271  1  0.87044191  0.12784989  0.64632806  1
  O  O272  1  0.88206415  0.65995767  0.08337176  1
  O  O273  1  0.89197131  0.63315155  0.61185118  1
  O  O274  1  0.24880441  0.25823385  0.10812342  1
  O  O275  1  0.24027820  0.26921855  0.60886999  1
  O  O276  1  0.23930221  0.76577574  0.12153397  1
  O  O277  1  0.25520935  0.75011471  0.61055712  1
  O  O278  1  0.74391814  0.22496477  0.12447117  1
  O  O279  1  0.74108250  0.24392425  0.61148365  1
  O  O280  1  0.74884746  0.76842267  0.12913522  1
  O  O281  1  0.74562311  0.73729704  0.60288267  1
  O  O282  1  0.25079192  0.24685183  0.38658749  1
  O  O283  1  0.23750164  0.25224816  0.88220427  1
  O  O284  1  0.23158130  0.76140734  0.39076080  1
  O  O285  1  0.24235099  0.73927171  0.86799620  1
  O  O286  1  0.74146217  0.23938714  0.38686607  1
  O  O287  1  0.75320049  0.23768917  0.87630646  1
  O  O288  1  0.73286218  0.74057361  0.37895353  1
  O  O289  1  0.78399916  0.72589317  0.89287037  1
  O  O290  1  0.00924318  0.11966160  0.00904450  1
  O  O291  1  0.01119327  0.11777712  0.49517576  1
  O  O292  1  0.02354422  0.61102375  -0.00822738  1
  O  O293  1  0.00906797  0.62005504  0.50612546  1
  O  O294  1  0.50439536  0.15020677  0.00986900  1
  O  O295  1  0.51013631  0.12899905  0.51971076  1
  O  O296  1  0.50062804  0.62921154  0.01557058  1
  O  O297  1  0.50105743  0.61732921  0.50261278  1
  O  O298  1  0.49332287  0.37981450  0.49518814  1
  O  O299  1  0.50390645  0.39917434  1.00035380  1
  O  O300  1  0.49447114  0.86089609  0.48519246  1
  O  O301  1  0.47493124  0.87982592  1.01082697  1
  O  O302  1  0.99759400  0.38207165  0.51011547  1
  O  O303  1  0.99913136  0.37637479  0.99235067  1
  O  O304  1  0.99800728  0.88447654  0.49353129  1
  O  O305  1  1.00866219  0.88797416  1.00921578  1
  O  O306  1  0.49943614  0.48847720  0.38145080  1
  O  O307  1  0.48342972  0.51783832  0.88433489  1
  O  O308  1  0.50449691  0.98172396  0.37711185  1
  O  O309  1  0.50205783  0.99746555  0.86466648  1
  O  O310  1  0.99070643  0.49264218  0.38913752  1
  O  O311  1  1.01287925  0.49633385  0.87818833  1
  O  O312  1  0.98828328  0.99453045  0.38528572  1
  O  O313  1  0.99471869  1.00273448  0.89160262  1
  O  O314  1  0.00789640  0.00884652  0.11594891  1
  O  O315  1  0.00021185  -0.00283975  0.61586515  1
  O  O316  1  0.02852372  0.48924762  0.10617905  1
  O  O317  1  0.01182776  0.50454494  0.61553751  1
  O  O318  1  0.51564804  -0.00594993  0.12383574  1
  O  O319  1  0.49303049  0.02738532  0.65948590  1
  O  O320  1  0.49025474  0.51259551  0.10888578  1
  O  O321  1  0.50031044  0.50772686  0.61581276  1
  O  O322  1  0.25658247  0.35645534  0.23564456  1
  O  O323  1  0.24190674  0.36966793  0.73437318  1
  O  O324  1  0.23654999  0.87823978  0.23844841  1
  O  O325  1  0.23393717  0.89409260  0.75814698  1
  O  O326  1  0.73557076  0.36670230  0.22740120  1
  O  O327  1  0.79675191  0.37244017  0.72342191  1
  O  O328  1  0.74177599  0.88312836  0.24529660  1
  O  O329  1  0.76484089  0.89074455  0.75573253  1
  O  O330  1  0.24445830  0.13159600  0.27103747  1
  O  O331  1  0.23944755  0.10389555  0.75631517  1
  O  O332  1  0.23986427  0.65702574  0.25321926  1
  O  O333  1  0.25289918  0.62445846  0.75475513  1
  O  O334  1  0.74907731  0.10950696  0.25964491  1
  O  O335  1  0.76798272  0.11086363  0.76813778  1
  O  O336  1  0.74032279  0.63003194  0.25977024  1
  O  O337  1  0.76071666  0.61850499  0.76746633  1
  O  O338  1  0.35974368  0.12460574  0.39220898  1
  O  O339  1  0.40068600  0.11422259  0.84696192  1
  O  O340  1  0.38291369  0.60711141  0.37389791  1
  O  O341  1  0.36010259  0.63085691  0.86290152  1
  O  O342  1  0.86046221  0.11388327  0.36812658  1
  O  O343  1  0.87244613  0.11657205  0.87075539  1
  O  O344  1  0.85559637  0.61383241  0.37436295  1
  O  O345  1  0.89484246  0.61654681  0.85524836  1
  O  O346  1  0.13959847  0.37841616  0.12475603  1
  O  O347  1  0.13228362  0.38209209  0.63152174  1
  O  O348  1  0.13354581  0.88842636  0.13181234  1
  O  O349  1  0.12456229  0.88872591  0.63768971  1
  O  O350  1  0.60153031  0.34867186  0.13634271  1
  O  O351  1  0.61402373  0.39159926  0.63518613  1
  O  O352  1  0.62814037  0.87993154  0.13468421  1
  O  O353  1  0.63105203  0.85795123  0.65450071  1
  O  O354  1  0.10698178  0.24394079  0.24853990  1
  O  O355  1  0.12204557  0.26072997  0.75542031  1
  O  O356  1  0.12394231  0.76826660  0.27129454  1
  O  O357  1  0.12916749  0.76427405  0.75396308  1
  O  O358  1  0.63177544  0.26110659  0.27030083  1
  O  O359  1  0.64591112  0.28765151  0.77751934  1
  O  O360  1  0.62488992  0.76585201  0.25516549  1
  O  O361  1  0.62303169  0.72944942  0.75057072  1
  O  O362  1  0.38919327  0.22225258  0.26204091  1
  O  O363  1  0.40780797  0.28691355  0.75725446  1
  O  O364  1  0.30509293  0.70573621  0.25355509  1
  O  O365  1  0.35939596  0.74365031  0.73031270  1
  O  O366  1  0.87457585  0.23298456  0.25165078  1
  O  O367  1  0.88833809  0.23408411  0.76094080  1
  O  O368  1  0.88673941  0.74020692  0.23220400  1
  O  O369  1  0.86668881  0.72798166  0.73874341  1
  O  O370  1  0.38401713  0.49070118  0.48961073  1
  O  O371  1  0.38195024  0.51463741  0.98726703  1
  O  O372  1  0.41418890  0.99872791  0.51956791  1
  O  O373  1  0.37960647  1.01149639  0.97741561  1
  O  O374  1  0.88901619  0.49813504  0.51332131  1
  O  O375  1  0.91001450  0.50799387  1.00115812  1
  O  O376  1  0.87892301  1.01023941  0.49166966  1
  O  O377  1  0.88978082  1.00018239  0.99410926  1
  O  O378  1  0.11612434  0.00814088  0.00638996  1
  O  O379  1  0.11624815  0.00329905  0.51295458  1
  O  O380  1  0.12517685  0.50797807  -0.00858073  1
  O  O381  1  0.11308860  0.50732150  0.50347128  1
  O  O382  1  0.62597395  -0.00783568  0.00450602  1
  O  O383  1  0.59412622  -0.01561827  0.52291215  1
  O  O384  1  0.60381912  0.52622472  -0.00773115  1
  O  O385  1  0.60994764  0.50776079  0.50461008  1
  O  O386  1  0.36658475  0.37586658  0.12380319  1
  O  O387  1  0.35872799  0.38802955  0.61530581  1
  O  O388  1  0.35836904  0.88260994  0.12437185  1
  O  O389  1  0.37690773  0.86441028  0.62964507  1
  O  O390  1  0.88487384  0.38017030  0.09989638  1
  O  O391  1  0.85851735  0.36690086  0.66086880  1
  O  O392  1  0.86465669  0.88059758  0.13271091  1
  O  O393  1  0.86147003  0.88104445  0.62492969  1
  O  O394  1  0.13428288  0.11219508  0.39213010  1
  O  O395  1  0.11957806  0.13247963  0.88599206  1
  O  O396  1  0.11398034  0.64462643  0.38157567  1
  O  O397  1  0.13537810  0.63459324  0.86930584  1
  O  O398  1  0.62707930  0.13545322  0.36808377  1
  O  O399  1  0.64782241  0.11975983  0.87862823  1
  O  O400  1  0.61738170  0.63323051  0.37744059  1
  O  O401  1  0.64461922  0.62761374  0.88646959  1
