# generated using pymatgen
data_V73Zn73O256
_symmetry_space_group_name_H-M   'P 1'
_cell_length_a   16.81937751
_cell_length_b   16.83229499
_cell_length_c   16.82434830
_cell_angle_alpha   89.97604389
_cell_angle_beta   89.98435582
_cell_angle_gamma   89.94247557
_symmetry_Int_Tables_number   1
_chemical_formula_structural   V73Zn73O256
_chemical_formula_sum   'V73 Zn73 O256'
_cell_volume   4763.11678374
_cell_formula_units_Z   1
loop_
 _symmetry_equiv_pos_site_id
 _symmetry_equiv_pos_as_xyz
  1  'x, y, z'
loop_
 _atom_site_type_symbol
 _atom_site_label
 _atom_site_symmetry_multiplicity
 _atom_site_fract_x
 _atom_site_fract_y
 _atom_site_fract_z
 _atom_site_occupancy
  V  V0  1  0.25741236  0.86646963  0.63716125  1
  V  V1  1  0.86943168  0.86172220  0.00556887  1
  V  V2  1  0.12299308  0.66200957  0.49347327  1
  V  V3  1  0.38299467  0.37715137  0.49232865  1
  V  V4  1  0.62369684  0.10401888  0.00990431  1
  V  V5  1  0.75104265  0.87235761  0.62844106  1
  V  V6  1  0.62509735  0.26004059  0.88784305  1
  V  V7  1  0.87948977  0.62907798  0.75044452  1
  V  V8  1  0.00367740  0.24931442  0.75228958  1
  V  V9  1  0.87466635  -0.00114758  0.88356755  1
  V  V10  1  0.63260734  0.62907519  -0.00524100  1
  V  V11  1  0.36376535  0.75204320  0.12985379  1
  V  V12  1  0.24194964  0.39071849  0.62453502  1
  V  V13  1  0.26552872  0.50329642  0.25917490  1
  V  V14  1  0.13714197  -0.00032306  0.65472679  1
  V  V15  1  0.88426346  0.38129402  0.48434101  1
  V  V16  1  0.75740982  0.49774451  0.25782093  1
  V  V17  1  0.74491099  -0.00010894  0.75095801  1
  V  V18  1  0.86948676  0.63596203  0.25897962  1
  V  V19  1  0.11885487  0.24886099  0.36976640  1
  V  V20  1  0.13572661  0.62390401  0.00407951  1
  V  V21  1  0.24454654  0.24793520  0.49485684  1
  V  V22  1  0.87279603  0.35679827  -0.00053713  1
  V  V23  1  0.12989913  0.87723091  0.22233940  1
  V  V24  1  -0.01680144  0.24130211  0.25037686  1
  V  V25  1  -0.01579098  0.50300011  -0.00399954  1
  V  V26  1  0.49271743  -0.00007583  0.48695182  1
  V  V27  1  0.76523440  0.36873406  0.62638254  1
  V  V28  1  0.49671923  0.12432058  0.62779160  1
  V  V29  1  0.00358198  0.75464044  0.73822414  1
  V  V30  1  0.13962635  0.24150994  0.88869583  1
  V  V31  1  0.74717692  0.12758002  0.88466982  1
  V  V32  1  0.25167313  0.62007479  0.85165526  1
  V  V33  1  0.37059553  0.00994775  0.85959127  1
  V  V34  1  0.24086059  0.00924830  0.24598103  1
  V  V35  1  0.63034747  0.74515469  0.86073755  1
  V  V36  1  0.62281321  0.38281463  0.74172695  1
  V  V37  1  0.75292107  0.36071364  0.12207280  1
  V  V38  1  0.73291393  0.00057312  0.24242729  1
  V  V39  1  0.37098582  0.86864980  0.49337883  1
  V  V40  1  0.25207988  0.64341385  0.37144396  1
  V  V41  1  0.00260707  0.11907171  0.62689976  1
  V  V42  1  0.86915259  0.01276609  0.36453486  1
  V  V43  1  0.37144903  0.86985239  -0.00674699  1
  V  V44  1  0.50093110  0.24838782  0.75519867  1
  V  V45  1  0.37232495  0.36614041  0.00821515  1
  V  V46  1  0.76410477  0.50101136  0.75749186  1
  V  V47  1  -0.01085203  0.62976406  0.12537825  1
  V  V48  1  0.62630708  0.00573306  0.62192265  1
  V  V49  1  0.62454917  0.49743332  0.12620628  1
  V  V50  1  0.61571898  0.75959304  0.37114696  1
  V  V51  1  0.74772207  0.24253565  0.48759351  1
  V  V52  1  0.50396394  0.86978595  0.86062410  1
  V  V53  1  0.87485128  0.13096729  0.74784740  1
  V  V54  1  0.36528576  0.12356810  0.27279883  1
  V  V55  1  0.49456532  0.49893412  -0.00034331  1
  V  V56  1  -0.00136538  0.12997197  0.12181326  1
  V  V57  1  0.00298029  0.75562018  0.25073352  1
  V  V58  1  0.01732922  0.00125594  0.00554918  1
  V  V59  1  0.01084827  0.88439310  0.37851919  1
  V  V60  1  0.10979143  0.37870740  0.25558585  1
  V  V61  1  0.12801374  0.75260906  0.87080528  1
  V  V62  1  0.75449338  0.74565844  0.49811561  1
  V  V63  1  0.48839386  0.25150455  0.25824125  1
  V  V64  1  0.49602621  0.62813165  0.14315642  1
  V  V65  1  0.35507529  0.23845048  0.64353289  1
  V  V66  1  0.12377864  0.11334606  0.49221542  1
  V  V67  1  0.24946991  0.36579170  0.12795946  1
  V  V68  1  0.36829330  0.49813968  0.87058854  1
  V  V69  1  0.87881259  0.88481893  0.50146606  1
  V  V70  1  0.48238651  0.12140030  0.11841069  1
  V  V71  1  0.12764621  0.38850184  0.75211132  1
  V  V72  1  0.62035017  0.36566199  0.26231233  1
  Zn  Zn73  1  0.00484215  0.87688110  0.87202847  1
  Zn  Zn74  1  -0.00334871  0.37700686  0.87257453  1
  Zn  Zn75  1  0.44622055  0.69460769  0.67624744  1
  Zn  Zn76  1  0.75441856  0.86677203  0.13227782  1
  Zn  Zn77  1  0.62600101  0.13171473  0.47315873  1
  Zn  Zn78  1  0.12385220  0.50190248  0.12778053  1
  Zn  Zn79  1  0.59092036  0.62063650  0.50581778  1
  Zn  Zn80  1  0.74837953  0.61631505  0.39262698  1
  Zn  Zn81  1  0.00616406  0.60725935  0.60999600  1
  Zn  Zn82  1  0.20722395  0.16048843  0.12512045  1
  Zn  Zn83  1  0.18183319  0.19505507  0.68695876  1
  Zn  Zn84  1  0.18558857  0.68922446  0.18959252  1
  Zn  Zn85  1  0.18709791  0.68516752  0.67857750  1
  Zn  Zn86  1  0.68550658  0.17987017  0.19817603  1
  Zn  Zn87  1  0.68553685  0.19014264  0.68845572  1
  Zn  Zn88  1  0.68442625  0.69201970  0.18586440  1
  Zn  Zn89  1  0.69033826  0.68382274  0.68352088  1
  Zn  Zn90  1  0.30641255  0.31224767  0.31159094  1
  Zn  Zn91  1  0.30920274  0.31748645  0.81715922  1
  Zn  Zn92  1  0.31732741  0.82274554  0.30692824  1
  Zn  Zn93  1  0.32502322  0.80284305  0.80253662  1
  Zn  Zn94  1  0.80932140  0.31184030  0.31690592  1
  Zn  Zn95  1  0.81065270  0.31203378  0.81716050  1
  Zn  Zn96  1  0.80910998  0.82063720  0.31853312  1
  Zn  Zn97  1  0.81592246  0.80880734  0.81555203  1
  Zn  Zn98  1  0.18877272  0.43409094  0.43401235  1
  Zn  Zn99  1  0.18422138  0.43658151  0.94027039  1
  Zn  Zn100  1  0.20138244  0.93791147  0.43316559  1
  Zn  Zn101  1  0.19957378  0.93464359  0.93175101  1
  Zn  Zn102  1  0.68630235  0.43091471  0.44446132  1
  Zn  Zn103  1  0.69175838  0.44034732  0.93844114  1
  Zn  Zn104  1  0.68727879  0.94162880  0.43330370  1
  Zn  Zn105  1  0.68468308  0.92706377  0.93643675  1
  Zn  Zn106  1  0.30653063  0.04907810  0.04324806  1
  Zn  Zn107  1  0.30883978  0.05885477  0.56312365  1
  Zn  Zn108  1  0.31457326  0.55921551  0.07504408  1
  Zn  Zn109  1  0.31213073  0.56698708  0.54196471  1
  Zn  Zn110  1  0.81101800  0.05905124  0.07464692  1
  Zn  Zn111  1  0.81562984  0.06514912  0.56050056  1
  Zn  Zn112  1  0.80903576  0.56319051  0.06984451  1
  Zn  Zn113  1  0.82002070  0.55439167  0.57585216  1
  Zn  Zn114  1  0.43813966  0.43684241  0.18906412  1
  Zn  Zn115  1  0.43001137  0.42853690  0.68490708  1
  Zn  Zn116  1  0.39787138  0.96167428  0.16033537  1
  Zn  Zn117  1  0.43738613  0.93529335  0.68758736  1
  Zn  Zn118  1  0.93528563  0.43911466  0.18264404  1
  Zn  Zn119  1  0.94388164  0.44023122  0.67861269  1
  Zn  Zn120  1  0.93557321  0.94098506  0.18450121  1
  Zn  Zn121  1  0.93884301  0.94147508  0.69076250  1
  Zn  Zn122  1  0.06175156  0.06110950  0.30558340  1
  Zn  Zn123  1  0.06515400  0.06641922  0.82315934  1
  Zn  Zn124  1  0.06514557  0.57072591  0.31926181  1
  Zn  Zn125  1  0.05728002  0.56765273  0.81546673  1
  Zn  Zn126  1  0.55600693  0.06310272  0.30416149  1
  Zn  Zn127  1  0.55775652  0.06231398  0.81883768  1
  Zn  Zn128  1  0.57297476  0.56536729  0.32450644  1
  Zn  Zn129  1  0.56059894  0.55614333  0.81436645  1
  Zn  Zn130  1  0.43798017  0.19295472  0.44693303  1
  Zn  Zn131  1  0.43864615  0.18688829  0.93941458  1
  Zn  Zn132  1  0.42571988  0.69384034  0.42682069  1
  Zn  Zn133  1  0.43748544  0.68445311  0.93321008  1
  Zn  Zn134  1  0.93598947  0.19624106  0.44574852  1
  Zn  Zn135  1  0.94555215  0.18402221  0.93655161  1
  Zn  Zn136  1  0.93542696  0.69736380  0.43608517  1
  Zn  Zn137  1  0.93725649  0.68377270  0.92755837  1
  Zn  Zn138  1  0.06035937  0.31288437  0.06985772  1
  Zn  Zn139  1  0.06102395  0.31206935  0.56628069  1
  Zn  Zn140  1  0.05415116  0.80788067  0.05370132  1
  Zn  Zn141  1  0.06936343  0.82714446  0.56486318  1
  Zn  Zn142  1  0.55571586  0.30778160  0.07364094  1
  Zn  Zn143  1  0.56598444  0.30949172  0.56652257  1
  Zn  Zn144  1  0.53328644  0.79276052  0.03929171  1
  Zn  Zn145  1  0.56835650  0.82087856  0.55382765  1
  O  O146  1  0.10195632  0.12194636  0.13204137  1
  O  O147  1  0.12293127  0.11309067  0.62430394  1
  O  O148  1  0.11253404  0.62810997  0.11507948  1
  O  O149  1  0.12778833  0.63144531  0.59702562  1
  O  O150  1  0.62718554  0.12529720  0.11046055  1
  O  O151  1  0.61714981  0.11811909  0.62615000  1
  O  O152  1  0.61732760  0.61225206  0.11864921  1
  O  O153  1  0.59711163  0.65861618  0.61518707  1
  O  O154  1  0.37202736  0.35981499  0.39264519  1
  O  O155  1  0.35855980  0.38964013  0.89884506  1
  O  O156  1  0.36711389  0.87946048  0.39168126  1
  O  O157  1  0.38476795  0.87083567  0.87599802  1
  O  O158  1  0.87339474  0.37902275  0.38300744  1
  O  O159  1  0.87499242  0.37047435  0.89418274  1
  O  O160  1  0.88263724  0.88708446  0.38483303  1
  O  O161  1  0.87560479  0.88553141  0.88130214  1
  O  O162  1  0.24408191  0.00109010  0.34816821  1
  O  O163  1  0.26938993  -0.00151732  0.87239945  1
  O  O164  1  0.24375076  0.50146032  0.36168072  1
  O  O165  1  0.25567853  0.51158747  0.88302719  1
  O  O166  1  0.76142758  -0.00133911  0.36448459  1
  O  O167  1  0.75329617  0.00684203  0.86923587  1
  O  O168  1  0.74007510  0.50017018  0.36138312  1
  O  O169  1  0.75117666  0.49539921  0.85790761  1
  O  O170  1  0.24359706  0.49658941  0.14462948  1
  O  O171  1  0.25321393  0.48928167  0.61671281  1
  O  O172  1  0.27899649  0.98940337  0.14630105  1
  O  O173  1  0.23981544  1.00539209  0.63642241  1
  O  O174  1  0.74069430  0.49217783  0.13710215  1
  O  O175  1  0.74987848  0.48171999  0.63920483  1
  O  O176  1  0.74698085  0.98597759  0.13374425  1
  O  O177  1  0.74549770  0.99845385  0.63153900  1
  O  O178  1  0.00549597  0.36379892  0.24012557  1
  O  O179  1  0.00980741  0.36642968  0.74896497  1
  O  O180  1  0.01274559  0.87539521  0.25244178  1
  O  O181  1  -0.00730039  0.86031219  0.75453002  1
  O  O182  1  0.50856667  0.36365782  0.24474067  1
  O  O183  1  0.51700030  0.36989621  0.74422602  1
  O  O184  1  0.55150873  0.87230534  0.20914810  1
  O  O185  1  0.49478406  0.86267333  0.75815464  1
  O  O186  1  0.47898845  0.13282226  0.24431146  1
  O  O187  1  0.50721462  0.14016756  0.74481955  1
  O  O188  1  0.50498717  0.60976129  0.24184932  1
  O  O189  1  0.49294077  0.58006154  0.71773349  1
  O  O190  1  0.99676303  0.13468327  0.24267045  1
  O  O191  1  0.99322524  0.12899635  0.74945168  1
  O  O192  1  0.98987494  0.63199714  0.24912951  1
  O  O193  1  0.99626312  0.63465396  0.74527683  1
  O  O194  1  0.37993499  0.26761741  -0.00248747  1
  O  O195  1  0.35966403  0.25008008  0.51665829  1
  O  O196  1  0.39050459  0.75446796  0.01276075  1
  O  O197  1  0.37868502  0.76926360  0.50369677  1
  O  O198  1  0.88300320  0.25805130  0.00449080  1
  O  O199  1  0.85776157  0.26264356  0.49912746  1
  O  O200  1  0.88383756  0.76308887  -0.01079860  1
  O  O201  1  0.86474557  0.76931235  0.49637884  1
  O  O202  1  0.12584383  0.24650923  0.48930788  1
  O  O203  1  0.11698904  0.26308526  0.98649079  1
  O  O204  1  0.13090331  0.76161622  0.49297512  1
  O  O205  1  0.11414893  0.73147725  0.98540913  1
  O  O206  1  0.64091782  0.24999352  0.50750616  1
  O  O207  1  0.62057233  0.25675648  0.98898912  1
  O  O208  1  0.64667269  0.75737045  0.49461908  1
  O  O209  1  0.62376482  0.73200381  0.99589136  1
  O  O210  1  0.50612144  0.23291209  0.14330392  1
  O  O211  1  0.49044519  0.24258472  0.63892042  1
  O  O212  1  0.50913943  0.72936694  0.13178819  1
  O  O213  1  0.54211021  0.72658575  0.62075196  1
  O  O214  1  0.99789976  0.24151954  0.13675330  1
  O  O215  1  1.01367118  0.23382654  0.64267685  1
  O  O216  1  0.99943877  0.74064115  0.13599061  1
  O  O217  1  1.01128648  0.75545294  0.63725786  1
  O  O218  1  0.00537542  0.24357096  0.36157455  1
  O  O219  1  0.00797335  0.25288700  0.86584883  1
  O  O220  1  -0.00906121  0.77044751  0.35875076  1
  O  O221  1  0.01443774  0.74712093  0.86437194  1
  O  O222  1  0.49942635  0.24203557  0.35843238  1
  O  O223  1  0.51469866  0.24609341  0.86612372  1
  O  O224  1  0.51578562  0.74901594  0.38998442  1
  O  O225  1  0.51167003  0.75416168  0.87693732  1
  O  O226  1  0.23248092  0.13452507  0.50800387  1
  O  O227  1  0.23649207  0.12933148  1.02189308  1
  O  O228  1  0.23523838  0.62648474  0.48247088  1
  O  O229  1  0.23554354  0.62032574  1.00911749  1
  O  O230  1  0.74859368  0.13822216  0.50584108  1
  O  O231  1  0.73947070  0.11785520  0.99290812  1
  O  O232  1  0.76203606  0.64106017  0.51346535  1
  O  O233  1  0.73154119  0.61175157  1.00285026  1
  O  O234  1  0.25447757  0.38354094  0.02012971  1
  O  O235  1  0.24981823  0.37069978  0.50816982  1
  O  O236  1  0.27015320  0.86110295  -0.01231744  1
  O  O237  1  0.26469867  0.89170567  0.51344930  1
  O  O238  1  0.75977980  0.37646808  0.01128598  1
  O  O239  1  0.75440571  0.36875235  0.51247671  1
  O  O240  1  0.76623698  0.87875084  -0.00025741  1
  O  O241  1  0.76050243  0.87252547  0.50938389  1
  O  O242  1  0.11202187  0.48643748  0.25296407  1
  O  O243  1  0.11871413  0.48723826  0.75716747  1
  O  O244  1  0.13033515  0.99241596  0.23755705  1
  O  O245  1  0.12968641  0.99978578  0.75432363  1
  O  O246  1  0.63040578  0.48917846  0.24374383  1
  O  O247  1  0.63510782  0.48624496  0.75667168  1
  O  O248  1  0.63247737  0.99673763  0.25325388  1
  O  O249  1  0.63886953  1.00713022  0.74442890  1
  O  O250  1  0.37239647  0.01953852  0.26211239  1
  O  O251  1  0.37997956  0.00485391  0.75816526  1
  O  O252  1  0.36518497  0.49711489  0.25435233  1
  O  O253  1  0.37214373  0.48218753  0.77272336  1
  O  O254  1  0.87719355  0.00119218  0.26166194  1
  O  O255  1  0.86805225  0.00982212  0.76177745  1
  O  O256  1  0.86187395  0.50285425  0.24972385  1
  O  O257  1  0.86979761  0.50074485  0.75030286  1
  O  O258  1  0.12254071  0.36673425  0.36214485  1
  O  O259  1  0.12438492  0.37043278  0.86379765  1
  O  O260  1  0.11156063  0.88390747  0.37832137  1
  O  O261  1  0.12982527  0.85465153  0.87962439  1
  O  O262  1  0.62780402  0.37361208  0.36049964  1
  O  O263  1  0.63419052  0.36353387  0.86699031  1
  O  O264  1  0.63109123  0.86095411  0.37752285  1
  O  O265  1  0.61623968  0.85986665  0.87283257  1
  O  O266  1  0.38238794  0.12764449  0.11180037  1
  O  O267  1  0.39137929  0.12736342  0.61538744  1
  O  O268  1  0.38799584  0.63513175  0.12559446  1
  O  O269  1  0.41146428  0.62650254  0.57599068  1
  O  O270  1  0.89459136  0.11842571  0.12050881  1
  O  O271  1  0.88727875  0.11444334  0.63826014  1
  O  O272  1  0.88144701  0.62045387  0.14039583  1
  O  O273  1  0.89091757  0.61705321  0.63967593  1
  O  O274  1  0.24662401  0.26784081  0.13870170  1
  O  O275  1  0.23893034  0.26473496  0.60655570  1
  O  O276  1  0.26377432  0.74250783  0.12483374  1
  O  O277  1  0.24514683  0.76716067  0.62343646  1
  O  O278  1  0.74448509  0.26298093  0.13244136  1
  O  O279  1  0.74992249  0.26398490  0.62905255  1
  O  O280  1  0.73262247  0.75960308  0.11551239  1
  O  O281  1  0.74900489  0.76702787  0.62053889  1
  O  O282  1  0.23452204  0.25385690  0.38418953  1
  O  O283  1  0.24004012  0.25545215  0.87905074  1
  O  O284  1  0.24952853  0.74261336  0.35812356  1
  O  O285  1  0.23789616  0.73066610  0.86496934  1
  O  O286  1  0.74416203  0.25079459  0.38691280  1
  O  O287  1  0.73580509  0.23774548  0.87017843  1
  O  O288  1  0.75121679  0.74614170  0.38901615  1
  O  O289  1  0.73214373  0.75323061  0.86959907  1
  O  O290  1  0.00338394  0.11213424  0.00608658  1
  O  O291  1  0.01440891  0.13378215  0.51537066  1
  O  O292  1  -0.00247924  0.61642427  0.00632216  1
  O  O293  1  0.01562840  0.64431854  0.49434350  1
  O  O294  1  0.51378543  0.13064204  0.01056101  1
  O  O295  1  0.50705658  0.11778743  0.50819165  1
  O  O296  1  0.50799262  0.61237300  0.01105468  1
  O  O297  1  0.46455707  0.61797063  0.51247409  1
  O  O298  1  0.48114604  0.36041175  0.51472788  1
  O  O299  1  0.48365729  0.38512143  1.01667405  1
  O  O300  1  0.48917555  0.89211637  0.51125682  1
  O  O301  1  0.49158521  0.87452236  0.97822721  1
  O  O302  1  0.98284926  0.36066372  0.50255074  1
  O  O303  1  0.98484007  0.38776983  1.01124224  1
  O  O304  1  0.98987823  0.87271122  0.49004926  1
  O  O305  1  0.99096767  0.88658937  0.99381396  1
  O  O306  1  0.53645448  0.49671957  0.41790884  1
  O  O307  1  0.48199616  0.50609342  0.88747175  1
  O  O308  1  0.50314574  1.00135233  0.38848863  1
  O  O309  1  0.49482578  0.98029421  0.86615267  1
  O  O310  1  1.03028376  0.49624646  0.41478480  1
  O  O311  1  1.00177380  0.49746592  0.89287279  1
  O  O312  1  0.99173997  0.98855584  0.36765773  1
  O  O313  1  0.99142689  1.00126501  0.88510136  1
  O  O314  1  0.00204992  0.00343765  0.11052060  1
  O  O315  1  0.01782954  0.00935536  0.63628734  1
  O  O316  1  0.00087331  0.51162386  0.11704816  1
  O  O317  1  0.01911564  0.49542803  0.62152570  1
  O  O318  1  0.49528404  0.02160016  0.13725475  1
  O  O319  1  0.51111972  0.00777748  0.62664820  1
  O  O320  1  0.50622066  0.50531527  0.12152261  1
  O  O321  1  0.49610357  0.52408428  0.65994840  1
  O  O322  1  0.24019863  0.38647051  0.24615152  1
  O  O323  1  0.23816740  0.37400271  0.73805047  1
  O  O324  1  0.23165114  0.88114787  0.24848272  1
  O  O325  1  0.25806577  0.87299557  0.73834841  1
  O  O326  1  0.74215814  0.38135406  0.24221995  1
  O  O327  1  0.74781664  0.37918731  0.74486129  1
  O  O328  1  0.75718365  0.88854159  0.24785216  1
  O  O329  1  0.76407021  0.88539013  0.73594212  1
  O  O330  1  0.25772337  0.11996454  0.23646346  1
  O  O331  1  0.29598320  0.18681291  0.71029117  1
  O  O332  1  0.23627031  0.61079012  0.25928356  1
  O  O333  1  0.23971615  0.61082826  0.75386439  1
  O  O334  1  0.75355576  0.10264795  0.24080611  1
  O  O335  1  0.75627792  0.11965541  0.75821938  1
  O  O336  1  0.75883182  0.61330157  0.24760961  1
  O  O337  1  0.76373173  0.61128044  0.73641984  1
  O  O338  1  0.36427012  0.13579159  0.37141679  1
  O  O339  1  0.38726802  0.10855877  0.88030078  1
  O  O340  1  0.35270780  0.62465971  0.37604327  1
  O  O341  1  0.35952471  0.61332556  0.87943700  1
  O  O342  1  0.88567379  0.10966688  0.38590615  1
  O  O343  1  0.86617753  0.11931675  0.87222695  1
  O  O344  1  0.87177384  0.62545803  0.36287289  1
  O  O345  1  0.88097239  0.61926251  0.85277994  1
  O  O346  1  0.13249328  0.37803471  0.13788854  1
  O  O347  1  0.13252088  0.37484612  0.63596021  1
  O  O348  1  0.12504914  0.87085783  0.12345785  1
  O  O349  1  0.13843332  0.89556291  0.62464152  1
  O  O350  1  0.63403353  0.38143885  0.12845062  1
  O  O351  1  0.63474229  0.37378079  0.63841055  1
  O  O352  1  0.58996731  0.87381271  0.14694869  1
  O  O353  1  0.64313362  0.88980582  0.62018086  1
  O  O354  1  0.11520935  0.26161266  0.25909655  1
  O  O355  1  0.11995447  0.25722981  0.76281020  1
  O  O356  1  0.11554206  0.76611768  0.24446976  1
  O  O357  1  0.11518557  0.73947710  0.75975661  1
  O  O358  1  0.61954159  0.26205003  0.24787740  1
  O  O359  1  0.61777233  0.26038500  0.75771465  1
  O  O360  1  0.62957960  0.73582514  0.27313213  1
  O  O361  1  0.62012627  0.73014053  0.76209380  1
  O  O362  1  0.38033494  0.24396885  0.25037472  1
  O  O363  1  0.39965499  0.27532004  0.75641404  1
  O  O364  1  0.38101021  0.76750590  0.22933812  1
  O  O365  1  0.37081703  0.71613460  0.75027957  1
  O  O366  1  0.88457068  0.25338758  0.25399195  1
  O  O367  1  0.88385877  0.23810849  0.76026122  1
  O  O368  1  0.87686538  0.73981120  0.25199420  1
  O  O369  1  0.88678628  0.73966659  0.75083550  1
  O  O370  1  0.37186057  0.47634024  0.50445227  1
  O  O371  1  0.38004846  0.49592078  1.00145568  1
  O  O372  1  0.38948204  1.00431811  0.50113002  1
  O  O373  1  0.37781057  0.97871420  0.99007376  1
  O  O374  1  0.86925270  0.48159497  0.50345627  1
  O  O375  1  0.88181104  0.49994141  1.00370794  1
  O  O376  1  0.86937014  0.99056012  0.48856681  1
  O  O377  1  0.87883154  0.99621444  0.99130990  1
  O  O378  1  0.11531913  -0.01083120  -0.00897898  1
  O  O379  1  0.12876533  0.01360992  0.49700511  1
  O  O380  1  0.11366700  0.51194024  0.00346888  1
  O  O381  1  0.08395266  0.49204620  0.46933409  1
  O  O382  1  0.62349938  0.00535214  -0.00109572  1
  O  O383  1  0.61775695  0.00435380  0.50774662  1
  O  O384  1  0.61574393  0.49958503  0.00633127  1
  O  O385  1  0.59234791  0.49788719  0.47881708  1
  O  O386  1  0.36098077  0.37977693  0.12129515  1
  O  O387  1  0.35515255  0.36063448  0.62633289  1
  O  O388  1  0.38779474  0.86164249  0.10693097  1
  O  O389  1  0.36428332  0.88187435  0.61796769  1
  O  O390  1  0.86011723  0.37723656  0.11843637  1
  O  O391  1  0.86749679  0.36999681  0.62539430  1
  O  O392  1  0.88117775  0.87323371  0.10889276  1
  O  O393  1  0.86750371  0.88989836  0.61172979  1
  O  O394  1  0.11670949  0.12966733  0.38617639  1
  O  O395  1  0.12802813  0.14100072  0.87684160  1
  O  O396  1  0.13111851  0.63443821  0.38414600  1
  O  O397  1  0.13699504  0.62359312  0.88477856  1
  O  O398  1  0.62047809  0.13516355  0.36035045  1
  O  O399  1  0.62826120  0.13164046  0.88881335  1
  O  O400  1  0.63086106  0.63560259  0.39690816  1
  O  O401  1  0.61666090  0.62797516  0.88626068  1
