# generated using pymatgen
data_V73Zn73O256
_symmetry_space_group_name_H-M   'P 1'
_cell_length_a   16.82332379
_cell_length_b   16.84181970
_cell_length_c   16.84085949
_cell_angle_alpha   90.03430825
_cell_angle_beta   90.06344402
_cell_angle_gamma   89.99466650
_symmetry_Int_Tables_number   1
_chemical_formula_structural   V73Zn73O256
_chemical_formula_sum   'V73 Zn73 O256'
_cell_volume   4771.60762521
_cell_formula_units_Z   1
loop_
 _symmetry_equiv_pos_site_id
 _symmetry_equiv_pos_as_xyz
  1  'x, y, z'
loop_
 _atom_site_type_symbol
 _atom_site_label
 _atom_site_symmetry_multiplicity
 _atom_site_fract_x
 _atom_site_fract_y
 _atom_site_fract_z
 _atom_site_occupancy
  V  V0  1  0.37724728  0.62938075  0.74218264  1
  V  V1  1  0.88102025  0.62837663  0.73503516  1
  V  V2  1  0.75435939  0.49730593  0.74937970  1
  V  V3  1  0.24606635  0.49726708  0.23663248  1
  V  V4  1  0.37632706  0.87848655  0.49450405  1
  V  V5  1  0.00106058  0.62101728  0.14106675  1
  V  V6  1  0.38194519  0.12490179  0.74892934  1
  V  V7  1  0.75582947  -0.00192152  0.75960181  1
  V  V8  1  0.00099606  0.12124941  0.13245211  1
  V  V9  1  0.88103551  0.77276355  0.62132030  1
  V  V10  1  0.23218853  -0.00311946  0.24946078  1
  V  V11  1  0.50448402  0.87843778  0.87348397  1
  V  V12  1  0.23589805  0.62788198  0.37443922  1
  V  V13  1  0.37126900  0.11659178  0.26088593  1
  V  V14  1  0.63293985  0.49197981  0.10985027  1
  V  V15  1  0.11556760  0.62160087  0.51737805  1
  V  V16  1  0.74246999  -0.00356986  0.26055734  1
  V  V17  1  0.62536011  0.49168490  0.62138306  1
  V  V18  1  0.75232391  0.23491241  0.50043827  1
  V  V19  1  0.12344359  0.24043732  0.38002384  1
  V  V20  1  0.36887341  0.49887240  0.37468792  1
  V  V21  1  0.37807685  0.49469846  0.87853937  1
  V  V22  1  0.37358255  0.37654908  0.50250704  1
  V  V23  1  0.63831346  0.62777619  0.48917419  1
  V  V24  1  0.75377813  0.77072925  0.49451167  1
  V  V25  1  0.00885952  0.86998371  0.38713539  1
  V  V26  1  0.25695526  0.87274725  0.62310826  1
  V  V27  1  0.62159432  0.86134082  0.25354938  1
  V  V28  1  0.12434151  0.87101118  0.75069561  1
  V  V29  1  0.24724760  0.75318090  0.49651569  1
  V  V30  1  0.37396943  0.27251721  0.12590089  1
  V  V31  1  0.23350402  0.37839304  0.62139348  1
  V  V32  1  0.50761457  0.01452251  0.50071750  1
  V  V33  1  0.86814657  0.39290607  -0.00059564  1
  V  V34  1  0.62997136  0.00294936  0.11880699  1
  V  V35  1  0.13302571  0.75302196  0.88839889  1
  V  V36  1  0.12057298  0.60679426  0.00480503  1
  V  V37  1  0.49343229  0.37098967  0.88543176  1
  V  V38  1  0.87320541  0.37137961  0.48016403  1
  V  V39  1  0.13465519  0.37581213  0.24486877  1
  V  V40  1  0.75766638  0.62647985  0.87741457  1
  V  V41  1  0.38048673  0.24684862  0.62843928  1
  V  V42  1  0.12283879  0.01187486  0.60935993  1
  V  V43  1  -0.01066846  0.87165940  0.87201801  1
  V  V44  1  0.24686868  0.12585231  0.88187125  1
  V  V45  1  0.61440466  0.62566426  -0.00726622  1
  V  V46  1  0.62495442  -0.00376535  0.63829890  1
  V  V47  1  0.49643265  0.12264215  0.12008034  1
  V  V48  1  0.86255979  0.25734342  0.65025984  1
  V  V49  1  0.24145553  0.50071186  0.74095802  1
  V  V50  1  0.13058136  0.11412648  0.00998551  1
  V  V51  1  0.49936069  0.63070433  0.61838584  1
  V  V52  1  0.86856139  0.12130124  0.25469255  1
  V  V53  1  -0.00411725  0.25781655  0.25303717  1
  V  V54  1  0.24952220  0.26266468  0.00718839  1
  V  V55  1  0.62420063  0.74821138  0.85652858  1
  V  V56  1  0.64278011  0.38364718  0.25240561  1
  V  V57  1  -0.01850320  0.12937625  0.63157667  1
  V  V58  1  0.50091471  0.25916184  0.25267207  1
  V  V59  1  0.25149178  -0.00004036  0.75321018  1
  V  V60  1  0.11560041  0.85814889  0.24077404  1
  V  V61  1  0.63678902  0.14271049  -0.00401621  1
  V  V62  1  0.62197074  0.36806595  0.75401364  1
  V  V63  1  0.00462610  0.35920257  0.84124851  1
  V  V64  1  0.84923618  0.62666216  0.25817157  1
  V  V65  1  -0.00713177  -0.00636057  0.00552675  1
  V  V66  1  0.88169052  -0.00494372  0.39125428  1
  V  V67  1  0.86315635  0.75773645  0.11048132  1
  V  V68  1  0.37990251  -0.00092908  0.89126016  1
  V  V69  1  0.49730081  0.86227719  0.37150132  1
  V  V70  1  0.36910891  0.84929183  0.00777119  1
  V  V71  1  0.24500845  0.23764249  0.49779555  1
  V  V72  1  0.63045580  0.23621361  0.37829743  1
  Zn  Zn73  1  0.86885719  0.01299212  0.87759689  1
  Zn  Zn74  1  0.50090066  0.50012343  0.49551640  1
  Zn  Zn75  1  0.49999766  0.76200316  0.73392091  1
  Zn  Zn76  1  0.50741689  0.24363086  0.75156722  1
  Zn  Zn77  1  0.25995238  0.63240658  0.88417936  1
  Zn  Zn78  1  0.38339695  0.63518366  0.24959071  1
  Zn  Zn79  1  0.50234771  0.64149559  0.13415074  1
  Zn  Zn80  1  0.50522211  0.37913615  0.37640546  1
  Zn  Zn81  1  -0.00416256  0.49292761  0.50342120  1
  Zn  Zn82  1  0.18909972  0.18617611  0.18890251  1
  Zn  Zn83  1  0.18472345  0.19145738  0.69521330  1
  Zn  Zn84  1  0.18222408  0.68414514  0.18965358  1
  Zn  Zn85  1  0.18812525  0.69260955  0.69008339  1
  Zn  Zn86  1  0.68960410  0.19360230  0.18402765  1
  Zn  Zn87  1  0.68556692  0.17338094  0.68536044  1
  Zn  Zn88  1  0.69013378  0.68274397  0.18129220  1
  Zn  Zn89  1  0.69570705  0.68709628  0.67595229  1
  Zn  Zn90  1  0.31051870  0.31095457  0.31477580  1
  Zn  Zn91  1  0.28906431  0.30375530  0.80560289  1
  Zn  Zn92  1  0.30213241  0.82084822  0.31179905  1
  Zn  Zn93  1  0.31725437  0.81504792  0.81375992  1
  Zn  Zn94  1  0.81131419  0.30645801  0.31214900  1
  Zn  Zn95  1  0.81007182  0.32117622  0.84166008  1
  Zn  Zn96  1  0.82068827  0.80973659  0.31055147  1
  Zn  Zn97  1  0.80613575  0.81154015  0.79994445  1
  Zn  Zn98  1  0.13906549  0.46191129  0.40439127  1
  Zn  Zn99  1  0.19742815  0.44791333  0.93806521  1
  Zn  Zn100  1  0.19192775  0.94553726  0.42584245  1
  Zn  Zn101  1  0.18943139  0.93405710  0.94690640  1
  Zn  Zn102  1  0.69829689  0.42973105  0.43534624  1
  Zn  Zn103  1  0.69182498  0.43362637  0.93138343  1
  Zn  Zn104  1  0.67966429  0.94390907  0.43491667  1
  Zn  Zn105  1  0.69335004  0.93090354  0.93955301  1
  Zn  Zn106  1  0.31370690  0.05727532  0.07430186  1
  Zn  Zn107  1  0.31732333  0.05793389  0.56233915  1
  Zn  Zn108  1  0.31223212  0.58609999  0.06037932  1
  Zn  Zn109  1  0.30718777  0.56292965  0.55931893  1
  Zn  Zn110  1  0.81230430  0.06576892  0.06851442  1
  Zn  Zn111  1  0.80153117  0.05898467  0.56964401  1
  Zn  Zn112  1  0.81610231  0.56312871  0.06676519  1
  Zn  Zn113  1  0.81385112  0.55536336  0.55963260  1
  Zn  Zn114  1  0.42686354  0.47801234  0.15958198  1
  Zn  Zn115  1  0.43613014  0.43838289  0.68863354  1
  Zn  Zn116  1  0.43843385  0.93454132  0.18435820  1
  Zn  Zn117  1  0.44122305  0.94022710  0.68477241  1
  Zn  Zn118  1  0.92533594  0.44513115  0.17661793  1
  Zn  Zn119  1  0.93552038  0.43497394  0.67462169  1
  Zn  Zn120  1  0.93575802  0.93102874  0.19266362  1
  Zn  Zn121  1  0.93951658  0.94896604  0.69019875  1
  Zn  Zn122  1  0.06163819  0.05906279  0.32091752  1
  Zn  Zn123  1  0.06143042  0.06288082  0.81432534  1
  Zn  Zn124  1  -0.02556962  0.54809294  0.32494958  1
  Zn  Zn125  1  0.06282499  0.56430996  0.81518640  1
  Zn  Zn126  1  0.54667752  0.05953486  0.31556077  1
  Zn  Zn127  1  0.57240188  0.06407592  0.81624357  1
  Zn  Zn128  1  0.55741837  0.56460199  0.30507734  1
  Zn  Zn129  1  0.56010404  0.55848386  0.80836007  1
  Zn  Zn130  1  0.43762898  0.19410817  0.43781157  1
  Zn  Zn131  1  0.43384843  0.19155640  0.93964978  1
  Zn  Zn132  1  0.43098628  0.68775910  0.43728421  1
  Zn  Zn133  1  0.44310579  0.68755258  0.93198939  1
  Zn  Zn134  1  0.94233676  0.17813618  0.44317407  1
  Zn  Zn135  1  0.96803106  0.19813246  0.93401590  1
  Zn  Zn136  1  0.93663480  0.69581599  0.43983886  1
  Zn  Zn137  1  0.94002927  0.68859298  0.93780768  1
  Zn  Zn138  1  0.06680968  0.30543113  0.06846855  1
  Zn  Zn139  1  0.04987880  0.30019054  0.56770035  1
  Zn  Zn140  1  0.05005123  0.80599748  0.06670647  1
  Zn  Zn141  1  0.06512469  0.81374755  0.56391977  1
  Zn  Zn142  1  0.56189801  0.31636191  0.06659676  1
  Zn  Zn143  1  0.56313007  0.30693845  0.56063692  1
  Zn  Zn144  1  0.58668974  0.81793694  0.05239011  1
  Zn  Zn145  1  0.57031262  0.81502225  0.55539140  1
  O  O146  1  0.11759353  0.12285783  0.11968720  1
  O  O147  1  0.13593765  0.11256397  0.63066197  1
  O  O148  1  0.11442055  0.63544998  0.11069743  1
  O  O149  1  0.12476278  0.63438227  0.61732279  1
  O  O150  1  0.61505066  0.12261702  0.12498317  1
  O  O151  1  0.61573917  0.10308690  0.62915280  1
  O  O152  1  0.62935220  0.62489142  0.09884570  1
  O  O153  1  0.61549956  0.61380796  0.61665247  1
  O  O154  1  0.36980763  0.38112953  0.38668392  1
  O  O155  1  0.37978122  0.38561131  0.86486991  1
  O  O156  1  0.38499056  0.87106248  0.37772339  1
  O  O157  1  0.38052690  0.88068238  0.88576595  1
  O  O158  1  0.87765818  0.36966925  0.37938013  1
  O  O159  1  0.90590048  0.37993026  0.87341559  1
  O  O160  1  0.88589401  0.88997970  0.36848890  1
  O  O161  1  0.88932911  0.86710041  0.86687155  1
  O  O162  1  0.25802673  0.00040442  0.35126916  1
  O  O163  1  0.26086861  0.00408623  0.87207538  1
  O  O164  1  0.25174971  0.51085320  0.37493017  1
  O  O165  1  0.25990439  0.50308492  0.85628292  1
  O  O166  1  0.75884656  -0.00067346  0.36532154  1
  O  O167  1  0.75216255  -0.00481358  0.87296609  1
  O  O168  1  0.77167690  0.50330023  0.39322021  1
  O  O169  1  0.74081225  0.51522819  0.85724333  1
  O  O170  1  0.24979118  0.50610166  0.13917162  1
  O  O171  1  0.25151501  0.48925926  0.62833144  1
  O  O172  1  0.26931163  0.99138369  0.15144775  1
  O  O173  1  0.24406559  0.99356515  0.63416647  1
  O  O174  1  0.73074196  0.51325054  0.12987566  1
  O  O175  1  0.73389624  0.50375700  0.63591463  1
  O  O176  1  0.73632274  1.00668565  0.14020463  1
  O  O177  1  0.73635794  0.99849561  0.63934363  1
  O  O178  1  -0.00195062  0.35953524  0.24323977  1
  O  O179  1  0.00131707  0.37118034  0.74174354  1
  O  O180  1  0.01235328  0.88705604  0.26375703  1
  O  O181  1  0.01225476  0.89033206  0.76560058  1
  O  O182  1  0.50934364  0.36339720  0.24965792  1
  O  O183  1  0.51055130  0.37247536  0.75264740  1
  O  O184  1  0.50589301  0.87800685  0.26329439  1
  O  O185  1  0.47987642  0.86980111  0.76521798  1
  O  O186  1  0.49349088  0.14027217  0.24346996  1
  O  O187  1  0.48594488  0.12601572  0.76139850  1
  O  O188  1  0.49844234  0.64279292  0.25204651  1
  O  O189  1  0.49149373  0.62289321  0.73534315  1
  O  O190  1  0.99393438  0.12402377  0.24621638  1
  O  O191  1  1.00945168  0.12068915  0.73290980  1
  O  O192  1  1.01735383  0.62186789  0.23974393  1
  O  O193  1  0.97721160  0.61263374  0.76075239  1
  O  O194  1  0.36848291  0.24992799  0.01986946  1
  O  O195  1  0.36460525  0.25623740  0.50663696  1
  O  O196  1  0.36957685  0.74742372  -0.00576122  1
  O  O197  1  0.36164534  0.76298867  0.49806275  1
  O  O198  1  0.92604725  0.28503557  0.00369538  1
  O  O199  1  0.86242765  0.24978595  0.49299211  1
  O  O200  1  0.87140617  0.74473484  0.00760142  1
  O  O201  1  0.86621237  0.75514201  0.51063663  1
  O  O202  1  0.13381863  0.25399361  0.49194286  1
  O  O203  1  0.14376079  0.23578046  1.01096334  1
  O  O204  1  0.14030135  0.74436378  0.50228207  1
  O  O205  1  0.12742686  0.75947247  0.98880931  1
  O  O206  1  0.63539322  0.25412735  0.48854509  1
  O  O207  1  0.62725778  0.24305263  1.01067706  1
  O  O208  1  0.64004483  0.73639155  0.50379195  1
  O  O209  1  0.62263665  0.72927690  0.97334088  1
  O  O210  1  0.48973625  0.24716266  0.13267801  1
  O  O211  1  0.48515602  0.25166716  0.62762574  1
  O  O212  1  0.51644998  0.75018277  0.10614553  1
  O  O213  1  0.50707520  0.73469098  0.62010705  1
  O  O214  1  1.00677261  0.23446670  0.14518758  1
  O  O215  1  0.97494633  0.24169015  0.63737074  1
  O  O216  1  0.98332673  0.72981022  0.11608781  1
  O  O217  1  0.98227482  0.75630559  0.61908654  1
  O  O218  1  0.01175278  0.24219371  0.36544888  1
  O  O219  1  0.02331530  0.25885254  0.85854868  1
  O  O220  1  -0.00409856  0.77102056  0.37629223  1
  O  O221  1  0.01271744  0.76712769  0.87839531  1
  O  O222  1  0.51076399  0.25639053  0.37045352  1
  O  O223  1  0.48744777  0.26615938  0.86919944  1
  O  O224  1  0.49991126  0.76190215  0.37965566  1
  O  O225  1  0.51046498  0.75200748  0.86104996  1
  O  O226  1  0.25512166  0.13936449  0.50588095  1
  O  O227  1  0.24572802  0.11886065  1.00087712  1
  O  O228  1  0.24719958  0.63461014  0.49291108  1
  O  O229  1  0.23036502  0.62699922  0.99659636  1
  O  O230  1  0.75142293  0.13467793  0.49538927  1
  O  O231  1  0.73698900  0.12660241  1.00959011  1
  O  O232  1  0.73943931  0.62032052  0.49958095  1
  O  O233  1  0.74402554  0.61642798  0.97885323  1
  O  O234  1  0.24382513  0.36094276  -0.00431343  1
  O  O235  1  0.25936048  0.36927285  0.51322151  1
  O  O236  1  0.27038596  0.87665784  -0.00004236  1
  O  O237  1  0.25548936  0.87361885  0.50158888  1
  O  O238  1  0.77493407  0.35802170  -0.04773327  1
  O  O239  1  0.76244908  0.35500006  0.49798147  1
  O  O240  1  0.68623685  0.86391351  0.02526489  1
  O  O241  1  0.74029539  0.86970695  0.49951916  1
  O  O242  1  0.13670180  0.48278195  0.25788045  1
  O  O243  1  0.14343851  0.51572302  0.74673170  1
  O  O244  1  0.13057473  1.00771630  0.24397000  1
  O  O245  1  0.14072216  0.99203871  0.75435399  1
  O  O246  1  0.63041679  0.48421115  0.25951447  1
  O  O247  1  0.62819669  0.49282285  0.73808776  1
  O  O248  1  0.63640978  1.00955731  0.25295895  1
  O  O249  1  0.62225543  0.99214283  0.74487939  1
  O  O250  1  0.39158308  0.01699330  0.25423118  1
  O  O251  1  0.36647877  0.00574620  0.75539599  1
  O  O252  1  0.35661780  0.48955471  0.26181620  1
  O  O253  1  0.36841787  0.51065863  0.75197856  1
  O  O254  1  0.86239557  0.00564128  0.25351817  1
  O  O255  1  0.86341658  0.00427459  0.75725143  1
  O  O256  1  0.88411185  0.52174981  0.25042048  1
  O  O257  1  0.85751076  0.50277307  0.73986557  1
  O  O258  1  0.12810941  0.35555518  0.35666074  1
  O  O259  1  0.10537633  0.40819140  0.87028508  1
  O  O260  1  0.11480271  0.88316642  0.36657819  1
  O  O261  1  0.12430470  0.86930828  0.87005501  1
  O  O262  1  0.62616864  0.36630224  0.36500014  1
  O  O263  1  0.60827233  0.38231551  0.86209631  1
  O  O264  1  0.61370260  0.87501347  0.36331356  1
  O  O265  1  0.61342636  0.85998479  0.87088561  1
  O  O266  1  0.38814936  0.13098529  0.13406382  1
  O  O267  1  0.36529108  0.13317555  0.63821496  1
  O  O268  1  0.39251414  0.59109109  0.13595892  1
  O  O269  1  0.38870647  0.61732169  0.62858081  1
  O  O270  1  0.88745850  0.11836856  0.14232595  1
  O  O271  1  0.87640035  0.12830297  0.63118066  1
  O  O272  1  0.87946270  0.62987561  0.13794085  1
  O  O273  1  0.87553758  0.62099454  0.63317893  1
  O  O274  1  0.26404510  0.25096299  0.12109604  1
  O  O275  1  0.25553538  0.26026153  0.61542393  1
  O  O276  1  0.28557970  0.73977768  0.15875934  1
  O  O277  1  0.24572994  0.76640460  0.61731579  1
  O  O278  1  0.77004081  0.24423498  0.12680107  1
  O  O279  1  0.75676201  0.23672840  0.61297089  1
  O  O280  1  0.76125995  0.74411744  0.11854979  1
  O  O281  1  0.76417920  0.74729921  0.61003693  1
  O  O282  1  0.24317353  0.25195375  0.39032521  1
  O  O283  1  0.27137461  0.23437540  0.90306875  1
  O  O284  1  0.25635754  0.73567292  0.37961533  1
  O  O285  1  0.23700922  0.74967733  0.86741731  1
  O  O286  1  0.73760721  0.24424423  0.37961821  1
  O  O287  1  0.80191358  0.18746831  0.87935320  1
  O  O288  1  0.76165965  0.75439070  0.39407610  1
  O  O289  1  0.73560032  0.73765631  0.86170442  1
  O  O290  1  0.01034745  0.11877373  0.00855449  1
  O  O291  1  0.00516920  0.13598832  0.52904434  1
  O  O292  1  0.01785011  0.62309858  -0.01010041  1
  O  O293  1  0.01527046  0.63063087  0.49563609  1
  O  O294  1  0.50394537  0.13466217  0.01743577  1
  O  O295  1  0.49216671  0.11362808  0.49576907  1
  O  O296  1  0.51350615  0.61350935  -0.01244305  1
  O  O297  1  0.50463317  0.62315139  0.50838663  1
  O  O298  1  0.48618536  0.37514515  0.49985325  1
  O  O299  1  0.50138305  0.37463672  0.98502800  1
  O  O300  1  0.49242210  0.87451940  0.48928792  1
  O  O301  1  0.49096337  0.86270574  0.97717084  1
  O  O302  1  0.97587964  0.36243243  0.50803569  1
  O  O303  1  0.98404011  0.35158718  0.99911846  1
  O  O304  1  1.01114902  0.88128117  0.48845822  1
  O  O305  1  1.00328699  0.88821756  0.98880395  1
  O  O306  1  0.48276544  0.49706129  0.37440193  1
  O  O307  1  0.48642333  0.48946615  0.86655446  1
  O  O308  1  0.50395715  0.98648259  0.39241036  1
  O  O309  1  0.49473456  0.98567740  0.87043549  1
  O  O310  1  1.02494263  0.48336608  0.39589426  1
  O  O311  1  1.04124207  0.46581131  0.87945356  1
  O  O312  1  0.98757900  0.99826246  0.38253272  1
  O  O313  1  0.99384340  0.99548600  0.88527834  1
  O  O314  1  -0.00483865  0.00429744  0.11222065  1
  O  O315  1  0.01586560  0.00880851  0.62499550  1
  O  O316  1  -0.00682466  0.52106190  0.11846933  1
  O  O317  1  -0.00749288  0.50569466  0.61318090  1
  O  O318  1  0.51031689  0.01887590  0.13525946  1
  O  O319  1  0.50202905  -0.00135454  0.60980551  1
  O  O320  1  0.53338555  0.51734949  0.13958150  1
  O  O321  1  0.51044981  0.50793665  0.62249676  1
  O  O322  1  0.24377915  0.38083034  0.24822686  1
  O  O323  1  0.25479791  0.39182090  0.73328532  1
  O  O324  1  0.22615872  0.88383426  0.25466018  1
  O  O325  1  0.24839405  0.88147924  0.74305795  1
  O  O326  1  0.74190299  0.36912503  0.24750301  1
  O  O327  1  0.73453860  0.38872182  0.76563123  1
  O  O328  1  0.73461440  0.88755548  0.25616343  1
  O  O329  1  0.74430034  0.89252262  0.75454066  1
  O  O330  1  0.26486285  0.11774056  0.24307002  1
  O  O331  1  0.25936106  0.11511594  0.76371824  1
  O  O332  1  0.24354106  0.61069854  0.26113282  1
  O  O333  1  0.26473786  0.61729851  0.73833925  1
  O  O334  1  0.76338818  0.11887094  0.25023686  1
  O  O335  1  0.73400510  0.10232688  0.75877011  1
  O  O336  1  0.74897335  0.62189342  0.25970485  1
  O  O337  1  0.75709956  0.61475768  0.75149401  1
  O  O338  1  0.37691947  0.13870270  0.35858064  1
  O  O339  1  0.37010328  0.11608246  0.87230781  1
  O  O340  1  0.36527505  0.61453462  0.37218569  1
  O  O341  1  0.37844839  0.61542858  0.85807641  1
  O  O342  1  0.88364504  0.11050509  0.36280666  1
  O  O343  1  0.86649147  0.14666928  0.88666828  1
  O  O344  1  0.88920786  0.63152487  0.35672489  1
  O  O345  1  0.86035643  0.63668661  0.86282318  1
  O  O346  1  0.12234748  0.36704901  0.14457450  1
  O  O347  1  0.13534202  0.36607359  0.61758097  1
  O  O348  1  0.11031938  0.87038177  0.13949892  1
  O  O349  1  0.13213190  0.88900390  0.63321654  1
  O  O350  1  0.62521487  0.38528014  0.13564186  1
  O  O351  1  0.61757216  0.38530397  0.63354926  1
  O  O352  1  0.60728575  0.90019716  0.14904884  1
  O  O353  1  0.61385176  0.89182320  0.62306730  1
  O  O354  1  0.11925076  0.25219057  0.25831257  1
  O  O355  1  0.18251964  0.26412843  0.77695591  1
  O  O356  1  0.12350093  0.75857378  0.25309298  1
  O  O357  1  0.12631371  0.76587739  0.75617492  1
  O  O358  1  0.62136841  0.25634634  0.25858264  1
  O  O359  1  0.62921453  0.26510569  0.74086301  1
  O  O360  1  0.62875847  0.76421486  0.24025446  1
  O  O361  1  0.62160219  0.73766149  0.75269483  1
  O  O362  1  0.37847024  0.24830012  0.24001610  1
  O  O363  1  0.37012286  0.24130951  0.74293417  1
  O  O364  1  0.33756384  0.74592775  0.22060490  1
  O  O365  1  0.37425884  0.73258404  0.75103805  1
  O  O366  1  0.88838636  0.23411636  0.26143463  1
  O  O367  1  0.84595707  0.25870309  0.74824155  1
  O  O368  1  0.86638909  0.73478712  0.23734583  1
  O  O369  1  0.86785331  0.73739278  0.73285715  1
  O  O370  1  0.37291285  0.49257817  0.49273657  1
  O  O371  1  0.36204843  0.50838773  0.97628653  1
  O  O372  1  0.38399248  0.98667599  0.50154771  1
  O  O373  1  0.37967087  1.00331829  0.99163659  1
  O  O374  1  0.86875883  0.47846178  0.49853048  1
  O  O375  1  0.86716069  0.49419649  0.98763838  1
  O  O376  1  0.86449592  1.00341768  0.48895423  1
  O  O377  1  0.88801906  1.01092098  0.99677933  1
  O  O378  1  0.11274156  0.00673751  -0.00236270  1
  O  O379  1  0.13769109  0.00380699  0.51148569  1
  O  O380  1  0.12794958  0.50702786  0.00720021  1
  O  O381  1  0.13509514  0.52039741  0.50696533  1
  O  O382  1  0.62500761  0.01358262  0.01789739  1
  O  O383  1  0.61358756  0.00309442  0.50670562  1
  O  O384  1  0.63088417  0.50046512  0.00335155  1
  O  O385  1  0.62613108  0.50100258  0.51112784  1
  O  O386  1  0.38406471  0.37142309  0.12886494  1
  O  O387  1  0.36984714  0.36712105  0.61966708  1
  O  O388  1  0.39469661  0.87128010  0.10388302  1
  O  O389  1  0.36357764  0.88049708  0.61603152  1
  O  O390  1  0.85989183  0.38866456  0.10125917  1
  O  O391  1  0.86376869  0.35616450  0.62381599  1
  O  O392  1  0.88033759  0.85858278  0.12694303  1
  O  O393  1  0.87536123  0.87222434  0.63273614  1
  O  O394  1  0.12871901  0.14007280  0.37175954  1
  O  O395  1  0.14032029  0.11812853  0.88772915  1
  O  O396  1  0.13806886  0.62698169  0.38588621  1
  O  O397  1  0.12485721  0.64069873  0.88182302  1
  O  O398  1  0.61670966  0.13836454  0.37032751  1
  O  O399  1  0.61539678  0.12797897  0.89756495  1
  O  O400  1  0.61858916  0.61315925  0.39301521  1
  O  O401  1  0.63045041  0.62745826  0.87167014  1
