# generated using pymatgen
data_V73Zn73O256
_symmetry_space_group_name_H-M   'P 1'
_cell_length_a   16.87407190
_cell_length_b   16.85031477
_cell_length_c   16.89155730
_cell_angle_alpha   90.18632846
_cell_angle_beta   89.97336365
_cell_angle_gamma   89.72361374
_symmetry_Int_Tables_number   1
_chemical_formula_structural   V73Zn73O256
_chemical_formula_sum   'V73 Zn73 O256'
_cell_volume   4802.75247603
_cell_formula_units_Z   1
loop_
 _symmetry_equiv_pos_site_id
 _symmetry_equiv_pos_as_xyz
  1  'x, y, z'
loop_
 _atom_site_type_symbol
 _atom_site_label
 _atom_site_symmetry_multiplicity
 _atom_site_fract_x
 _atom_site_fract_y
 _atom_site_fract_z
 _atom_site_occupancy
  V  V0  1  -0.00229464  0.62364514  0.62641203  1
  V  V1  1  0.74981178  0.37842710  0.62280889  1
  V  V2  1  0.10905223  0.75492368  0.37167183  1
  V  V3  1  0.87322748  0.27517964  0.12550695  1
  V  V4  1  0.38331100  0.47099771  0.87058807  1
  V  V5  1  0.37395362  0.74146293  0.13395537  1
  V  V6  1  0.25500312  0.76225426  0.50702222  1
  V  V7  1  0.74875366  0.63008028  0.88179474  1
  V  V8  1  0.13165058  0.74428141  0.87501696  1
  V  V9  1  0.12543681  0.13211427  -0.00139850  1
  V  V10  1  0.85992951  0.86638991  0.00405019  1
  V  V11  1  0.63296344  0.90027914  0.74063963  1
  V  V12  1  -0.00401657  0.12932591  0.12219670  1
  V  V13  1  0.12846689  0.10855705  0.49349343  1
  V  V14  1  -0.00578282  0.75049231  0.74717659  1
  V  V15  1  0.26123692  0.62779444  0.37253665  1
  V  V16  1  0.88204495  0.36783424  0.48847819  1
  V  V17  1  0.14155836  -0.00602491  0.63051300  1
  V  V18  1  0.49387445  0.12554590  0.12139988  1
  V  V19  1  0.48946553  0.25973404  0.25325509  1
  V  V20  1  -0.00287374  0.87478334  0.87548093  1
  V  V21  1  0.49957638  0.75653440  0.75917018  1
  V  V22  1  0.74204726  0.62517210  0.37489344  1
  V  V23  1  0.86459214  0.13024115  0.24509739  1
  V  V24  1  0.62269364  0.62452436  0.00679502  1
  V  V25  1  0.12502767  0.49292601  0.14674069  1
  V  V26  1  0.24828572  0.87689060  0.12445164  1
  V  V27  1  0.11026782  0.87189294  0.24741815  1
  V  V28  1  0.49557250  -0.01847935  0.47423478  1
  V  V29  1  0.51166263  0.47267651  0.00232493  1
  V  V30  1  0.13560504  0.87576562  0.74841394  1
  V  V31  1  0.76442534  0.26029958  -0.00519906  1
  V  V32  1  0.36756300  0.24962710  0.61448174  1
  V  V33  1  0.13144795  0.62124294  -0.00163768  1
  V  V34  1  0.26498611  0.49223647  0.25771883  1
  V  V35  1  0.51083014  0.10826342  0.60648435  1
  V  V36  1  0.62904234  0.76772708  0.88176525  1
  V  V37  1  0.12327801  0.62670589  0.50541295  1
  V  V38  1  -0.00182393  0.00087866  -0.00056512  1
  V  V39  1  0.12965134  0.00063607  0.12840418  1
  V  V40  1  0.10774214  0.38454716  0.74877381  1
  V  V41  1  0.38615732  0.88120662  -0.00316261  1
  V  V42  1  0.37196426  0.76026813  0.62419909  1
  V  V43  1  0.74305310  -0.01638684  0.25124750  1
  V  V44  1  0.72754609  0.48550565  0.22033607  1
  V  V45  1  0.87034032  0.01595891  0.86279250  1
  V  V46  1  0.52569909  0.75234237  0.25282517  1
  V  V47  1  0.01536102  0.25166704  0.27456431  1
  V  V48  1  0.87384438  0.86132090  0.53685339  1
  V  V49  1  0.87989995  0.50981040  0.36477510  1
  V  V50  1  0.88665815  -0.00283644  0.37366436  1
  V  V51  1  0.37894600  -0.00066557  0.87065995  1
  V  V52  1  0.62604204  0.50773125  0.59968211  1
  V  V53  1  -0.00371638  0.11480311  0.63173565  1
  V  V54  1  0.22548993  0.28060247  0.48602942  1
  V  V55  1  0.87233321  0.62993240  0.74959580  1
  V  V56  1  0.26274059  0.25664735  0.00603150  1
  V  V57  1  0.25015029  0.39332249  0.63904203  1
  V  V58  1  0.88763534  0.25127903  0.63322222  1
  V  V59  1  0.50119973  0.62313653  0.61653765  1
  V  V60  1  0.37083742  0.12561868  0.73864771  1
  V  V61  1  -0.01049806  0.63638066  0.13383228  1
  V  V62  1  0.87696613  0.48445422  0.87568867  1
  V  V63  1  0.73592985  0.49985905  0.75102809  1
  V  V64  1  0.39043415  0.39820232  0.49047009  1
  V  V65  1  0.00058722  0.49998059  0.49978850  1
  V  V66  1  0.63894183  0.12928134  0.00706327  1
  V  V67  1  0.24072457  0.11981291  0.86266242  1
  V  V68  1  0.60879523  0.27449162  0.38509480  1
  V  V69  1  0.73319761  0.12811529  0.37591655  1
  V  V70  1  -0.00169880  0.49249413  -0.00478432  1
  V  V71  1  0.36977120  0.10862947  0.25991617  1
  V  V72  1  0.62559019  -0.01228564  0.12697566  1
  Zn  Zn73  1  0.55927657  0.29584697  0.80380630  1
  Zn  Zn74  1  0.57116422  0.81870814  0.41076350  1
  Zn  Zn75  1  0.49258325  0.61449158  0.12812585  1
  Zn  Zn76  1  0.24847822  0.12678864  0.37007312  1
  Zn  Zn77  1  0.73850770  0.24838912  0.49916542  1
  Zn  Zn78  1  0.25554838  0.74209135  -0.00099765  1
  Zn  Zn79  1  0.35441221  0.60316195  0.76064839  1
  Zn  Zn80  1  0.72932191  0.13151653  0.84814396  1
  Zn  Zn81  1  0.11068275  0.25699006  0.85665566  1
  Zn  Zn82  1  0.19199060  0.19524489  0.18666992  1
  Zn  Zn83  1  0.18258272  0.19628530  0.67679282  1
  Zn  Zn84  1  0.18520329  0.68368619  0.18507690  1
  Zn  Zn85  1  0.18779591  0.67883821  0.68962911  1
  Zn  Zn86  1  0.67842829  0.20218508  0.18927905  1
  Zn  Zn87  1  0.69075694  0.18637980  0.66926253  1
  Zn  Zn88  1  0.69251826  0.67268914  0.20774847  1
  Zn  Zn89  1  0.66145733  0.67313810  0.71102905  1
  Zn  Zn90  1  0.31960306  0.31303050  0.31498473  1
  Zn  Zn91  1  0.30523265  0.30432735  0.81666842  1
  Zn  Zn92  1  0.29708932  0.81003882  0.30850218  1
  Zn  Zn93  1  0.31443841  0.80755736  0.81429351  1
  Zn  Zn94  1  0.80776529  0.31063529  0.31062490  1
  Zn  Zn95  1  0.72678336  0.30402133  0.81089126  1
  Zn  Zn96  1  0.76728461  0.82883428  0.37724713  1
  Zn  Zn97  1  0.80906983  0.82149201  0.81222809  1
  Zn  Zn98  1  0.19841741  0.44979052  0.44830724  1
  Zn  Zn99  1  0.19154613  0.43759584  0.92729258  1
  Zn  Zn100  1  0.17510880  0.93176660  0.44203126  1
  Zn  Zn101  1  0.18993262  0.93679835  0.93911434  1
  Zn  Zn102  1  0.69560929  0.44037335  0.43088649  1
  Zn  Zn103  1  0.67685185  0.43556523  0.92876205  1
  Zn  Zn104  1  0.68065436  0.92826969  0.52309935  1
  Zn  Zn105  1  0.68824472  0.95436388  0.93228363  1
  Zn  Zn106  1  0.31172159  0.06615700  0.05840895  1
  Zn  Zn107  1  0.31659020  0.04542750  0.55221295  1
  Zn  Zn108  1  0.31405868  0.54172426  0.06493669  1
  Zn  Zn109  1  0.31855087  0.57209036  0.56403112  1
  Zn  Zn110  1  0.81179577  0.05144647  0.06368733  1
  Zn  Zn111  1  0.81797771  0.05401306  0.54807874  1
  Zn  Zn112  1  0.81374194  0.55829150  0.06345979  1
  Zn  Zn113  1  0.81365766  0.56719763  0.55670601  1
  Zn  Zn114  1  0.42873078  0.43746800  0.17166117  1
  Zn  Zn115  1  0.45796374  0.42248824  0.69562595  1
  Zn  Zn116  1  0.44368088  0.93209034  0.18969202  1
  Zn  Zn117  1  0.43490186  0.94289759  0.69606778  1
  Zn  Zn118  1  0.95966288  0.43457392  0.19088341  1
  Zn  Zn119  1  0.93113577  0.44084062  0.68615525  1
  Zn  Zn120  1  0.93117082  0.93872233  0.18745172  1
  Zn  Zn121  1  0.93498124  0.93141711  0.68510599  1
  Zn  Zn122  1  0.06054364  0.06775219  0.30261785  1
  Zn  Zn123  1  0.05531693  0.06429495  0.80892756  1
  Zn  Zn124  1  0.06102814  0.56981413  0.31735975  1
  Zn  Zn125  1  0.06784897  0.55804155  0.81215448  1
  Zn  Zn126  1  0.55672613  0.06033132  0.30819350  1
  Zn  Zn127  1  0.55123723  0.09580968  0.81793494  1
  Zn  Zn128  1  0.56679340  0.55229606  0.29632872  1
  Zn  Zn129  1  0.52982764  0.57826734  0.83194562  1
  Zn  Zn130  1  0.43089882  0.18620674  0.43791934  1
  Zn  Zn131  1  0.44506231  0.20008627  0.93424832  1
  Zn  Zn132  1  0.47482452  0.63664725  0.40435617  1
  Zn  Zn133  1  0.43184765  0.68391538  0.94138999  1
  Zn  Zn134  1  0.93645557  0.16653621  0.44602190  1
  Zn  Zn135  1  0.90463352  0.22890585  0.84172660  1
  Zn  Zn136  1  0.92243528  0.69623712  0.44065990  1
  Zn  Zn137  1  0.93912723  0.68346279  0.94283608  1
  Zn  Zn138  1  -0.00467861  0.27825091  -0.00475629  1
  Zn  Zn139  1  0.07129435  0.31590267  0.55889323  1
  Zn  Zn140  1  0.05933604  0.81054230  0.06111764  1
  Zn  Zn141  1  0.05643829  0.81512685  0.56144104  1
  Zn  Zn142  1  0.57999390  0.30528067  0.08002287  1
  Zn  Zn143  1  0.55382282  0.31083794  0.58701253  1
  Zn  Zn144  1  0.55960923  0.80832432  0.06427993  1
  Zn  Zn145  1  0.53811925  0.84276387  0.59206435  1
  O  O146  1  0.11686394  0.11821829  0.11852694  1
  O  O147  1  0.12244127  0.10433575  0.62591379  1
  O  O148  1  0.11647017  0.61943496  0.11174963  1
  O  O149  1  0.11354720  0.63327166  0.61484516  1
  O  O150  1  0.61914525  0.12108955  0.12201149  1
  O  O151  1  0.60795210  0.12971713  0.61702106  1
  O  O152  1  0.64164567  0.64070639  0.10429544  1
  O  O153  1  0.62077957  0.61595828  0.61931194  1
  O  O154  1  0.37627695  0.37684247  0.39282494  1
  O  O155  1  0.38802783  0.36899809  0.86545375  1
  O  O156  1  0.32740369  0.91640854  0.36669952  1
  O  O157  1  0.36780147  0.88670604  0.88387021  1
  O  O158  1  0.87570574  0.37863455  0.38684313  1
  O  O159  1  0.87349746  0.38841051  0.86785476  1
  O  O160  1  0.86163108  0.89979400  0.38845895  1
  O  O161  1  0.88444935  0.88294177  0.88201493  1
  O  O162  1  0.26948404  -0.03298804  0.37305685  1
  O  O163  1  0.25449529  0.01382685  0.88175992  1
  O  O164  1  0.24458572  0.51675816  0.36868715  1
  O  O165  1  0.28473305  0.49197748  0.88396875  1
  O  O166  1  0.75813548  0.02124458  0.35783001  1
  O  O167  1  0.76448934  0.02037206  0.87356733  1
  O  O168  1  0.77098136  0.50469259  0.37394267  1
  O  O169  1  0.76006024  0.50659335  0.86917066  1
  O  O170  1  0.23263218  0.52128618  0.15382602  1
  O  O171  1  0.26279363  0.49285930  0.62796017  1
  O  O172  1  0.23734888  0.99393792  0.11550229  1
  O  O173  1  0.23933498  0.99159216  0.62817881  1
  O  O174  1  0.74870701  0.48870616  0.12087529  1
  O  O175  1  0.74200909  0.50217810  0.62844173  1
  O  O176  1  0.74181124  0.99889164  0.14215117  1
  O  O177  1  0.76516327  1.03118150  0.65705553  1
  O  O178  1  0.00529171  0.34960615  0.25229222  1
  O  O179  1  0.00706338  0.37747656  0.74025006  1
  O  O180  1  0.01080166  0.87129439  0.23684513  1
  O  O181  1  0.00413099  0.86621089  0.75988995  1
  O  O182  1  0.47951810  0.35860712  0.23731791  1
  O  O183  1  0.53027558  0.33701458  0.70161860  1
  O  O184  1  0.49538623  0.85189598  0.24945431  1
  O  O185  1  0.51303807  0.86418355  0.73865597  1
  O  O186  1  0.48625056  0.12832600  0.24466550  1
  O  O187  1  0.47349357  0.11589058  0.72392291  1
  O  O188  1  0.51444564  0.64234061  0.23587902  1
  O  O189  1  0.52465270  0.64943636  0.73609647  1
  O  O190  1  0.98901570  0.13656982  0.23811022  1
  O  O191  1  1.00753265  0.13350234  0.73144350  1
  O  O192  1  1.00638945  0.62393689  0.23327856  1
  O  O193  1  0.99330861  0.63049656  0.74655718  1
  O  O194  1  0.36315279  0.24287090  -0.00622763  1
  O  O195  1  0.35505085  0.24804718  0.50735562  1
  O  O196  1  0.37365316  0.76306232  0.00210671  1
  O  O197  1  0.36261372  0.75064012  0.51580129  1
  O  O198  1  0.87415441  0.25718237  0.01536080  1
  O  O199  1  0.87836863  0.26189470  0.50106527  1
  O  O200  1  0.87723738  0.76646711  -0.00837628  1
  O  O201  1  0.85260895  0.76995470  0.49260698  1
  O  O202  1  0.14315012  0.21744557  0.52008619  1
  O  O203  1  0.12126399  0.23350850  0.99805087  1
  O  O204  1  0.13022437  0.74907793  0.49468717  1
  O  O205  1  0.12412594  0.73640803  0.99278884  1
  O  O206  1  0.61811090  0.25932023  0.49003783  1
  O  O207  1  0.64732506  0.23750374  1.00392670  1
  O  O208  1  0.69210052  0.75573589  0.56140124  1
  O  O209  1  0.62020320  0.74584395  0.98619866  1
  O  O210  1  0.50394013  0.23399484  0.14317411  1
  O  O211  1  0.46958053  0.21971214  0.60870044  1
  O  O212  1  0.48423293  0.75030622  0.13079868  1
  O  O213  1  0.48931867  0.74493917  0.63215593  1
  O  O214  1  0.98583595  0.23784105  0.11345785  1
  O  O215  1  0.99026298  0.25113314  0.61935220  1
  O  O216  1  1.00099677  0.73710881  0.12073249  1
  O  O217  1  1.00296706  0.73970031  0.63907559  1
  O  O218  1  -0.00394934  0.23699657  0.37209489  1
  O  O219  1  0.00236560  0.24811803  0.88832865  1
  O  O220  1  0.01108723  0.74875523  0.38319574  1
  O  O221  1  0.00934212  0.75685204  0.86887803  1
  O  O222  1  0.50116557  0.25287386  0.37276442  1
  O  O223  1  0.51202869  0.20491041  0.84915934  1
  O  O224  1  0.51241480  0.73787072  0.35972389  1
  O  O225  1  0.51153422  0.75154890  0.86410506  1
  O  O226  1  0.23774929  0.10120910  0.48941019  1
  O  O227  1  0.24056946  0.13038062  0.99187517  1
  O  O228  1  0.24008334  0.63211045  0.49533800  1
  O  O229  1  0.23471261  0.61586175  1.00538910  1
  O  O230  1  0.75573986  0.12992253  0.47888580  1
  O  O231  1  0.74608796  0.13104809  1.01022607  1
  O  O232  1  0.75803696  0.62503836  0.47766713  1
  O  O233  1  0.74317564  0.61875224  0.98667732  1
  O  O234  1  0.24176985  0.35318746  -0.01406905  1
  O  O235  1  0.27398746  0.38216032  0.51592576  1
  O  O236  1  0.25287568  0.87060678  0.01124803  1
  O  O237  1  0.24311838  0.86060448  0.50653025  1
  O  O238  1  0.74616059  0.35781386  -0.01083550  1
  O  O239  1  0.76799115  0.37918419  0.50522433  1
  O  O240  1  0.76175267  0.88220431  -0.01065273  1
  O  O241  1  0.79537473  0.93760278  0.53274956  1
  O  O242  1  0.11878210  0.49381022  0.25022447  1
  O  O243  1  0.12277955  0.48834469  0.74417897  1
  O  O244  1  0.11970290  0.99224333  0.23475122  1
  O  O245  1  0.11978275  0.98518694  0.74353688  1
  O  O246  1  0.62598945  0.48552571  0.22935137  1
  O  O247  1  0.63725112  0.50874806  0.74948199  1
  O  O248  1  0.63621132  1.00272548  0.24321783  1
  O  O249  1  0.60911199  0.99538147  0.76527264  1
  O  O250  1  0.37615829  0.00945617  0.24182690  1
  O  O251  1  0.36381336  0.00591636  0.76117966  1
  O  O252  1  0.36311170  0.50442470  0.24714926  1
  O  O253  1  0.40091741  0.49263981  0.76377234  1
  O  O254  1  0.86000946  0.00866316  0.25130516  1
  O  O255  1  0.88236886  -0.00899409  0.76626988  1
  O  O256  1  0.89592778  0.49218462  0.26772597  1
  O  O257  1  0.86945962  0.51089509  0.76058820  1
  O  O258  1  0.14791875  0.34581483  0.45805171  1
  O  O259  1  0.12624400  0.37785268  0.85454701  1
  O  O260  1  0.12521430  0.86375171  0.36516725  1
  O  O261  1  0.11688508  0.87124497  0.86587258  1
  O  O262  1  0.62049038  0.37306907  0.37682944  1
  O  O263  1  0.63865494  0.36210953  0.85378468  1
  O  O264  1  0.67319280  0.85026350  0.43675654  1
  O  O265  1  0.62520267  0.86976772  0.87899354  1
  O  O266  1  0.38947015  0.11681256  0.12796639  1
  O  O267  1  0.34675847  0.12723729  0.63341678  1
  O  O268  1  0.37124262  0.63977879  0.11197567  1
  O  O269  1  0.39052180  0.63102865  0.63847272  1
  O  O270  1  0.88236439  0.11825942  0.13194942  1
  O  O271  1  0.88966300  0.13936658  0.61045717  1
  O  O272  1  0.89004296  0.61965425  0.11875056  1
  O  O273  1  0.87954855  0.62295982  0.64028949  1
  O  O274  1  0.24849156  0.24619646  0.10641138  1
  O  O275  1  0.25239892  0.26476123  0.60983914  1
  O  O276  1  0.25748090  0.75510175  0.12026186  1
  O  O277  1  0.26019679  0.74253659  0.61825796  1
  O  O278  1  0.77097968  0.25105796  0.11358134  1
  O  O279  1  0.76088416  0.26003678  0.61470457  1
  O  O280  1  0.78269358  0.75063028  0.15196895  1
  O  O281  1  0.73430525  0.73799720  0.61892786  1
  O  O282  1  0.25217017  0.24762917  0.39193677  1
  O  O283  1  0.24061122  0.23158035  0.88221112  1
  O  O284  1  0.24350066  0.74576381  0.39070057  1
  O  O285  1  0.23477280  0.75873368  0.88198697  1
  O  O286  1  0.73062522  0.24642249  0.37352848  1
  O  O287  1  0.78554888  0.23455560  0.88959872  1
  O  O288  1  0.76324939  0.72069251  0.34229082  1
  O  O289  1  0.73595712  0.74447810  0.86845910  1
  O  O290  1  0.00728356  0.11282869  0.00696247  1
  O  O291  1  0.02358268  0.12804683  0.51652736  1
  O  O292  1  0.00839717  0.61529002  0.00708681  1
  O  O293  1  0.00080502  0.62587792  0.50949920  1
  O  O294  1  0.51240169  0.13611289  0.01817667  1
  O  O295  1  0.48744364  0.10899177  0.50363840  1
  O  O296  1  0.51682420  0.62885727  0.00613739  1
  O  O297  1  0.49904637  0.63791290  0.51931386  1
  O  O298  1  0.48440647  0.37011365  0.51601252  1
  O  O299  1  0.52264292  0.37288049  1.01070870  1
  O  O300  1  0.50345396  0.87131351  0.48936869  1
  O  O301  1  0.48472560  0.87664307  1.00226574  1
  O  O302  1  0.98959600  0.38625468  0.50921340  1
  O  O303  1  1.00612247  0.39447787  1.00311986  1
  O  O304  1  0.97333424  0.88021071  0.51808977  1
  O  O305  1  1.00118708  0.88368021  0.98968826  1
  O  O306  1  0.49299610  0.52957664  0.37508074  1
  O  O307  1  0.50826138  0.48166385  0.89181696  1
  O  O308  1  0.49836456  0.98840734  0.37310919  1
  O  O309  1  0.47627049  1.01455461  0.87362710  1
  O  O310  1  0.99432699  0.50703231  0.39120779  1
  O  O311  1  0.98740340  0.50585448  0.88290917  1
  O  O312  1  0.98333487  0.99508268  0.34444884  1
  O  O313  1  0.99773041  0.99227680  0.88137871  1
  O  O314  1  0.00563342  0.00815231  0.11767786  1
  O  O315  1  -0.00508713  0.01249549  0.62923848  1
  O  O316  1  0.01113872  0.50856282  0.11413682  1
  O  O317  1  -0.00782635  0.51498275  0.61519863  1
  O  O318  1  0.51661684  0.01203655  0.13598599  1
  O  O319  1  0.49378500  0.00651025  0.62181242  1
  O  O320  1  0.50321926  0.50114344  0.10647309  1
  O  O321  1  0.51736287  0.51227005  0.62770014  1
  O  O322  1  0.25407792  0.39185288  0.26262041  1
  O  O323  1  0.25679926  0.37750071  0.73924291  1
  O  O324  1  0.23369120  0.86996282  0.23111993  1
  O  O325  1  0.23389663  0.86689427  0.75247077  1
  O  O326  1  0.76101670  0.39479981  0.25477112  1
  O  O327  1  0.75863929  0.38738396  0.73156181  1
  O  O328  1  0.74943747  0.88694361  0.26557424  1
  O  O329  1  0.73192848  0.88646554  0.76050993  1
  O  O330  1  0.26405610  0.12829277  0.25090263  1
  O  O331  1  0.24287043  0.12510488  0.75934409  1
  O  O332  1  0.24394316  0.62827000  0.27012668  1
  O  O333  1  0.25261717  0.64378013  0.76819909  1
  O  O334  1  0.75219171  0.13624400  0.25405367  1
  O  O335  1  0.76292012  0.09209229  0.70380851  1
  O  O336  1  0.75257743  0.58888209  0.25357976  1
  O  O337  1  0.75439978  0.62009446  0.75993734  1
  O  O338  1  0.37120264  0.11592447  0.36473615  1
  O  O339  1  0.35856974  0.11817448  0.85936199  1
  O  O340  1  0.35840374  0.63691356  0.38378686  1
  O  O341  1  0.41505155  0.60743509  0.86180271  1
  O  O342  1  0.86581354  0.13219945  0.35254939  1
  O  O343  1  0.89101921  0.11330199  0.86457820  1
  O  O344  1  0.87923354  0.61272197  0.37283714  1
  O  O345  1  0.86573984  0.62416345  0.86769701  1
  O  O346  1  0.13085511  0.40042941  0.12118318  1
  O  O347  1  0.14282218  0.37941318  0.63036172  1
  O  O348  1  0.12789668  0.88104800  0.12564428  1
  O  O349  1  0.11679583  0.88143439  0.63882271  1
  O  O350  1  0.65349863  0.31318810  0.16334600  1
  O  O351  1  0.64298901  0.39358656  0.60864266  1
  O  O352  1  0.61901882  0.88853630  0.12034865  1
  O  O353  1  0.63300968  0.89063166  0.63441191  1
  O  O354  1  0.11394816  0.22829305  0.26133412  1
  O  O355  1  0.13073344  0.27133778  0.74287654  1
  O  O356  1  0.12738858  0.75378312  0.26540778  1
  O  O357  1  0.11455504  0.75888178  0.75581428  1
  O  O358  1  0.60046971  0.24448710  0.27348505  1
  O  O359  1  0.67100029  0.20532423  0.77719921  1
  O  O360  1  0.62508199  0.76002964  0.23683878  1
  O  O361  1  0.62012333  0.76835733  0.76199973  1
  O  O362  1  0.38454373  0.23486263  0.25946980  1
  O  O363  1  0.35973704  0.23256673  0.73537742  1
  O  O364  1  0.36646793  0.75197447  0.23490477  1
  O  O365  1  0.39099022  0.75265992  0.74796687  1
  O  O366  1  0.88043489  0.24748836  0.23636888  1
  O  O367  1  0.87199994  0.24942579  0.73194109  1
  O  O368  1  0.84304668  0.76058951  0.19194776  1
  O  O369  1  0.88410046  0.74195076  0.76376318  1
  O  O370  1  0.38297498  0.49886778  0.50318446  1
  O  O371  1  0.40251969  0.49507566  0.98605830  1
  O  O372  1  0.39318511  0.98533959  0.50117400  1
  O  O373  1  0.36972793  0.98947262  0.99019854  1
  O  O374  1  0.88369299  0.49179015  0.49318620  1
  O  O375  1  0.88575728  0.50261371  0.98610720  1
  O  O376  1  0.89858692  1.04399598  0.46545405  1
  O  O377  1  0.88468022  0.99532552  0.98702979  1
  O  O378  1  0.11559823  0.00405324  0.00689879  1
  O  O379  1  0.12098925  -0.00296155  0.51934202  1
  O  O380  1  0.11614891  0.51055939  -0.00971783  1
  O  O381  1  0.11528741  0.51783336  0.49499820  1
  O  O382  1  0.63831474  0.01063197  0.02270429  1
  O  O383  1  0.59579947  0.00045796  0.50201774  1
  O  O384  1  0.61970337  0.51389486  -0.00502371  1
  O  O385  1  0.62847642  0.50747882  0.50165100  1
  O  O386  1  0.35044970  0.43392611  0.08777799  1
  O  O387  1  0.37069962  0.35814433  0.62680009  1
  O  O388  1  0.36781461  0.87049353  0.11358901  1
  O  O389  1  0.37605531  0.85915419  0.63496351  1
  O  O390  1  0.88240000  0.37326463  0.12710400  1
  O  O391  1  0.87070524  0.36740449  0.61520407  1
  O  O392  1  0.87735471  0.88732865  0.10254354  1
  O  O393  1  0.87361227  0.84802260  0.63833716  1
  O  O394  1  0.12661049  0.10209418  0.38886556  1
  O  O395  1  0.13061226  0.11741448  0.88070898  1
  O  O396  1  0.12844364  0.64095091  0.38645628  1
  O  O397  1  0.11694774  0.63293900  0.88634617  1
  O  O398  1  0.63288867  0.12415626  0.37246646  1
  O  O399  1  0.62813754  0.10354056  0.90659699  1
  O  O400  1  0.64193527  0.61634559  0.36641739  1
  O  O401  1  0.63081784  0.63620399  0.88277647  1
