# generated using pymatgen
data_V73Zn73O256
_symmetry_space_group_name_H-M   'P 1'
_cell_length_a   16.85297040
_cell_length_b   16.87082968
_cell_length_c   16.85878242
_cell_angle_alpha   89.90327900
_cell_angle_beta   89.96299093
_cell_angle_gamma   90.09391139
_symmetry_Int_Tables_number   1
_chemical_formula_structural   V73Zn73O256
_chemical_formula_sum   'V73 Zn73 O256'
_cell_volume   4793.33531761
_cell_formula_units_Z   1
loop_
 _symmetry_equiv_pos_site_id
 _symmetry_equiv_pos_as_xyz
  1  'x, y, z'
loop_
 _atom_site_type_symbol
 _atom_site_label
 _atom_site_symmetry_multiplicity
 _atom_site_fract_x
 _atom_site_fract_y
 _atom_site_fract_z
 _atom_site_occupancy
  V  V0  1  0.24257195  0.25517902  0.50802875  1
  V  V1  1  0.75148221  -0.00458864  0.26129991  1
  V  V2  1  0.63223916  0.75642964  0.36768846  1
  V  V3  1  0.51113087  0.12931286  0.10604187  1
  V  V4  1  0.37870264  0.62674687  0.24087943  1
  V  V5  1  0.87541651  0.39789752  0.50608269  1
  V  V6  1  0.00442357  0.12967064  0.61113681  1
  V  V7  1  0.00292621  0.87147385  0.88243758  1
  V  V8  1  0.63184472  0.12646575  0.51047730  1
  V  V9  1  0.50062077  0.25682697  0.26825952  1
  V  V10  1  0.24660100  -0.00499148  0.23969947  1
  V  V11  1  0.36137709  0.76709164  0.11332762  1
  V  V12  1  0.11644704  0.25782762  0.36181740  1
  V  V13  1  0.26033273  0.87889599  0.61859864  1
  V  V14  1  0.61467103  0.76384920  0.86477989  1
  V  V15  1  0.87479063  0.63737201  0.75145342  1
  V  V16  1  -0.01540979  0.38189589  0.87520230  1
  V  V17  1  -0.01571399  0.88584620  0.38412768  1
  V  V18  1  0.75822819  0.76155248  0.00566574  1
  V  V19  1  0.12352652  0.62086162  0.50046658  1
  V  V20  1  0.59810980  0.62019109  0.00068038  1
  V  V21  1  0.26455492  0.12714115  0.87408381  1
  V  V22  1  0.12859109  0.49950593  0.62738617  1
  V  V23  1  0.49845738  0.63613704  0.63093486  1
  V  V24  1  0.11028724  0.12586941  0.00183651  1
  V  V25  1  -0.01024500  0.14525837  0.13596912  1
  V  V26  1  0.25028804  0.62782400  0.37464853  1
  V  V27  1  0.12107067  0.87428103  0.74702424  1
  V  V28  1  0.11581622  0.00019437  0.12934378  1
  V  V29  1  0.12741177  0.37682465  0.74878950  1
  V  V30  1  0.00241608  0.75788616  0.22692790  1
  V  V31  1  0.24304371  0.49818622  0.24885408  1
  V  V32  1  0.62928699  0.35864359  0.74817787  1
  V  V33  1  0.86797571  0.25216561  0.61434661  1
  V  V34  1  0.11183008  0.24886342  0.86972641  1
  V  V35  1  0.73268186  0.12974233  0.88061149  1
  V  V36  1  0.12380775  0.50694716  0.11451831  1
  V  V37  1  0.75733227  0.29998891  0.04381055  1
  V  V38  1  0.63150562  -0.01676359  0.12609713  1
  V  V39  1  0.88237603  -0.00188986  0.88457119  1
  V  V40  1  0.49234788  0.88120670  0.38176090  1
  V  V41  1  0.38152819  0.39459508  -0.00221274  1
  V  V42  1  0.86400597  0.13498805  0.26660097  1
  V  V43  1  0.75877616  0.75862268  0.51187662  1
  V  V44  1  0.50048744  0.37752355  0.86593005  1
  V  V45  1  0.39061557  0.23508052  0.64032689  1
  V  V46  1  0.24468113  0.37627469  0.12627124  1
  V  V47  1  0.61107011  0.47097673  0.16731434  1
  V  V48  1  0.62458069  0.49719099  0.63164672  1
  V  V49  1  0.25157163  0.61815199  0.87523401  1
  V  V50  1  0.86772370  0.63703144  0.25892610  1
  V  V51  1  -0.00599248  0.62755981  0.61770253  1
  V  V52  1  0.11598865  0.63006507  -0.01367575  1
  V  V53  1  0.37883207  0.24996600  0.11840742  1
  V  V54  1  0.64793489  0.24857298  0.38021748  1
  V  V55  1  0.88472675  0.13040651  0.75474230  1
  V  V56  1  0.24906730  0.25143959  -0.00092824  1
  V  V57  1  0.26096347  0.75722657  0.50167971  1
  V  V58  1  0.37614047  0.12442371  0.24898381  1
  V  V59  1  0.37621052  0.49251033  0.38248709  1
  V  V60  1  0.76120353  0.49498041  0.74516697  1
  V  V61  1  0.75221668  0.62018614  0.88341491  1
  V  V62  1  0.37274383  -0.02560614  0.88452945  1
  V  V63  1  0.75010925  -0.01500800  0.74829162  1
  V  V64  1  0.11922304  0.75983881  0.36945294  1
  V  V65  1  0.62961114  0.62228934  0.49069454  1
  V  V66  1  0.24190632  0.12890081  0.37810553  1
  V  V67  1  0.50106805  -0.02968661  -0.00167635  1
  V  V68  1  0.00276622  0.40053191  0.37795676  1
  V  V69  1  0.62429727  -0.02520204  0.62993327  1
  V  V70  1  0.50174000  0.75607747  0.24493990  1
  V  V71  1  0.37389766  0.59029374  0.74747761  1
  V  V72  1  0.11705976  0.00302865  0.61144276  1
  Zn  Zn73  1  0.25663578  0.00757606  0.74228975  1
  Zn  Zn74  1  0.49045028  0.00008977  0.52404022  1
  Zn  Zn75  1  0.89306596  0.86856752  0.02837809  1
  Zn  Zn76  1  0.36658290  -0.00552240  0.38157950  1
  Zn  Zn77  1  0.50258054  0.49484012  0.49807184  1
  Zn  Zn78  1  -0.01722831  0.49736938  -0.00043665  1
  Zn  Zn79  1  0.39306079  0.35193596  0.49318366  1
  Zn  Zn80  1  0.00509457  0.74860902  0.74883240  1
  Zn  Zn81  1  0.26567843  0.38093268  0.63456614  1
  Zn  Zn82  1  0.18491601  0.18781951  0.18837620  1
  Zn  Zn83  1  0.18597763  0.18646644  0.69209893  1
  Zn  Zn84  1  0.18450536  0.68731384  0.18368551  1
  Zn  Zn85  1  0.19484566  0.68908414  0.69027468  1
  Zn  Zn86  1  0.68893693  0.19701267  0.19090624  1
  Zn  Zn87  1  0.69475843  0.17416150  0.68914015  1
  Zn  Zn88  1  0.69452196  0.65122821  0.16883515  1
  Zn  Zn89  1  0.68681383  0.68935523  0.68696464  1
  Zn  Zn90  1  0.31218179  0.31009783  0.30997179  1
  Zn  Zn91  1  0.31387220  0.31465107  0.81507834  1
  Zn  Zn92  1  0.31215943  0.81390133  0.30830054  1
  Zn  Zn93  1  0.29695560  0.80936787  0.81482490  1
  Zn  Zn94  1  0.83504356  0.31683549  0.32159738  1
  Zn  Zn95  1  0.80812695  0.30638298  0.80914571  1
  Zn  Zn96  1  0.81679085  0.81698562  0.29921832  1
  Zn  Zn97  1  0.81330090  0.80894570  0.82226070  1
  Zn  Zn98  1  0.18811498  0.43542199  0.43916312  1
  Zn  Zn99  1  0.19194577  0.44079430  0.92859229  1
  Zn  Zn100  1  0.18371215  0.94204375  0.43240837  1
  Zn  Zn101  1  0.18595322  0.94226612  0.94300287  1
  Zn  Zn102  1  0.68253783  0.42182288  0.44532574  1
  Zn  Zn103  1  0.67702333  0.44212162  0.92966250  1
  Zn  Zn104  1  0.68592832  0.93715577  0.44124808  1
  Zn  Zn105  1  0.68869985  0.94100099  0.93924557  1
  Zn  Zn106  1  0.31490628  0.06199235  0.05814907  1
  Zn  Zn107  1  0.31126024  0.06651501  0.56130440  1
  Zn  Zn108  1  0.30654578  0.57347089  0.05933159  1
  Zn  Zn109  1  0.30967809  0.56622498  0.56565062  1
  Zn  Zn110  1  0.81302167  0.06459605  0.06393895  1
  Zn  Zn111  1  0.80623249  0.06533904  0.56875496  1
  Zn  Zn112  1  0.76515891  0.50707650  0.06132424  1
  Zn  Zn113  1  0.80870228  0.57076710  0.56226554  1
  Zn  Zn114  1  0.43632683  0.43959214  0.18650146  1
  Zn  Zn115  1  0.44761151  0.42091249  0.67403780  1
  Zn  Zn116  1  0.43888300  0.93825548  0.18681517  1
  Zn  Zn117  1  0.43561727  0.93782072  0.69889699  1
  Zn  Zn118  1  0.94576836  0.42893007  0.18877775  1
  Zn  Zn119  1  0.94831307  0.43481651  0.68674528  1
  Zn  Zn120  1  0.94091081  0.94607674  0.20254643  1
  Zn  Zn121  1  0.94056809  0.94724379  0.69194008  1
  Zn  Zn122  1  0.05695834  0.06706920  0.31154093  1
  Zn  Zn123  1  0.06752278  0.05948470  0.80847987  1
  Zn  Zn124  1  0.05755292  0.57623263  0.30099635  1
  Zn  Zn125  1  0.05773479  0.55547529  0.81080801  1
  Zn  Zn126  1  0.57175831  0.06908151  0.31215487  1
  Zn  Zn127  1  0.55629546  0.04367026  0.80495993  1
  Zn  Zn128  1  0.55887822  0.56154029  0.30939867  1
  Zn  Zn129  1  0.56119947  0.56523587  0.81722922  1
  Zn  Zn130  1  0.43279860  0.16435584  0.45162400  1
  Zn  Zn131  1  0.52601814  0.18098742  0.89448459  1
  Zn  Zn132  1  0.44358755  0.68442905  0.43652270  1
  Zn  Zn133  1  0.42888056  0.69376506  0.92714023  1
  Zn  Zn134  1  0.93683409  0.18681190  0.43693478  1
  Zn  Zn135  1  0.92215670  0.19997287  0.94956927  1
  Zn  Zn136  1  0.93424764  0.68432384  0.43229471  1
  Zn  Zn137  1  0.93894845  0.68777245  0.93890767  1
  Zn  Zn138  1  0.05800483  0.31618721  0.05855033  1
  Zn  Zn139  1  0.05869195  0.31173642  0.55717031  1
  Zn  Zn140  1  0.10436090  0.82202460  0.05323540  1
  Zn  Zn141  1  0.06297802  0.80942516  0.55884322  1
  Zn  Zn142  1  0.56843478  0.31125173  0.04305212  1
  Zn  Zn143  1  0.56320029  0.30489518  0.55838825  1
  Zn  Zn144  1  0.57462285  0.79010321  0.06773257  1
  Zn  Zn145  1  0.56383495  0.81058764  0.55523632  1
  O  O146  1  0.11254665  0.12977713  0.11994046  1
  O  O147  1  0.11490023  0.11536119  0.63054186  1
  O  O148  1  0.13611682  0.61467137  0.10480676  1
  O  O149  1  0.12268427  0.62012043  0.62003298  1
  O  O150  1  0.61067041  0.12768208  0.12716932  1
  O  O151  1  0.62889639  0.11813232  0.61595686  1
  O  O152  1  0.60233713  0.65327384  0.09879635  1
  O  O153  1  0.61529105  0.61808558  0.61859553  1
  O  O154  1  0.36539735  0.38941881  0.37637420  1
  O  O155  1  0.38947855  0.36953890  0.88673423  1
  O  O156  1  0.38588876  0.87724053  0.37192260  1
  O  O157  1  0.35186941  0.87734612  0.89110778  1
  O  O158  1  0.88993034  0.38298012  0.39606306  1
  O  O159  1  0.88612119  0.36553516  0.86583711  1
  O  O160  1  0.88442424  0.87218258  0.37599197  1
  O  O161  1  0.88826419  0.88687140  0.87010949  1
  O  O162  1  0.24437241  0.01514980  0.36367680  1
  O  O163  1  0.26157855  0.01300037  0.88967305  1
  O  O164  1  0.25236353  0.50827302  0.36782061  1
  O  O165  1  0.24893449  0.51473930  0.86237949  1
  O  O166  1  0.73442543  -0.00007690  0.36016373  1
  O  O167  1  0.76268073  0.00345658  0.86637336  1
  O  O168  1  0.75237097  0.47079249  0.33940349  1
  O  O169  1  0.74465036  0.51285548  0.85537688  1
  O  O170  1  0.24575688  0.49542168  0.13006635  1
  O  O171  1  0.23509373  0.49301878  0.61625971  1
  O  O172  1  0.24214097  1.01142155  0.13422450  1
  O  O173  1  0.24018621  0.99200647  0.62161017  1
  O  O174  1  0.69860382  0.53238410  0.14869390  1
  O  O175  1  0.73766268  0.51043845  0.63636926  1
  O  O176  1  0.73187430  1.00142240  0.11466196  1
  O  O177  1  0.74067278  0.99869480  0.64103525  1
  O  O178  1  -0.01686184  0.37625709  0.27847616  1
  O  O179  1  0.01308703  0.37553516  0.76379056  1
  O  O180  1  0.00012921  0.85950356  0.26649935  1
  O  O181  1  0.00916376  0.87425414  0.74726598  1
  O  O182  1  0.48363040  0.35359679  0.24756608  1
  O  O183  1  0.51273484  0.36634402  0.75885491  1
  O  O184  1  0.49548828  0.86086209  0.25874865  1
  O  O185  1  0.45829396  0.82766403  0.74945850  1
  O  O186  1  0.48881632  0.13367781  0.24345607  1
  O  O187  1  0.49150220  0.13311280  0.79974965  1
  O  O188  1  0.48267186  0.63673330  0.26092756  1
  O  O189  1  0.48833072  0.61906408  0.74122656  1
  O  O190  1  0.98397857  0.12767356  0.24277750  1
  O  O191  1  0.98780116  0.11619978  0.74111808  1
  O  O192  1  0.99482653  0.64840340  0.24146886  1
  O  O193  1  0.98807265  0.62536176  0.74619509  1
  O  O194  1  0.36392746  0.25909098  0.01103475  1
  O  O195  1  0.35965440  0.23915096  0.50737288  1
  O  O196  1  0.37708048  0.74253735  0.01631886  1
  O  O197  1  0.35933831  0.74511053  0.49317597  1
  O  O198  1  0.84159488  0.25815981  0.00086928  1
  O  O199  1  0.87549354  0.24852455  0.51233024  1
  O  O200  1  0.86528054  0.75609116  -0.00734541  1
  O  O201  1  0.85636502  0.73819111  0.49235832  1
  O  O202  1  0.13792344  0.25250657  0.48845299  1
  O  O203  1  0.13302267  0.24614945  0.99263362  1
  O  O204  1  0.13454102  0.74013551  0.48872069  1
  O  O205  1  0.11073912  0.72774799  0.99038980  1
  O  O206  1  0.63380015  0.23521807  0.49844046  1
  O  O207  1  0.66895017  0.26029924  1.01083620  1
  O  O208  1  0.63008465  0.73891416  0.48768530  1
  O  O209  1  0.63889895  0.73863335  0.98283445  1
  O  O210  1  0.49409742  0.24087120  0.12379021  1
  O  O211  1  0.49020753  0.24028942  0.62255361  1
  O  O212  1  0.48645634  0.75522368  0.14201941  1
  O  O213  1  0.50453316  0.73495686  0.62040066  1
  O  O214  1  1.00294613  0.24569910  0.12931810  1
  O  O215  1  0.99632729  0.23423196  0.62291893  1
  O  O216  1  1.02345103  0.76887215  0.13048858  1
  O  O217  1  1.00883510  0.73187922  0.62909051  1
  O  O218  1  0.01681069  0.24557879  0.37800762  1
  O  O219  1  0.00742144  0.25771004  0.88446949  1
  O  O220  1  0.01442986  0.75275147  0.37735863  1
  O  O221  1  -0.00731394  0.76786614  0.86634815  1
  O  O222  1  0.47990067  0.24452579  0.36550231  1
  O  O223  1  0.52741799  0.29026685  0.92258224  1
  O  O224  1  0.50213886  0.75949030  0.36931793  1
  O  O225  1  0.51477985  0.75301531  0.88007370  1
  O  O226  1  0.24670796  0.13347817  0.48250618  1
  O  O227  1  0.24167382  0.13622790  0.99456381  1
  O  O228  1  0.24402759  0.63748481  0.49511022  1
  O  O229  1  0.24183720  0.62699269  0.98091428  1
  O  O230  1  0.73267911  0.10396532  0.49431090  1
  O  O231  1  0.75623869  0.11465914  0.97771527  1
  O  O232  1  0.73398638  0.63233426  0.50028055  1
  O  O233  1  0.76515753  0.61258423  0.98346074  1
  O  O234  1  0.25633340  0.36740650  0.00159342  1
  O  O235  1  0.25479250  0.36072582  0.49946905  1
  O  O236  1  0.20333355  0.85402044  0.00541535  1
  O  O237  1  0.24558097  0.86757385  0.50539785  1
  O  O238  1  0.74600182  0.40264628  0.01056923  1
  O  O239  1  0.77417617  0.38549608  0.50128653  1
  O  O240  1  0.75292393  0.86328458  -0.00072136  1
  O  O241  1  0.74432133  0.85769414  0.49688680  1
  O  O242  1  0.13778330  0.51566183  0.23463815  1
  O  O243  1  0.12522547  0.48681043  0.74338106  1
  O  O244  1  0.13871138  1.01737560  0.24005697  1
  O  O245  1  0.13171662  0.99107147  0.73736566  1
  O  O246  1  0.61096548  0.47078179  0.27077131  1
  O  O247  1  0.63268938  0.50195825  0.73961184  1
  O  O248  1  0.63478328  1.00879930  0.23238375  1
  O  O249  1  0.63890208  0.99315702  0.74569818  1
  O  O250  1  0.36420001  0.00981232  0.24808996  1
  O  O251  1  0.37018125  -0.01058974  0.77747970  1
  O  O252  1  0.36561696  0.51176879  0.25822137  1
  O  O253  1  0.38052498  0.49123866  0.74419397  1
  O  O254  1  0.85974375  0.01606915  0.24829659  1
  O  O255  1  0.86690277  0.00889127  0.75440868  1
  O  O256  1  0.87811476  0.52932903  0.21571751  1
  O  O257  1  0.86365457  0.50284300  0.73921551  1
  O  O258  1  0.11377369  0.36853014  0.37956916  1
  O  O259  1  0.12221916  0.36831369  0.86488287  1
  O  O260  1  0.12695853  0.86085268  0.37421267  1
  O  O261  1  0.11268187  0.88957310  0.85703401  1
  O  O262  1  0.61774548  0.34670511  0.39272328  1
  O  O263  1  0.62593488  0.37760357  0.85194998  1
  O  O264  1  0.61281899  0.85945859  0.37576798  1
  O  O265  1  0.63334672  0.86351109  0.87405757  1
  O  O266  1  0.38372427  0.13234232  0.12701798  1
  O  O267  1  0.36030490  0.13670996  0.63437591  1
  O  O268  1  0.37115879  0.62732909  0.13910799  1
  O  O269  1  0.39091221  0.61537917  0.63236510  1
  O  O270  1  0.88937834  0.12685185  0.12090146  1
  O  O271  1  0.88413037  0.12883896  0.63143015  1
  O  O272  1  0.87211670  0.58456650  0.15387341  1
  O  O273  1  0.88807724  0.62173273  0.63359555  1
  O  O274  1  0.25498032  0.25685535  0.11882279  1
  O  O275  1  0.24237052  0.25014004  0.61333587  1
  O  O276  1  0.26219102  0.75020114  0.13221376  1
  O  O277  1  0.24612509  0.76411681  0.61076266  1
  O  O278  1  0.75469059  0.27854550  0.14461704  1
  O  O279  1  0.76960146  0.24509094  0.62995454  1
  O  O280  1  0.74539294  0.73657821  0.10159999  1
  O  O281  1  0.74877129  0.74586944  0.61203546  1
  O  O282  1  0.24306699  0.24471091  0.37881916  1
  O  O283  1  0.24157150  0.24246813  0.88193674  1
  O  O284  1  0.24247420  0.74690396  0.38071760  1
  O  O285  1  0.24127173  0.71821070  0.84302092  1
  O  O286  1  0.74622478  0.25685685  0.36814826  1
  O  O287  1  0.74674831  0.22880384  0.86335959  1
  O  O288  1  0.73319468  0.75742322  0.36990566  1
  O  O289  1  0.74807099  0.73484947  0.88291633  1
  O  O290  1  0.00493512  0.13704277  0.01082463  1
  O  O291  1  -0.00395352  0.12016964  0.51243408  1
  O  O292  1  0.00900264  0.61050969  -0.01317165  1
  O  O293  1  0.00751710  0.62999591  0.51109654  1
  O  O294  1  0.50476633  0.13051267  0.00614524  1
  O  O295  1  0.52330133  0.10954119  0.49344249  1
  O  O296  1  0.50111797  0.61731744  -0.02138663  1
  O  O297  1  0.50931221  0.61925467  0.51077759  1
  O  O298  1  0.50061423  0.38297611  0.50703124  1
  O  O299  1  0.48006045  0.39186499  1.01555877  1
  O  O300  1  0.50092110  0.87979504  0.48688164  1
  O  O301  1  0.50007879  0.87350105  1.01172175  1
  O  O302  1  0.99411340  0.37759324  0.49021986  1
  O  O303  1  1.00575842  0.38015118  0.98139363  1
  O  O304  1  1.00554299  0.86997035  0.48363619  1
  O  O305  1  1.00790087  0.87245267  0.98405420  1
  O  O306  1  0.47771853  0.50891895  0.37700302  1
  O  O307  1  0.51287011  0.47713355  0.87832202  1
  O  O308  1  0.50661251  0.98240679  0.36124362  1
  O  O309  1  0.48772397  0.97986480  0.88844630  1
  O  O310  1  1.01557745  0.49956791  0.37536920  1
  O  O311  1  0.99031567  0.48716414  0.87462797  1
  O  O312  1  1.00629080  0.98444082  0.36795366  1
  O  O313  1  0.98932137  0.99132513  0.86760474  1
  O  O314  1  0.01273283  0.01871717  0.13720826  1
  O  O315  1  0.01125632  0.00927048  0.62463424  1
  O  O316  1  0.02348781  0.49236158  0.12526717  1
  O  O317  1  0.01504608  0.51651215  0.63151034  1
  O  O318  1  0.50480583  0.01007684  0.11520317  1
  O  O319  1  0.51728177  -0.01037555  0.64187000  1
  O  O320  1  0.51705238  0.50866715  0.14579890  1
  O  O321  1  0.51524148  0.50748687  0.62522601  1
  O  O322  1  0.25699988  0.38722910  0.23941110  1
  O  O323  1  0.23340729  0.36860044  0.74918430  1
  O  O324  1  0.25154907  0.89645905  0.25522196  1
  O  O325  1  0.23955365  0.87627251  0.73390182  1
  O  O326  1  0.77155915  0.42302529  0.28475088  1
  O  O327  1  0.74322455  0.38797301  0.75026383  1
  O  O328  1  0.75488123  0.89547441  0.24466341  1
  O  O329  1  0.76448193  0.88648575  0.75330443  1
  O  O330  1  0.25914541  0.12397844  0.25425753  1
  O  O331  1  0.24204549  0.12179521  0.77039041  1
  O  O332  1  0.25803594  0.62086617  0.25710895  1
  O  O333  1  0.27368557  0.61590559  0.73102834  1
  O  O334  1  0.75856929  0.11825602  0.24111909  1
  O  O335  1  0.76329748  0.11164222  0.76046072  1
  O  O336  1  0.76691073  0.64960440  0.25569950  1
  O  O337  1  0.76300762  0.61826795  0.75112244  1
  O  O338  1  0.35969209  0.12688330  0.36163072  1
  O  O339  1  0.36115603  0.13112483  0.88200556  1
  O  O340  1  0.36202144  0.62132287  0.36959430  1
  O  O341  1  0.36739099  0.62320997  0.85385838  1
  O  O342  1  0.87312840  0.12576669  0.36646444  1
  O  O343  1  0.88260495  0.11548750  0.86624491  1
  O  O344  1  0.88536801  0.61537784  0.35699785  1
  O  O345  1  0.86734327  0.62582817  0.85970622  1
  O  O346  1  0.13933285  0.38547544  0.11531678  1
  O  O347  1  0.11639804  0.37987997  0.63703074  1
  O  O348  1  0.11760783  0.90170905  0.13366211  1
  O  O349  1  0.12545877  0.88727740  0.62845120  1
  O  O350  1  0.61535194  0.37767427  0.12855784  1
  O  O351  1  0.62091672  0.38799949  0.63639443  1
  O  O352  1  0.61916115  0.88408064  0.12684834  1
  O  O353  1  0.62684272  0.87544962  0.62777678  1
  O  O354  1  0.13206839  0.25856534  0.26205863  1
  O  O355  1  0.12342522  0.25814275  0.76045971  1
  O  O356  1  0.11845721  0.74281068  0.26212329  1
  O  O357  1  0.12610287  0.76971741  0.73964745  1
  O  O358  1  0.60890483  0.24421580  0.26901489  1
  O  O359  1  0.63679150  0.26123424  0.73919745  1
  O  O360  1  0.60748633  0.73607621  0.26071509  1
  O  O361  1  0.62923391  0.74252833  0.76543447  1
  O  O362  1  0.37660040  0.24305835  0.23588750  1
  O  O363  1  0.37345206  0.25694450  0.73872845  1
  O  O364  1  0.37837077  0.74022125  0.24647346  1
  O  O365  1  0.39816137  0.77964171  0.75138864  1
  O  O366  1  0.86833906  0.23605177  0.25141286  1
  O  O367  1  0.87626939  0.23375492  0.74213770  1
  O  O368  1  0.89013883  0.74614876  0.24309860  1
  O  O369  1  0.87353669  0.73879970  0.74699147  1
  O  O370  1  0.36707005  0.50406368  0.48602840  1
  O  O371  1  0.36088413  0.49177565  0.99930546  1
  O  O372  1  0.38425850  1.02181671  0.48993248  1
  O  O373  1  0.38945449  1.00089951  0.99445823  1
  O  O374  1  0.88357220  0.49739207  0.51698796  1
  O  O375  1  0.87830130  0.47165891  1.05146852  1
  O  O376  1  0.87299199  0.96465279  0.53602451  1
  O  O377  1  0.87447502  0.99340804  0.98556864  1
  O  O378  1  0.12863111  0.01773981  0.01627964  1
  O  O379  1  0.12843331  0.00112443  0.51235501  1
  O  O380  1  0.12989681  0.50376623  0.00721491  1
  O  O381  1  0.13030861  0.51483149  0.50464703  1
  O  O382  1  0.60776454  -0.00663080  0.00821602  1
  O  O383  1  0.62333975  -0.00506320  0.52196277  1
  O  O384  1  0.62957268  0.52223647  0.00033779  1
  O  O385  1  0.63191800  0.50924060  0.50765846  1
  O  O386  1  0.36351484  0.37247493  0.11610461  1
  O  O387  1  0.37519178  0.35512708  0.61604805  1
  O  O388  1  0.37270012  0.86711480  0.12581983  1
  O  O389  1  0.35861173  0.88624436  0.62438997  1
  O  O390  1  0.88118933  0.40171797  0.09620325  1
  O  O391  1  0.89074694  0.36091005  0.61693810  1
  O  O392  1  0.88079820  0.88134635  0.13559487  1
  O  O393  1  0.87969463  0.91064594  0.58914608  1
  O  O394  1  0.13617939  0.13803541  0.36483617  1
  O  O395  1  0.12222877  0.13106760  0.88449597  1
  O  O396  1  0.13540740  0.63180688  0.37980940  1
  O  O397  1  0.13115428  0.61351519  0.87952837  1
  O  O398  1  0.62461717  0.14007844  0.38421830  1
  O  O399  1  0.63122504  0.11364922  0.87531097  1
  O  O400  1  0.61542697  0.63114518  0.38656078  1
  O  O401  1  0.63768809  0.62936835  0.88148654  1
