# generated using pymatgen
data_V73Zn73O256
_symmetry_space_group_name_H-M   'P 1'
_cell_length_a   16.94633837
_cell_length_b   16.91057737
_cell_length_c   16.98937423
_cell_angle_alpha   90.09286901
_cell_angle_beta   90.02963843
_cell_angle_gamma   90.41717477
_symmetry_Int_Tables_number   1
_chemical_formula_structural   V73Zn73O256
_chemical_formula_sum   'V73 Zn73 O256'
_cell_volume   4868.54904030
_cell_formula_units_Z   1
loop_
 _symmetry_equiv_pos_site_id
 _symmetry_equiv_pos_as_xyz
  1  'x, y, z'
loop_
 _atom_site_type_symbol
 _atom_site_label
 _atom_site_symmetry_multiplicity
 _atom_site_fract_x
 _atom_site_fract_y
 _atom_site_fract_z
 _atom_site_occupancy
  V  V0  1  0.49194047  0.88332370  0.90481614  1
  V  V1  1  0.00037476  0.50527738  0.49525571  1
  V  V2  1  0.38335836  0.62513193  0.75283232  1
  V  V3  1  0.12441180  0.00017941  0.61986790  1
  V  V4  1  0.00111650  0.63128723  0.62311372  1
  V  V5  1  -0.02219889  0.62263879  0.11583557  1
  V  V6  1  0.48272117  -0.01236319  0.49109944  1
  V  V7  1  0.88264954  0.24774754  0.12632976  1
  V  V8  1  0.24245963  0.24546476  -0.00678074  1
  V  V9  1  0.51783533  0.37688436  0.87305598  1
  V  V10  1  0.75555283  0.86943074  0.11879881  1
  V  V11  1  0.26936556  0.10675350  0.37461767  1
  V  V12  1  0.27879675  0.75535545  0.45148689  1
  V  V13  1  0.11964728  0.59829926  0.00089591  1
  V  V14  1  0.63465350  0.73139456  0.39307451  1
  V  V15  1  0.62027285  0.37759087  0.25053393  1
  V  V16  1  0.49492563  0.38024847  0.37828681  1
  V  V17  1  0.12386655  0.88544074  0.23934743  1
  V  V18  1  0.62201237  -0.00304846  0.63420113  1
  V  V19  1  0.73544804  0.01588457  0.26197150  1
  V  V20  1  0.61828318  -0.00288165  0.11377707  1
  V  V21  1  0.49491934  0.13140026  0.63216473  1
  V  V22  1  0.25176656  0.50191215  0.74159182  1
  V  V23  1  0.86875147  0.49998760  0.37502711  1
  V  V24  1  0.25487860  0.25239837  0.48634588  1
  V  V25  1  0.74296240  0.24844584  0.50118637  1
  V  V26  1  0.61649890  0.12607230  0.49978445  1
  V  V27  1  0.19588279  0.32866899  0.67072596  1
  V  V28  1  0.51156864  0.62703417  0.62753557  1
  V  V29  1  0.13150373  0.50576792  0.62371748  1
  V  V30  1  0.00625708  0.75265755  0.74445623  1
  V  V31  1  0.00814751  0.37569544  0.84974532  1
  V  V32  1  0.13273864  0.87387878  0.74366689  1
  V  V33  1  0.36988203  0.74716761  0.11579408  1
  V  V34  1  0.50927108  0.50840518  0.50318161  1
  V  V35  1  0.37189503  0.24488456  0.13240990  1
  V  V36  1  0.75122201  0.37442724  0.62157637  1
  V  V37  1  0.49126756  0.12087162  0.12539365  1
  V  V38  1  0.78759114  0.84934737  0.61276700  1
  V  V39  1  0.49889958  0.73750613  0.25335061  1
  V  V40  1  0.24272903  0.38137426  0.13456078  1
  V  V41  1  0.37767520  0.25691905  0.63452827  1
  V  V42  1  0.50713980  0.60910347  0.11032208  1
  V  V43  1  0.10269181  0.73499743  0.36183564  1
  V  V44  1  0.62437371  0.24882984  0.37636031  1
  V  V45  1  0.61869157  0.87299831  0.26598218  1
  V  V46  1  0.88779720  0.38073430  0.00161607  1
  V  V47  1  0.12816385  0.12381044  0.49676681  1
  V  V48  1  0.63502507  0.74579739  0.89801674  1
  V  V49  1  0.89156077  0.11647327  0.74917033  1
  V  V50  1  0.27500935  0.00177521  0.74773644  1
  V  V51  1  0.62728211  0.13820926  -0.00581034  1
  V  V52  1  0.37868943  0.37068736  -0.00334763  1
  V  V53  1  0.51415654  0.76146510  0.75923830  1
  V  V54  1  0.13067915  0.75596398  0.88250298  1
  V  V55  1  0.74540553  0.50254242  0.25194375  1
  V  V56  1  0.38293036  0.49865876  0.88038276  1
  V  V57  1  0.52181798  0.25067210  0.75607193  1
  V  V58  1  0.36722560  0.51607737  0.37079102  1
  V  V59  1  0.63319041  0.50212065  0.62836358  1
  V  V60  1  0.37538242  0.75873013  0.62915292  1
  V  V61  1  0.26649366  0.12489785  0.86875379  1
  V  V62  1  0.75840449  0.49834005  0.76017179  1
  V  V63  1  0.88977455  0.12904196  0.25607884  1
  V  V64  1  0.86949997  0.63831456  0.25000626  1
  V  V65  1  0.37130855  0.38309358  0.50873130  1
  V  V66  1  0.89489185  0.35716826  0.48259180  1
  V  V67  1  0.25190052  0.62461173  0.88330491  1
  V  V68  1  0.87376704  0.63230979  0.75225053  1
  V  V69  1  0.74169094  0.36825672  0.11963073  1
  V  V70  1  0.26282453  -0.00102848  0.23694944  1
  V  V71  1  0.89532542  0.24592988  0.62970257  1
  V  V72  1  -0.00004512  0.88541338  0.37903240  1
  Zn  Zn73  1  0.10558212  0.24287057  0.87300207  1
  Zn  Zn74  1  0.88444220  0.50560829  0.88595551  1
  Zn  Zn75  1  0.02395656  0.33216498  0.32075586  1
  Zn  Zn76  1  0.14548692  0.63059494  0.49575493  1
  Zn  Zn77  1  0.85645273  -0.00024483  0.38996774  1
  Zn  Zn78  1  0.26252797  0.87817845  0.60592734  1
  Zn  Zn79  1  0.48685030  0.24771600  0.25756372  1
  Zn  Zn80  1  -0.01870661  -0.00216671  0.50928148  1
  Zn  Zn81  1  0.75347370  0.11928059  0.87230011  1
  Zn  Zn82  1  0.07647559  0.18851458  0.19004631  1
  Zn  Zn83  1  0.16265984  0.15802193  0.71829271  1
  Zn  Zn84  1  0.17036198  0.69378158  0.17965008  1
  Zn  Zn85  1  0.19237057  0.68432549  0.68889617  1
  Zn  Zn86  1  0.67766995  0.19250079  0.18526637  1
  Zn  Zn87  1  0.69460711  0.17653944  0.68903931  1
  Zn  Zn88  1  0.68164484  0.68872799  0.18137028  1
  Zn  Zn89  1  0.69523133  0.69479186  0.69267500  1
  Zn  Zn90  1  0.18744581  0.30202744  0.30721484  1
  Zn  Zn91  1  0.31734072  0.31418670  0.81613772  1
  Zn  Zn92  1  0.29209731  0.78923211  0.27567702  1
  Zn  Zn93  1  0.31688893  0.81346302  0.81451348  1
  Zn  Zn94  1  0.80763164  0.30734305  0.30864904  1
  Zn  Zn95  1  0.81747975  0.31353953  0.80205331  1
  Zn  Zn96  1  0.80161192  0.82129906  0.31549336  1
  Zn  Zn97  1  0.75900664  0.99280449  0.74885744  1
  Zn  Zn98  1  0.18841963  0.44479760  0.43413734  1
  Zn  Zn99  1  0.18930459  0.42896529  0.92849196  1
  Zn  Zn100  1  0.19110804  0.92728359  0.42933128  1
  Zn  Zn101  1  0.19229110  0.94128118  0.92313162  1
  Zn  Zn102  1  0.68864270  0.43743988  0.43954428  1
  Zn  Zn103  1  0.69831070  0.30511849  0.93477193  1
  Zn  Zn104  1  0.68204329  0.93442070  0.45113723  1
  Zn  Zn105  1  0.71610161  0.89320154  0.91047168  1
  Zn  Zn106  1  0.18979102  0.08633982  0.08107970  1
  Zn  Zn107  1  0.31389691  0.06762596  0.56620228  1
  Zn  Zn108  1  0.32177746  0.56520326  0.07091380  1
  Zn  Zn109  1  0.32077432  0.57840296  0.55383859  1
  Zn  Zn110  1  0.79425550  0.07189021  0.07676481  1
  Zn  Zn111  1  0.80591090  0.06654371  0.56670433  1
  Zn  Zn112  1  0.80788427  0.54992470  0.07297186  1
  Zn  Zn113  1  0.82428512  0.56109795  0.56579878  1
  Zn  Zn114  1  0.42697113  0.43991121  0.19002872  1
  Zn  Zn115  1  0.44624797  0.43718785  0.69351306  1
  Zn  Zn116  1  0.43823158  0.92941676  0.18555121  1
  Zn  Zn117  1  0.45391963  0.93953049  0.68571720  1
  Zn  Zn118  1  0.93817648  0.44059577  0.18072859  1
  Zn  Zn119  1  0.93702297  0.43902905  0.67621800  1
  Zn  Zn120  1  0.91327117  0.92260057  0.22583461  1
  Zn  Zn121  1  0.93935769  0.92934462  0.68534667  1
  Zn  Zn122  1  0.07273037  0.06061524  0.31675211  1
  Zn  Zn123  1  0.06640506  0.06057412  0.81209665  1
  Zn  Zn124  1  0.04336386  0.53496311  0.28911002  1
  Zn  Zn125  1  0.06360040  0.55986539  0.81196921  1
  Zn  Zn126  1  0.54765339  0.06321811  0.31133151  1
  Zn  Zn127  1  0.60501113  0.01180888  0.84852680  1
  Zn  Zn128  1  0.56505106  0.56640652  0.31616481  1
  Zn  Zn129  1  0.57469111  0.56543214  0.81862360  1
  Zn  Zn130  1  0.43650419  0.19314991  0.44246646  1
  Zn  Zn131  1  0.44556466  0.18625348  0.93878475  1
  Zn  Zn132  1  0.44707078  0.70237598  0.43529749  1
  Zn  Zn133  1  0.43898653  0.69214161  0.94541292  1
  Zn  Zn134  1  0.92758591  0.16908458  0.45145389  1
  Zn  Zn135  1  0.89288135  0.22024832  0.91231699  1
  Zn  Zn136  1  0.94142969  0.68420891  0.42638552  1
  Zn  Zn137  1  0.95298682  0.68357890  0.92559438  1
  Zn  Zn138  1  0.06437287  0.31055285  0.06304030  1
  Zn  Zn139  1  0.06887411  0.31033879  0.47766564  1
  Zn  Zn140  1  0.06486809  0.80344864  0.07363053  1
  Zn  Zn141  1  0.06957149  0.81269814  0.55239870  1
  Zn  Zn142  1  0.55509444  0.31321949  0.06328609  1
  Zn  Zn143  1  0.56291662  0.31985492  0.56665442  1
  Zn  Zn144  1  0.56072231  0.80715486  0.06930806  1
  Zn  Zn145  1  0.56105066  0.81381109  0.56267701  1
  O  O146  1  0.09742146  0.13714365  0.09881100  1
  O  O147  1  0.13782418  0.10641266  0.61836158  1
  O  O148  1  0.13088699  0.62414801  0.09933647  1
  O  O149  1  0.12180402  0.62058375  0.62033927  1
  O  O150  1  0.61638920  0.11965623  0.11759275  1
  O  O151  1  0.61052021  0.12862549  0.61710572  1
  O  O152  1  0.60833668  0.62273552  0.12834399  1
  O  O153  1  0.61916010  0.61808016  0.63397645  1
  O  O154  1  0.38954035  0.39203161  0.39113995  1
  O  O155  1  0.38423430  0.38277482  0.87856968  1
  O  O156  1  0.35736107  0.78195517  0.39651770  1
  O  O157  1  0.39273981  0.86080879  0.87991852  1
  O  O158  1  0.86469217  0.38400557  0.38166099  1
  O  O159  1  0.88585167  0.37542700  0.89061615  1
  O  O160  1  0.88942753  0.89102518  0.34914620  1
  O  O161  1  0.89674380  0.84471821  0.93489171  1
  O  O162  1  0.26202724  0.00465894  0.38310031  1
  O  O163  1  0.25124356  0.01423325  0.85976559  1
  O  O164  1  0.26807593  0.51210277  0.39332162  1
  O  O165  1  0.25974638  0.50375000  0.86136443  1
  O  O166  1  0.74121745  -0.00289457  0.36435280  1
  O  O167  1  0.72058361  -0.00508375  0.85882135  1
  O  O168  1  0.75577443  0.49763212  0.36542134  1
  O  O169  1  0.76116081  0.49313271  0.85725278  1
  O  O170  1  0.26543066  0.47940074  0.11908560  1
  O  O171  1  0.24764673  0.51717292  0.63152011  1
  O  O172  1  0.25036098  1.01219928  0.13757265  1
  O  O173  1  0.25199247  0.99525561  0.63709940  1
  O  O174  1  0.75043922  0.47986861  0.14307787  1
  O  O175  1  0.74823921  0.49447775  0.62066158  1
  O  O176  1  0.72874026  1.00171042  0.14035405  1
  O  O177  1  0.72324835  1.02179953  0.62850076  1
  O  O178  1  0.01543083  0.42517930  0.25835773  1
  O  O179  1  -0.00636241  0.37350724  0.75137155  1
  O  O180  1  0.01626476  0.89116398  0.25751732  1
  O  O181  1  0.02017630  0.86554865  0.74221335  1
  O  O182  1  0.50544415  0.37682386  0.26072973  1
  O  O183  1  0.50579900  0.36530732  0.76158346  1
  O  O184  1  0.51620510  0.86606825  0.24466559  1
  O  O185  1  0.49968079  0.86078531  0.75390656  1
  O  O186  1  0.50620681  0.13421344  0.23157248  1
  O  O187  1  0.49803082  0.14652316  0.73890902  1
  O  O188  1  0.50814271  0.63445718  0.24483808  1
  O  O189  1  0.49709611  0.62723802  0.74678440  1
  O  O190  1  0.98928214  0.11172455  0.24935029  1
  O  O191  1  0.99339605  0.11892665  0.74668065  1
  O  O192  1  0.97449634  0.61819200  0.23311915  1
  O  O193  1  1.00248917  0.63095180  0.74056280  1
  O  O194  1  0.36979873  0.25657081  -0.00125564  1
  O  O195  1  0.37054451  0.26334258  0.51037264  1
  O  O196  1  0.36144619  0.74099674  0.01498315  1
  O  O197  1  0.38403013  0.74044343  0.52940390  1
  O  O198  1  0.87264613  0.26396071  0.01919622  1
  O  O199  1  0.85881454  0.24710206  0.51322426  1
  O  O200  1  0.90498753  0.78605754  -0.02031845  1
  O  O201  1  0.84020041  0.71140664  0.49023152  1
  O  O202  1  0.14352664  0.23220714  0.51197661  1
  O  O203  1  0.14088244  0.25853611  0.99020771  1
  O  O204  1  0.11247442  0.73943944  0.47299091  1
  O  O205  1  0.12274328  0.76062148  0.98242312  1
  O  O206  1  0.62476355  0.25033871  0.49481642  1
  O  O207  1  0.62707704  0.24371268  1.00415058  1
  O  O208  1  0.61464944  0.74642200  0.49116110  1
  O  O209  1  0.62244105  0.74367057  0.99810067  1
  O  O210  1  0.48611309  0.24663036  0.12784765  1
  O  O211  1  0.49791986  0.25369229  0.63706709  1
  O  O212  1  0.49432130  0.73743252  0.13588447  1
  O  O213  1  0.49725999  0.74409626  0.64058362  1
  O  O214  1  0.98446708  0.25804485  0.13131730  1
  O  O215  1  0.98976277  0.25092500  0.61175549  1
  O  O216  1  1.00627982  0.72309559  0.12151424  1
  O  O217  1  1.01712681  0.74053522  0.63109709  1
  O  O218  1  -0.03156654  0.28225252  0.42080384  1
  O  O219  1  -0.00647109  0.27140681  0.88239617  1
  O  O220  1  -0.00318083  0.76684723  0.36920093  1
  O  O221  1  0.02413347  0.74397435  0.85741280  1
  O  O222  1  0.50356801  0.26423213  0.37655556  1
  O  O223  1  0.49815911  0.26036522  0.86197016  1
  O  O224  1  0.52317151  0.74432609  0.36110962  1
  O  O225  1  0.50528420  0.74617680  0.86608704  1
  O  O226  1  0.25183057  0.13323896  0.49459100  1
  O  O227  1  0.24350077  0.13505273  0.98201878  1
  O  O228  1  0.25986349  0.65654269  0.49628597  1
  O  O229  1  0.24108045  0.61150137  0.98690920  1
  O  O230  1  0.72917637  0.14004472  0.50648696  1
  O  O231  1  0.73254811  0.12167293  0.99589236  1
  O  O232  1  0.79065351  0.65302774  0.49444715  1
  O  O233  1  0.71967702  0.59452809  1.00043580  1
  O  O234  1  0.26285955  0.36277796  -0.00817242  1
  O  O235  1  0.26537474  0.37025868  0.49470990  1
  O  O236  1  0.26348677  0.89750744  0.00916543  1
  O  O237  1  0.24462334  0.84629277  0.49453363  1
  O  O238  1  0.75060237  0.37279538  0.01819506  1
  O  O239  1  0.75724945  0.36625684  0.50543431  1
  O  O240  1  0.74956488  0.89092790  0.02067329  1
  O  O241  1  0.75564362  0.89511469  0.52418584  1
  O  O242  1  0.16317177  0.52643287  0.24947118  1
  O  O243  1  0.14003056  0.50888323  0.73752409  1
  O  O244  1  0.13762164  0.99230889  0.25117494  1
  O  O245  1  0.13202770  0.99133398  0.73599476  1
  O  O246  1  0.63573688  0.48949277  0.26048329  1
  O  O247  1  0.64831912  0.50784654  0.74093098  1
  O  O248  1  0.62367610  0.99406539  0.25078103  1
  O  O249  1  0.60461184  1.00961193  0.73224481  1
  O  O250  1  0.36233752  -0.01161249  0.24588519  1
  O  O251  1  0.37228326  -0.00616313  0.74707356  1
  O  O252  1  0.37558435  0.49765656  0.27261100  1
  O  O253  1  0.37255853  0.50626949  0.75670469  1
  O  O254  1  0.85081300  0.02218776  0.24638335  1
  O  O255  1  0.87921663  0.01217334  0.73438311  1
  O  O256  1  0.85848686  0.49916714  0.25831800  1
  O  O257  1  0.86993613  0.51044362  0.74337959  1
  O  O258  1  0.12528471  0.36393561  0.38963113  1
  O  O259  1  0.11285814  0.36832905  0.86602405  1
  O  O260  1  0.11043595  0.86914844  0.36722529  1
  O  O261  1  0.13846748  0.86091592  0.86156163  1
  O  O262  1  0.61500672  0.37027666  0.37229663  1
  O  O263  1  0.61576238  0.37448712  0.88548943  1
  O  O264  1  0.62255162  0.87732737  0.36649087  1
  O  O265  1  0.59948633  0.85721724  0.88524580  1
  O  O266  1  0.38772092  0.13557013  0.11613441  1
  O  O267  1  0.38553603  0.14504261  0.61774509  1
  O  O268  1  0.39183145  0.63371283  0.12750787  1
  O  O269  1  0.38885089  0.62886125  0.64020137  1
  O  O270  1  0.86572940  0.14212522  0.13570670  1
  O  O271  1  0.87101781  0.14002371  0.63355943  1
  O  O272  1  0.87137566  0.62895796  0.12496762  1
  O  O273  1  0.89265047  0.62095724  0.63850296  1
  O  O274  1  0.26236468  0.25346177  0.10275569  1
  O  O275  1  0.25881545  0.26403041  0.61795557  1
  O  O276  1  0.27403267  0.73731313  0.16407170  1
  O  O277  1  0.27206388  0.75165815  0.64084272  1
  O  O278  1  0.75869493  0.26435997  0.13864712  1
  O  O279  1  0.74244297  0.26189225  0.61724825  1
  O  O280  1  0.74105239  0.76990809  0.12865810  1
  O  O281  1  0.75511334  0.75138094  0.61859578  1
  O  O282  1  0.25363328  0.23899478  0.38518665  1
  O  O283  1  0.25563105  0.24181777  0.87994618  1
  O  O284  1  0.21980712  0.74251892  0.36398643  1
  O  O285  1  0.24008175  0.73568131  0.86546606  1
  O  O286  1  0.73480808  0.25859542  0.38750951  1
  O  O287  1  0.77330179  0.24430146  0.87954127  1
  O  O288  1  0.73099484  0.76228643  0.37840593  1
  O  O289  1  0.72986893  0.77959900  0.88241085  1
  O  O290  1  -0.06324364  0.06164621  -0.00628473  1
  O  O291  1  0.02733556  0.12231990  0.49506845  1
  O  O292  1  0.01055960  0.62111378  0.00131458  1
  O  O293  1  -0.00932840  0.61811366  0.50992376  1
  O  O294  1  0.51140296  0.13255808  0.01637862  1
  O  O295  1  0.50487683  0.13142609  0.51215169  1
  O  O296  1  0.49929691  0.62006028  0.00928653  1
  O  O297  1  0.49733923  0.61765631  0.51811939  1
  O  O298  1  0.49639183  0.38720747  0.49728126  1
  O  O299  1  0.49092755  0.36702967  0.98339230  1
  O  O300  1  0.49822285  0.88896794  0.50125308  1
  O  O301  1  0.49321998  0.87297296  1.00513138  1
  O  O302  1  0.99507985  0.39608873  0.51458790  1
  O  O303  1  0.98671109  0.37977151  1.01193663  1
  O  O304  1  1.00114322  0.87882682  0.48400044  1
  O  O305  1  0.99549972  0.90669958  1.04460913  1
  O  O306  1  0.50352529  0.49671256  0.38811503  1
  O  O307  1  0.49708346  0.48694599  0.86410275  1
  O  O308  1  0.49423343  1.00897579  0.39282745  1
  O  O309  1  0.50186642  0.98242160  0.88439595  1
  O  O310  1  0.98472820  0.50821032  0.38952300  1
  O  O311  1  0.99941029  0.48270622  0.86796037  1
  O  O312  1  1.00414315  0.99223914  0.38321428  1
  O  O313  1  1.04278199  0.99962768  0.90982836  1
  O  O314  1  0.01384579  -0.03199844  0.08204338  1
  O  O315  1  0.02194697  -0.01064118  0.61822425  1
  O  O316  1  -0.00443648  0.52189345  0.11902249  1
  O  O317  1  0.01314379  0.51152823  0.61982333  1
  O  O318  1  0.50672622  0.01180882  0.13247898  1
  O  O319  1  0.50280925  0.01533744  0.61413910  1
  O  O320  1  0.49149717  0.50880760  0.12722379  1
  O  O321  1  0.51343587  0.50623984  0.62494904  1
  O  O322  1  0.24889752  0.36427939  0.23352764  1
  O  O323  1  0.25314603  0.38413911  0.74125323  1
  O  O324  1  0.23675052  0.88975193  0.26174297  1
  O  O325  1  0.24752795  0.88809310  0.75336224  1
  O  O326  1  0.73825394  0.38108730  0.24851108  1
  O  O327  1  0.76640703  0.39031457  0.73359220  1
  O  O328  1  0.73260934  0.89000729  0.24321264  1
  O  O329  1  0.76142816  0.88762507  0.70271182  1
  O  O330  1  0.24996523  0.10480838  0.27100887  1
  O  O331  1  0.26606695  0.11149745  0.75226358  1
  O  O332  1  0.20914325  0.58578075  0.24570454  1
  O  O333  1  0.26326465  0.61791128  0.75959666  1
  O  O334  1  0.73265144  0.11713269  0.25390971  1
  O  O335  1  0.76361406  0.11791060  0.75415382  1
  O  O336  1  0.75660484  0.60928415  0.23562186  1
  O  O337  1  0.76855314  0.61768227  0.74415381  1
  O  O338  1  0.36763121  0.12857431  0.37988199  1
  O  O339  1  0.36512267  0.12928530  0.87665976  1
  O  O340  1  0.39284705  0.61258370  0.38467456  1
  O  O341  1  0.37216423  0.61778000  0.87058753  1
  O  O342  1  0.87288458  0.13193478  0.35538793  1
  O  O343  1  0.87857132  0.12269669  0.85466302  1
  O  O344  1  0.87550955  0.61489842  0.35620787  1
  O  O345  1  0.88708740  0.61953986  0.85812201  1
  O  O346  1  0.14510827  0.37118275  0.11363974  1
  O  O347  1  0.13855135  0.39314981  0.61416508  1
  O  O348  1  0.12877320  0.86956621  0.14018112  1
  O  O349  1  0.13959936  0.88100625  0.62637246  1
  O  O350  1  0.63245229  0.36565268  0.13569673  1
  O  O351  1  0.63880471  0.38910472  0.62251581  1
  O  O352  1  0.62545041  0.88960490  0.13156884  1
  O  O353  1  0.61404922  0.89732699  0.62100584  1
  O  O354  1  0.09119518  0.24769873  0.27905753  1
  O  O355  1  0.13566323  0.26937441  0.72381688  1
  O  O356  1  0.12060931  0.76460430  0.25655885  1
  O  O357  1  0.12644289  0.75664630  0.75115275  1
  O  O358  1  0.62148035  0.26258839  0.26142212  1
  O  O359  1  0.62020527  0.24797523  0.75061026  1
  O  O360  1  0.62312732  0.76281765  0.25486311  1
  O  O361  1  0.61406837  0.75081706  0.75042273  1
  O  O362  1  0.36739401  0.24895197  0.23032851  1
  O  O363  1  0.37769546  0.26110537  0.73624883  1
  O  O364  1  0.40032212  0.75225999  0.25699593  1
  O  O365  1  0.38846897  0.73903463  0.74897087  1
  O  O366  1  0.87572305  0.24108406  0.24405176  1
  O  O367  1  0.88271084  0.24482931  0.73494577  1
  O  O368  1  0.86003830  0.73585737  0.25569960  1
  O  O369  1  0.89557283  0.73501106  0.75218458  1
  O  O370  1  0.38977298  0.49843072  0.50263398  1
  O  O371  1  0.37084501  0.49007275  0.98455026  1
  O  O372  1  0.38396616  0.99885865  0.51073105  1
  O  O373  1  0.32773545  0.93501534  1.01356845  1
  O  O374  1  0.87999967  0.48940578  0.49233212  1
  O  O375  1  0.86591263  0.48424885  1.00134697  1
  O  O376  1  0.88313509  1.04957852  0.48821847  1
  O  O377  1  0.87825845  1.01672349  1.00360453  1
  O  O378  1  0.10242692  0.00546415  -0.03819198  1
  O  O379  1  0.14226531  0.00407057  0.51271717  1
  O  O380  1  0.12425813  0.50015759  -0.00732731  1
  O  O381  1  0.11982475  0.51432142  0.50429694  1
  O  O382  1  0.61984062  0.00923761  0.01655032  1
  O  O383  1  0.61111086  0.01428930  0.50670989  1
  O  O384  1  0.66261762  0.54841570  -0.00887865  1
  O  O385  1  0.61844625  0.49914465  0.51139813  1
  O  O386  1  0.37272907  0.36213328  0.11446592  1
  O  O387  1  0.38607618  0.37386058  0.61628454  1
  O  O388  1  0.38389661  0.84754331  0.13055755  1
  O  O389  1  0.38029386  0.86218005  0.63363812  1
  O  O390  1  0.86506335  0.36956820  0.12212693  1
  O  O391  1  0.87092925  0.36234853  0.61015152  1
  O  O392  1  0.85441915  0.88626941  0.13926850  1
  O  O393  1  0.89098250  0.85942341  0.61141937  1
  O  O394  1  0.14479860  0.11386247  0.39354078  1
  O  O395  1  0.14411326  0.14264487  0.83713832  1
  O  O396  1  0.09076748  0.63537039  0.35316229  1
  O  O397  1  0.13166845  0.62941598  0.88540759  1
  O  O398  1  0.60832509  0.14172149  0.38502927  1
  O  O399  1  0.61441217  0.12380467  0.89513993  1
  O  O400  1  0.63626442  0.63100262  0.37865154  1
  O  O401  1  0.63360313  0.64582846  0.86831789  1
