# generated using pymatgen
data_V73Zn73O256
_symmetry_space_group_name_H-M   'P 1'
_cell_length_a   16.93100648
_cell_length_b   16.90869488
_cell_length_c   16.93621821
_cell_angle_alpha   89.90530540
_cell_angle_beta   89.92483284
_cell_angle_gamma   90.11999920
_symmetry_Int_Tables_number   1
_chemical_formula_structural   V73Zn73O256
_chemical_formula_sum   'V73 Zn73 O256'
_cell_volume   4848.49980591
_cell_formula_units_Z   1
loop_
 _symmetry_equiv_pos_site_id
 _symmetry_equiv_pos_as_xyz
  1  'x, y, z'
loop_
 _atom_site_type_symbol
 _atom_site_label
 _atom_site_symmetry_multiplicity
 _atom_site_fract_x
 _atom_site_fract_y
 _atom_site_fract_z
 _atom_site_occupancy
  V  V0  1  0.89438570  0.63689648  0.74513056  1
  V  V1  1  0.01759051  0.75560301  0.25129291  1
  V  V2  1  -0.00568182  0.00537927  -0.01995248  1
  V  V3  1  0.00454080  0.00057324  0.48993876  1
  V  V4  1  0.75290593  -0.01188624  0.24021407  1
  V  V5  1  0.50937161  0.75084111  0.75496355  1
  V  V6  1  0.11507232  0.61771460  0.00079020  1
  V  V7  1  0.11734570  0.00021840  0.12911975  1
  V  V8  1  0.48948538  -0.00631846  0.48326346  1
  V  V9  1  0.31878156  0.55774844  0.19174715  1
  V  V10  1  0.89561096  0.49160905  0.87912921  1
  V  V11  1  0.37805345  0.24786023  0.62314728  1
  V  V12  1  0.49320222  0.74371100  0.24778450  1
  V  V13  1  0.37089182  0.49754504  0.36944425  1
  V  V14  1  0.12613786  0.13344256  0.49291212  1
  V  V15  1  0.50764051  0.37540837  0.87475305  1
  V  V16  1  0.24081458  0.74418064  -0.00860860  1
  V  V17  1  0.74243521  0.00407592  0.75203975  1
  V  V18  1  0.14373079  0.24233267  0.85918653  1
  V  V19  1  0.62301993  0.74601867  0.38754643  1
  V  V20  1  0.36746347  0.12190357  0.76228655  1
  V  V21  1  0.12963602  0.49277347  0.63293231  1
  V  V22  1  -0.00092099  0.50153892  0.49878523  1
  V  V23  1  0.52168569  0.37201103  0.37556087  1
  V  V24  1  0.62705312  0.62556290  -0.00437957  1
  V  V25  1  0.74422041  0.24082967  0.00363916  1
  V  V26  1  0.50454185  0.11313202  0.62066477  1
  V  V27  1  0.62102049  0.23119921  0.88489210  1
  V  V28  1  0.36114867  0.75515300  0.62348600  1
  V  V29  1  0.36888818  0.87478269  -0.00535469  1
  V  V30  1  0.02232486  0.88072898  0.36578195  1
  V  V31  1  0.50877673  0.12325894  0.12002620  1
  V  V32  1  0.50431988  0.50027438  -0.00701695  1
  V  V33  1  0.86722377  0.25979469  0.12051603  1
  V  V34  1  0.62375599  0.48010161  0.63729972  1
  V  V35  1  0.47972056  0.87658957  0.36289066  1
  V  V36  1  0.50294455  0.61952443  0.12405133  1
  V  V37  1  0.87390149  0.11638537  0.24833584  1
  V  V38  1  0.49712484  -0.00113794  -0.00296893  1
  V  V39  1  0.86110850  0.75460426  0.13669802  1
  V  V40  1  0.75124432  0.61232183  0.86614819  1
  V  V41  1  0.82395207  -0.05390619  0.42259877  1
  V  V42  1  0.17490661  0.29808357  0.31453677  1
  V  V43  1  0.50599148  0.25221024  0.75017409  1
  V  V44  1  0.87829039  0.87797112  -0.01105129  1
  V  V45  1  0.37824176  0.12003510  0.25365248  1
  V  V46  1  0.25465838  0.11943934  0.37023827  1
  V  V47  1  0.10818388  0.75768523  0.86385581  1
  V  V48  1  0.12915434  0.63170985  0.50498243  1
  V  V49  1  -0.00498509  0.13390486  0.62942157  1
  V  V50  1  0.24857084  0.25511747  0.49821999  1
  V  V51  1  0.36711368  0.74588081  0.12958912  1
  V  V52  1  0.74840867  0.12628127  0.37573192  1
  V  V53  1  0.36504223  0.61835048  0.76678595  1
  V  V54  1  0.37265506  0.25448570  0.12439953  1
  V  V55  1  0.13805166  -0.00714380  0.62418332  1
  V  V56  1  -0.00288656  0.62217052  0.12965419  1
  V  V57  1  0.74657216  0.24858802  0.50121251  1
  V  V58  1  0.74677087  0.75783435  -0.01890359  1
  V  V59  1  0.25021493  -0.00252344  0.24498715  1
  V  V60  1  0.37707613  0.37552262  0.00613814  1
  V  V61  1  0.50261981  0.61623520  0.62479543  1
  V  V62  1  0.25152702  -0.01109022  0.76597073  1
  V  V63  1  0.62675015  -0.01133654  0.12159981  1
  V  V64  1  0.01509822  0.35567189  0.86783982  1
  V  V65  1  0.37967280  0.37576574  0.49811290  1
  V  V66  1  0.25056627  0.62581817  0.37902435  1
  V  V67  1  0.88380329  0.36779809  0.49314871  1
  V  V68  1  0.14641627  0.12895600  -0.00358626  1
  V  V69  1  0.50800934  0.87061302  0.87457766  1
  V  V70  1  0.52213339  0.24506784  0.25661134  1
  V  V71  1  0.76230544  0.36779436  0.64310105  1
  V  V72  1  -0.00746964  0.25589993  0.25921358  1
  Zn  Zn73  1  0.63357374  0.10890134  0.50237322  1
  Zn  Zn74  1  0.50859391  0.50910950  0.49306091  1
  Zn  Zn75  1  0.70476531  0.42248940  0.10616424  1
  Zn  Zn76  1  0.62961987  0.86852103  0.24937258  1
  Zn  Zn77  1  -0.00064257  0.12898766  0.12033715  1
  Zn  Zn78  1  0.03739871  0.41634668  0.32114119  1
  Zn  Zn79  1  0.24125273  0.86984237  0.13215525  1
  Zn  Zn80  1  0.24405394  0.36978536  0.64815368  1
  Zn  Zn81  1  0.23718925  0.48655691  0.78767167  1
  Zn  Zn82  1  0.15494974  0.44988512  0.16483503  1
  Zn  Zn83  1  0.18968337  0.17888212  0.67831286  1
  Zn  Zn84  1  0.18439318  0.68220889  0.18567397  1
  Zn  Zn85  1  0.18846436  0.67848636  0.69234399  1
  Zn  Zn86  1  0.69224773  0.17686255  0.18371433  1
  Zn  Zn87  1  0.68425779  0.19392969  0.68478295  1
  Zn  Zn88  1  0.67889210  0.68505299  0.18840211  1
  Zn  Zn89  1  0.68200831  0.68170311  0.69440303  1
  Zn  Zn90  1  0.33713487  0.31754916  0.30069300  1
  Zn  Zn91  1  0.31827637  0.31511083  0.82163119  1
  Zn  Zn92  1  0.27107802  0.83549552  0.35666545  1
  Zn  Zn93  1  0.31295163  0.80618786  0.81110129  1
  Zn  Zn94  1  0.82033994  0.30642915  0.32031810  1
  Zn  Zn95  1  0.80414661  0.31563535  0.83219623  1
  Zn  Zn96  1  0.80956668  0.79927535  0.31774137  1
  Zn  Zn97  1  0.93935361  0.81998951  0.80118168  1
  Zn  Zn98  1  0.18872424  0.44340686  0.44247266  1
  Zn  Zn99  1  0.17425470  0.41890861  0.97279450  1
  Zn  Zn100  1  0.19306207  0.94453751  0.44575434  1
  Zn  Zn101  1  0.18052501  0.93203979  0.94040276  1
  Zn  Zn102  1  0.69761388  0.45049231  0.46056453  1
  Zn  Zn103  1  0.68735496  0.43094034  0.93413085  1
  Zn  Zn104  1  0.64568638  0.89619753  0.46883579  1
  Zn  Zn105  1  0.68282706  0.93524529  0.94109762  1
  Zn  Zn106  1  0.31728954  0.06294753  0.06908446  1
  Zn  Zn107  1  0.31549486  0.06511266  0.55915836  1
  Zn  Zn108  1  0.30647456  0.55595580  -0.05487565  1
  Zn  Zn109  1  0.31484164  0.56454771  0.56797580  1
  Zn  Zn110  1  0.81296781  0.06476673  0.06161867  1
  Zn  Zn111  1  0.82152294  0.05396853  0.56790989  1
  Zn  Zn112  1  0.81819892  0.57433235  0.05097693  1
  Zn  Zn113  1  0.83093316  0.53392656  0.59938803  1
  Zn  Zn114  1  0.50009456  0.41487228  0.16776463  1
  Zn  Zn115  1  0.41389151  0.43010578  0.70190689  1
  Zn  Zn116  1  0.43352515  0.93327329  0.18026786  1
  Zn  Zn117  1  0.42932755  0.93505788  0.69171787  1
  Zn  Zn118  1  0.88140381  0.46629227  0.16188371  1
  Zn  Zn119  1  0.94674178  0.44444354  0.69871694  1
  Zn  Zn120  1  0.93621162  0.93034051  0.18039942  1
  Zn  Zn121  1  0.94442791  0.98403407  0.69957006  1
  Zn  Zn122  1  0.06395019  0.07330557  0.30793209  1
  Zn  Zn123  1  0.07191167  0.06623029  0.80874432  1
  Zn  Zn124  1  0.06713141  0.57439377  0.30930475  1
  Zn  Zn125  1  0.06368025  0.56437280  0.81751713  1
  Zn  Zn126  1  0.57081514  0.05705674  0.30994162  1
  Zn  Zn127  1  0.55012779  0.05881261  0.81215869  1
  Zn  Zn128  1  0.55867741  0.56796428  0.31801166  1
  Zn  Zn129  1  0.56244921  0.56404471  0.81197606  1
  Zn  Zn130  1  0.44217020  0.18674079  0.43706122  1
  Zn  Zn131  1  0.43530826  0.18784522  0.93987979  1
  Zn  Zn132  1  0.42850248  0.68535777  0.43556250  1
  Zn  Zn133  1  0.43621473  0.69169564  0.93994680  1
  Zn  Zn134  1  0.92923615  0.18350835  0.44012670  1
  Zn  Zn135  1  0.95669802  0.21527682  0.95021857  1
  Zn  Zn136  1  0.94935151  0.69267545  0.44173758  1
  Zn  Zn137  1  0.93267819  0.68639365  0.93954315  1
  Zn  Zn138  1  0.05412098  0.31330389  0.06150522  1
  Zn  Zn139  1  0.06094154  0.31476996  0.57320624  1
  Zn  Zn140  1  0.05615096  0.81636718  0.06326843  1
  Zn  Zn141  1  0.07108494  0.82163833  0.55217616  1
  Zn  Zn142  1  0.57125330  0.31036897  0.06224173  1
  Zn  Zn143  1  0.56598477  0.30807604  0.56142481  1
  Zn  Zn144  1  0.56061412  0.80839661  0.06030041  1
  Zn  Zn145  1  0.50889735  0.78884162  0.54104666  1
  O  O146  1  0.12038962  0.10899992  0.10262914  1
  O  O147  1  0.12128959  0.11732263  0.60876772  1
  O  O148  1  0.10833699  0.62603179  0.11908911  1
  O  O149  1  0.13655896  0.61226295  0.60960736  1
  O  O150  1  0.61370842  0.11027861  0.12836846  1
  O  O151  1  0.60718110  0.12907693  0.62322700  1
  O  O152  1  0.61212072  0.63022802  0.11032317  1
  O  O153  1  0.60711808  0.62174554  0.63290050  1
  O  O154  1  0.38542750  0.38032064  0.38115335  1
  O  O155  1  0.39617316  0.35891732  0.89694800  1
  O  O156  1  0.38202026  0.87550875  0.36028229  1
  O  O157  1  0.37824284  0.86544353  0.89069922  1
  O  O158  1  0.87921569  0.37635987  0.39448742  1
  O  O159  1  0.87548787  0.38995392  0.87413641  1
  O  O160  1  0.87861605  0.87612286  0.37286029  1
  O  O161  1  0.87943285  0.87109980  0.89046332  1
  O  O162  1  0.24569339  0.01432043  0.36489106  1
  O  O163  1  0.23979083  -0.00161403  0.86415873  1
  O  O164  1  0.26340892  0.50264864  0.37613486  1
  O  O165  1  0.23253082  0.48702337  0.89900871  1
  O  O166  1  0.76269356  0.00494892  0.36090522  1
  O  O167  1  0.73574185  -0.00048531  0.85668829  1
  O  O168  1  0.76188905  0.54062080  0.40213759  1
  O  O169  1  0.75403407  0.50994717  0.87955145  1
  O  O170  1  0.26025581  0.50217035  0.13469136  1
  O  O171  1  0.23736122  0.49159463  0.61449377  1
  O  O172  1  0.23994757  0.99934535  0.13058106  1
  O  O173  1  0.24060462  1.00439657  0.61762498  1
  O  O174  1  0.77864419  0.50195645  0.12577348  1
  O  O175  1  0.73507087  0.47887313  0.62512158  1
  O  O176  1  0.73711275  1.00356611  0.12800207  1
  O  O177  1  0.73401403  1.01483686  0.64739341  1
  O  O178  1  -0.01948389  0.35639788  0.24540323  1
  O  O179  1  -0.00646710  0.36783531  0.76790494  1
  O  O180  1  -0.00183090  0.86806900  0.25729166  1
  O  O181  1  -0.00923438  0.89565224  0.74202663  1
  O  O182  1  0.50346890  0.35759765  0.26701709  1
  O  O183  1  0.48709261  0.35957789  0.76094705  1
  O  O184  1  0.49625275  0.86604506  0.25261038  1
  O  O185  1  0.49047785  0.86572330  0.76506820  1
  O  O186  1  0.49876131  0.12977685  0.24864713  1
  O  O187  1  0.48829264  0.12679992  0.73831072  1
  O  O188  1  0.50288141  0.63091859  0.23719596  1
  O  O189  1  0.49341570  0.63843418  0.75258172  1
  O  O190  1  0.98923247  0.13376411  0.24470720  1
  O  O191  1  0.99583308  0.09187566  0.72655726  1
  O  O192  1  1.00178276  0.64455805  0.24369485  1
  O  O193  1  0.99485127  0.62882769  0.75051677  1
  O  O194  1  0.39468272  0.25850106  0.01733797  1
  O  O195  1  0.36916679  0.25384095  0.50298607  1
  O  O196  1  0.35973661  0.75030347  0.00910442  1
  O  O197  1  0.39256689  0.74884147  0.52209040  1
  O  O198  1  0.85782404  0.24415481  0.01135097  1
  O  O199  1  0.86993642  0.26150277  0.50410340  1
  O  O200  1  0.86111541  0.75911512  0.00404037  1
  O  O201  1  0.91223439  0.76021519  0.54159810  1
  O  O202  1  0.13913041  0.24564116  0.50864386  1
  O  O203  1  0.12131385  0.22788510  0.99755717  1
  O  O204  1  0.11722572  0.73068221  0.50472748  1
  O  O205  1  0.13278771  0.75184569  1.00035185  1
  O  O206  1  0.64290011  0.24398478  0.50410857  1
  O  O207  1  0.62318249  0.23780169  0.99216128  1
  O  O208  1  0.61131362  0.77650116  0.48916213  1
  O  O209  1  0.63912718  0.74354625  1.00385688  1
  O  O210  1  0.50787345  0.23802184  0.14026159  1
  O  O211  1  0.49489744  0.24107412  0.63055210  1
  O  O212  1  0.48835405  0.73814014  0.12498493  1
  O  O213  1  0.49232228  0.73913623  0.64325692  1
  O  O214  1  0.98290449  0.24673918  0.12852796  1
  O  O215  1  1.01420224  0.23257387  0.63421613  1
  O  O216  1  0.99467087  0.75248413  0.14047297  1
  O  O217  1  0.96346692  0.77356862  0.59614315  1
  O  O218  1  -0.01558839  0.24723099  0.35862070  1
  O  O219  1  0.02321939  0.24624543  0.85926337  1
  O  O220  1  -0.00228132  0.76361285  0.36252467  1
  O  O221  1  0.00335402  0.75398737  0.87603713  1
  O  O222  1  0.50525401  0.25657893  0.36739727  1
  O  O223  1  0.50834979  0.25135711  0.87057856  1
  O  O224  1  0.49088086  0.75909802  0.36564662  1
  O  O225  1  0.49530115  0.75879882  0.86741264  1
  O  O226  1  0.24833028  0.13728716  0.48956518  1
  O  O227  1  0.24554751  0.11962102  1.00028966  1
  O  O228  1  0.24413894  0.62085195  0.48857112  1
  O  O229  1  0.23322349  0.63731265  1.00549266  1
  O  O230  1  0.75555321  0.12675399  0.49646986  1
  O  O231  1  0.74380535  0.13913984  1.00577379  1
  O  O232  1  0.79858244  0.59815710  0.44296578  1
  O  O233  1  0.74442347  0.63710020  0.98902855  1
  O  O234  1  0.28067207  0.37201506  0.00667044  1
  O  O235  1  0.26379845  0.36447940  0.49296544  1
  O  O236  1  0.25361693  0.86344295  0.00400062  1
  O  O237  1  0.24831738  0.85423282  0.46471244  1
  O  O238  1  0.72879470  0.35514708  0.00990550  1
  O  O239  1  0.76481319  0.36785122  0.50773723  1
  O  O240  1  0.75768674  0.86584529  -0.00718373  1
  O  O241  1  0.75949283  0.89989884  0.48350637  1
  O  O242  1  0.10824527  0.48356675  0.25842708  1
  O  O243  1  0.13029832  0.51022193  0.73663461  1
  O  O244  1  0.13268068  1.01375892  0.23380022  1
  O  O245  1  0.14401474  1.00929827  0.73360050  1
  O  O246  1  0.65956209  0.53094280  0.26179054  1
  O  O247  1  0.61937244  0.50073396  0.73619031  1
  O  O248  1  0.63511406  0.99439896  0.23910694  1
  O  O249  1  0.63624647  0.99685791  0.75582517  1
  O  O250  1  0.36833673  0.01336602  0.23573747  1
  O  O251  1  0.36376292  0.01248514  0.74694252  1
  O  O252  1  0.37544713  0.49742814  0.25472787  1
  O  O253  1  0.39352484  0.52200682  0.76269577  1
  O  O254  1  0.86664548  0.00708538  0.23268109  1
  O  O255  1  0.84395424  0.01940373  0.76306537  1
  O  O256  1  0.82860242  0.46343166  0.27456141  1
  O  O257  1  0.88488511  0.51687211  0.76854290  1
  O  O258  1  0.12689851  0.36066551  0.38039364  1
  O  O259  1  0.12108500  0.35689336  0.88069754  1
  O  O260  1  0.11977311  0.87829837  0.36212946  1
  O  O261  1  0.12369840  0.85687700  0.87632702  1
  O  O262  1  0.61851364  0.38850574  0.38516009  1
  O  O263  1  0.61230197  0.36039556  0.87614245  1
  O  O264  1  0.60186163  0.86314346  0.36470288  1
  O  O265  1  0.60684132  0.86996936  0.88171911  1
  O  O266  1  0.38871710  0.13506532  0.13273796  1
  O  O267  1  0.38420255  0.13590528  0.62541298  1
  O  O268  1  0.37679367  0.62600482  0.13070330  1
  O  O269  1  0.38406846  0.62725250  0.64041678  1
  O  O270  1  0.87230702  0.13362409  0.13521654  1
  O  O271  1  0.89631288  0.12971607  0.60968940  1
  O  O272  1  0.88872436  0.64858301  0.11498475  1
  O  O273  1  0.86489809  0.62609696  0.64555947  1
  O  O274  1  0.27763780  0.25304714  0.12875768  1
  O  O275  1  0.26154223  0.25264255  0.61525772  1
  O  O276  1  0.25321703  0.75017166  0.12082934  1
  O  O277  1  0.26232266  0.73874483  0.62720274  1
  O  O278  1  0.75504370  0.24763690  0.11977689  1
  O  O279  1  0.74927272  0.26148029  0.61933645  1
  O  O280  1  0.75889143  0.74144766  0.12718689  1
  O  O281  1  0.74350778  0.76889490  0.63526871  1
  O  O282  1  0.24765230  0.24422163  0.37494397  1
  O  O283  1  0.24225111  0.25543754  0.88080724  1
  O  O284  1  0.26131116  0.72173906  0.35841471  1
  O  O285  1  0.24182819  0.74940097  0.88956855  1
  O  O286  1  0.75712324  0.23804886  0.38643770  1
  O  O287  1  0.73091868  0.24940044  0.88934239  1
  O  O288  1  0.72274293  0.75146207  0.37078256  1
  O  O289  1  0.74985729  0.74189359  0.88429100  1
  O  O290  1  -0.01194016  0.11131356  -0.00069745  1
  O  O291  1  0.01058851  0.12249363  0.49708228  1
  O  O292  1  0.00688322  0.64174355  0.01800753  1
  O  O293  1  0.01416425  0.61215525  0.49686867  1
  O  O294  1  0.48995251  0.11118513  0.00995604  1
  O  O295  1  0.50289807  0.11808319  0.50769266  1
  O  O296  1  0.50638418  0.62120554  0.00123068  1
  O  O297  1  0.49093856  0.62412480  0.52130272  1
  O  O298  1  0.49465609  0.36463298  0.48577909  1
  O  O299  1  0.50517887  0.38534840  0.99494589  1
  O  O300  1  0.48882574  0.88599620  0.48008759  1
  O  O301  1  0.49046045  0.87465212  0.99163618  1
  O  O302  1  0.99109761  0.37877819  0.50746198  1
  O  O303  1  0.98401349  0.33743065  0.97030462  1
  O  O304  1  1.01058990  0.88765694  0.47780988  1
  O  O305  1  0.98821680  0.88965547  1.00216587  1
  O  O306  1  0.49477524  0.48644124  0.37294729  1
  O  O307  1  0.50820147  0.49018504  0.88302391  1
  O  O308  1  0.49687438  0.99089224  0.37379095  1
  O  O309  1  0.49802939  0.98482886  0.88423954  1
  O  O310  1  1.00450812  0.49845804  0.39452124  1
  O  O311  1  1.00182003  0.48188297  0.87606138  1
  O  O312  1  1.01043012  0.99202969  0.37390309  1
  O  O313  1  1.00044646  1.00532287  0.88208114  1
  O  O314  1  0.01047032  0.00239684  0.12428905  1
  O  O315  1  0.01559797  0.00854031  0.60090773  1
  O  O316  1  -0.02242286  0.52435657  0.14130171  1
  O  O317  1  0.01793965  0.49470959  0.61646592  1
  O  O318  1  0.50610954  0.00425542  0.11963606  1
  O  O319  1  0.49093675  0.01074869  0.62379801  1
  O  O320  1  0.49482244  0.51427572  0.11224194  1
  O  O321  1  0.50231506  0.50737090  0.63225520  1
  O  O322  1  0.23563713  0.35466290  0.25676505  1
  O  O323  1  0.29612097  0.39599008  0.74517316  1
  O  O324  1  0.25348105  0.89380916  0.25458648  1
  O  O325  1  0.25986126  0.89033493  0.75311532  1
  O  O326  1  0.77362455  0.40970732  0.27628156  1
  O  O327  1  0.75452780  0.36086728  0.74158019  1
  O  O328  1  0.75188432  0.88556662  0.25330426  1
  O  O329  1  0.75213508  0.90326335  0.74051746  1
  O  O330  1  0.26308920  0.11861422  0.25761360  1
  O  O331  1  0.26504897  0.11976289  0.74433964  1
  O  O332  1  0.25209409  0.61120079  0.25242359  1
  O  O333  1  0.26320994  0.60897963  0.75274763  1
  O  O334  1  0.75522563  0.11217846  0.25578659  1
  O  O335  1  0.73231414  0.11106180  0.75063493  1
  O  O336  1  0.71226067  0.58673153  0.25390632  1
  O  O337  1  0.74883683  0.62654572  0.76568186  1
  O  O338  1  0.36840723  0.13394809  0.36431883  1
  O  O339  1  0.37896742  0.12878441  0.86063720  1
  O  O340  1  0.36722285  0.60803394  0.38011706  1
  O  O341  1  0.36807565  0.62847876  0.87406171  1
  O  O342  1  0.86546968  0.12617776  0.35874238  1
  O  O343  1  0.88142505  0.16750914  0.85335381  1
  O  O344  1  0.85176919  0.63963964  0.39662218  1
  O  O345  1  0.86491746  0.62180965  0.86801227  1
  O  O346  1  0.13367098  0.38727365  0.07729299  1
  O  O347  1  0.13052737  0.38539697  0.62889934  1
  O  O348  1  0.12569064  0.89543377  0.11522759  1
  O  O349  1  0.12554580  0.89372159  0.61750486  1
  O  O350  1  0.60734220  0.38253550  0.13981234  1
  O  O351  1  0.62699679  0.37547123  0.63351621  1
  O  O352  1  0.61536109  0.88363687  0.12874771  1
  O  O353  1  0.69574755  0.82271115  0.61695124  1
  O  O354  1  0.10470427  0.25085843  0.25486283  1
  O  O355  1  0.14358069  0.24310807  0.75886531  1
  O  O356  1  0.11701162  0.75470134  0.24679386  1
  O  O357  1  0.12863844  0.73870795  0.76703967  1
  O  O358  1  0.62043031  0.23841097  0.25367932  1
  O  O359  1  0.61160113  0.24166957  0.76172002  1
  O  O360  1  0.60783936  0.74917610  0.25551141  1
  O  O361  1  0.60793938  0.75129873  0.75082589  1
  O  O362  1  0.39309123  0.23970790  0.24042002  1
  O  O363  1  0.38261046  0.23784637  0.74174562  1
  O  O364  1  0.38384898  0.75058468  0.23491436  1
  O  O365  1  0.37630479  0.73546589  0.74563830  1
  O  O366  1  0.87382134  0.24052045  0.23955375  1
  O  O367  1  0.86995707  0.21485400  0.79607385  1
  O  O368  1  0.87654017  0.75240008  0.23880155  1
  O  O369  1  0.87729607  0.73658971  0.75815241  1
  O  O370  1  0.38274257  0.48744887  0.49330966  1
  O  O371  1  0.39116963  0.48733812  0.99781732  1
  O  O372  1  0.39035376  1.01021822  0.49716548  1
  O  O373  1  0.38525393  0.98593370  1.01252789  1
  O  O374  1  0.89256606  0.48952337  0.51322912  1
  O  O375  1  0.88443268  0.51709134  0.97692688  1
  O  O376  1  0.88820519  1.00601826  0.48073675  1
  O  O377  1  0.88096100  0.98937322  1.00348420  1
  O  O378  1  0.10991872  0.00741661  -0.00134570  1
  O  O379  1  0.12389922  0.01322205  0.50196794  1
  O  O380  1  0.11094200  0.52123313  -0.00180475  1
  O  O381  1  0.11663034  0.50210147  0.50881830  1
  O  O382  1  0.60903551  -0.00831631  0.00822768  1
  O  O383  1  0.59788213  -0.00418999  0.50296786  1
  O  O384  1  0.61853017  0.51163960  -0.00120144  1
  O  O385  1  0.61659935  0.49600947  0.52581559  1
  O  O386  1  0.39997560  0.36335101  0.11930492  1
  O  O387  1  0.38538677  0.36140384  0.61070470  1
  O  O388  1  0.37088906  0.86093327  0.11406501  1
  O  O389  1  0.37667760  0.85463013  0.63502252  1
  O  O390  1  0.87093771  0.35777478  0.12798299  1
  O  O391  1  0.86414046  0.38509555  0.62757004  1
  O  O392  1  0.87611666  0.85868677  0.11261611  1
  O  O393  1  0.86025546  0.95494000  0.62937215  1
  O  O394  1  0.13604231  0.12768184  0.38415593  1
  O  O395  1  0.12983561  0.13197683  0.88319715  1
  O  O396  1  0.14176384  0.61560566  0.38686931  1
  O  O397  1  0.11105496  0.64031825  0.89496184  1
  O  O398  1  0.64421058  0.11331920  0.37893419  1
  O  O399  1  0.61088331  0.13242127  0.87679861  1
  O  O400  1  0.59944393  0.64674463  0.38932646  1
  O  O401  1  0.63749600  0.62223435  0.88413684  1
