# generated using pymatgen
data_V73Zn73O256
_symmetry_space_group_name_H-M   'P 1'
_cell_length_a   16.86472593
_cell_length_b   16.85300788
_cell_length_c   16.89589059
_cell_angle_alpha   90.08433979
_cell_angle_beta   90.14490697
_cell_angle_gamma   90.56002653
_symmetry_Int_Tables_number   1
_chemical_formula_structural   V73Zn73O256
_chemical_formula_sum   'V73 Zn73 O256'
_cell_volume   4801.92285769
_cell_formula_units_Z   1
loop_
 _symmetry_equiv_pos_site_id
 _symmetry_equiv_pos_as_xyz
  1  'x, y, z'
loop_
 _atom_site_type_symbol
 _atom_site_label
 _atom_site_symmetry_multiplicity
 _atom_site_fract_x
 _atom_site_fract_y
 _atom_site_fract_z
 _atom_site_occupancy
  V  V0  1  0.12901430  0.87636184  0.75174853  1
  V  V1  1  0.26385199  0.63491123  0.37824348  1
  V  V2  1  0.88093897  0.62761555  0.75346591  1
  V  V3  1  0.38102387  0.38957473  0.47848894  1
  V  V4  1  0.50035671  0.88439774  0.38772976  1
  V  V5  1  0.62744452  0.75928535  0.37277527  1
  V  V6  1  0.13331528  0.39380754  0.72806162  1
  V  V7  1  0.25306017  0.12674741  0.37198810  1
  V  V8  1  0.48824061  0.74795203  0.75257941  1
  V  V9  1  -0.01634487  -0.00411533  0.00054605  1
  V  V10  1  0.75487179  0.12899996  0.88162715  1
  V  V11  1  0.01246673  0.62318090  0.12131585  1
  V  V12  1  0.50234505  0.75636405  0.25342167  1
  V  V13  1  0.48433041  0.62716243  0.61852044  1
  V  V14  1  0.73691236  0.37230131  0.63092850  1
  V  V15  1  0.37486996  0.37905021  -0.01446076  1
  V  V16  1  0.88339982  0.25485295  0.61997483  1
  V  V17  1  0.76092148  -0.00165510  0.75810697  1
  V  V18  1  0.50165870  0.49654864  -0.01967935  1
  V  V19  1  0.74203325  0.12171428  0.38369463  1
  V  V20  1  0.23139027  0.74943897  0.01362935  1
  V  V21  1  0.89083716  -0.00109121  0.37512076  1
  V  V22  1  0.39060234  0.22263102  0.61772768  1
  V  V23  1  0.86181059  0.73292110  0.12302523  1
  V  V24  1  0.76859594  0.62906435  0.36355853  1
  V  V25  1  0.74748377  0.48560837  0.24905748  1
  V  V26  1  0.12400504  0.49915441  0.11745258  1
  V  V27  1  0.88737040  0.75244225  0.62925230  1
  V  V28  1  0.14388196  0.00067509  0.12119151  1
  V  V29  1  0.62988751  0.61706813  0.50083323  1
  V  V30  1  0.36427475  -0.00260613  0.37816044  1
  V  V31  1  0.00394780  0.60644799  0.60834177  1
  V  V32  1  0.24979757  0.37635673  0.13615938  1
  V  V33  1  -0.01298830  0.38498459  0.38353178  1
  V  V34  1  0.74025569  0.62939647  0.87249137  1
  V  V35  1  0.11285946  0.74737603  0.37354567  1
  V  V36  1  0.51570504  0.25437625  0.25563770  1
  V  V37  1  0.25567457  0.38269361  0.60284002  1
  V  V38  1  0.86668669  0.49576669  0.86729762  1
  V  V39  1  0.75765788  0.75410412  0.49648435  1
  V  V40  1  0.37755992  0.75880404  0.13305625  1
  V  V41  1  0.73109573  0.37188407  0.11777470  1
  V  V42  1  0.25225857  0.75552316  0.51400069  1
  V  V43  1  0.13679902  0.05574303  0.65882942  1
  V  V44  1  0.75451681  0.87924333  0.62252781  1
  V  V45  1  0.89532487  0.87989254  0.49460303  1
  V  V46  1  0.75728237  0.87830204  0.12698901  1
  V  V47  1  -0.01583099  0.87368608  0.87830838  1
  V  V48  1  0.62224587  0.00823427  0.61444334  1
  V  V49  1  0.49700762  0.61396776  0.13557916  1
  V  V50  1  0.13062676  0.26335283  0.37441018  1
  V  V51  1  0.88107207  0.13377322  0.74654725  1
  V  V52  1  0.87557139  0.38329589  0.00434509  1
  V  V53  1  0.62185774  -0.00865735  0.14202994  1
  V  V54  1  0.12582150  0.13659755  -0.01363155  1
  V  V55  1  0.25924044  0.51408768  0.25650484  1
  V  V56  1  0.00009526  0.12525547  0.12318659  1
  V  V57  1  0.52338334  0.38880112  0.37457588  1
  V  V58  1  0.49763628  -0.00962846  -0.01500327  1
  V  V59  1  0.37549868  0.86673814  -0.01865330  1
  V  V60  1  0.60706243  0.24711561  0.86336794  1
  V  V61  1  0.01067310  0.36961964  0.87103090  1
  V  V62  1  0.00269734  0.26513789  0.24531476  1
  V  V63  1  0.10844221  0.74028682  0.87338425  1
  V  V64  1  0.86793148  0.25123425  0.11908320  1
  V  V65  1  0.62120506  0.12527935  -0.00016710  1
  V  V66  1  0.10798610  0.11390858  0.48581065  1
  V  V67  1  0.26644414  0.62717387  0.87815889  1
  V  V68  1  0.86911723  0.11864210  0.24963208  1
  V  V69  1  0.37257866  0.24853412  0.13123473  1
  V  V70  1  0.49098470  0.12161316  0.13199945  1
  V  V71  1  0.63015292  0.86359272  0.76233950  1
  V  V72  1  0.62493122  0.63393670  0.00243815  1
  Zn  Zn73  1  0.22374098  0.06121613  0.82137969  1
  Zn  Zn74  1  0.63325298  0.50851905  0.64481415  1
  Zn  Zn75  1  0.37570174  0.87166589  0.52875315  1
  Zn  Zn76  1  0.24480790  0.25719811  -0.01725382  1
  Zn  Zn77  1  0.31336253  0.06045844  0.19950703  1
  Zn  Zn78  1  0.13325030  0.87691432  0.24935154  1
  Zn  Zn79  1  -0.00330821  0.74670714  0.25118282  1
  Zn  Zn80  1  0.60884490  0.38519629  0.76004580  1
  Zn  Zn81  1  0.75353198  0.25087379  0.49328116  1
  Zn  Zn82  1  0.18415396  0.19148609  0.18706521  1
  Zn  Zn83  1  0.23396312  0.23130050  0.72100210  1
  Zn  Zn84  1  0.18869472  0.68627320  0.19348567  1
  Zn  Zn85  1  0.17691325  0.67999691  0.69406639  1
  Zn  Zn86  1  0.68659878  0.18168564  0.18713434  1
  Zn  Zn87  1  0.69339902  0.18865304  0.68820066  1
  Zn  Zn88  1  0.68209019  0.68998830  0.18600721  1
  Zn  Zn89  1  0.69901151  0.68789790  0.68709517  1
  Zn  Zn90  1  0.31805146  0.31392852  0.31102400  1
  Zn  Zn91  1  0.42499910  0.30081653  0.79235805  1
  Zn  Zn92  1  0.30840990  0.81938378  0.30945795  1
  Zn  Zn93  1  0.29792778  0.78379840  0.80484794  1
  Zn  Zn94  1  0.80794407  0.30748814  0.30772788  1
  Zn  Zn95  1  0.80163525  0.30941797  0.81283873  1
  Zn  Zn96  1  0.81353815  0.81892191  0.29990000  1
  Zn  Zn97  1  0.80938725  0.80542477  0.81587758  1
  Zn  Zn98  1  0.19626884  0.43969989  0.43924642  1
  Zn  Zn99  1  0.19388493  0.44586928  0.93607318  1
  Zn  Zn100  1  0.18366962  0.92977436  0.43788963  1
  Zn  Zn101  1  0.17608433  0.92834910  0.94585621  1
  Zn  Zn102  1  0.75317510  0.45026905  0.45311557  1
  Zn  Zn103  1  0.68409156  0.43457657  0.93735535  1
  Zn  Zn104  1  0.69616786  0.94478315  0.43246088  1
  Zn  Zn105  1  0.69291973  0.93765316  0.94517921  1
  Zn  Zn106  1  0.29607743  0.04762916  0.00009228  1
  Zn  Zn107  1  0.32000328  0.02253075  0.59091537  1
  Zn  Zn108  1  0.31684097  0.56545541  0.05953469  1
  Zn  Zn109  1  0.30385718  0.55360633  0.54452768  1
  Zn  Zn110  1  0.80528939  0.05951289  0.06675704  1
  Zn  Zn111  1  0.81744298  0.06406479  0.56111214  1
  Zn  Zn112  1  0.80223048  0.55671613  0.06420537  1
  Zn  Zn113  1  0.82174210  0.55341839  0.57442392  1
  Zn  Zn114  1  0.43741568  0.43185710  0.19566628  1
  Zn  Zn115  1  0.45081235  0.43770878  0.66438082  1
  Zn  Zn116  1  0.44179096  0.93432473  0.19420999  1
  Zn  Zn117  1  0.44908452  0.92866441  0.68945498  1
  Zn  Zn118  1  0.93077414  0.45099092  0.19189233  1
  Zn  Zn119  1  0.93646563  0.42671518  0.69223924  1
  Zn  Zn120  1  0.93993618  0.93279557  0.19193626  1
  Zn  Zn121  1  0.95385887  0.94730960  0.68507430  1
  Zn  Zn122  1  0.06606253  0.06541499  0.30200145  1
  Zn  Zn123  1  0.05092304  0.05518278  0.81553745  1
  Zn  Zn124  1  0.07375620  0.56452561  0.30025113  1
  Zn  Zn125  1  0.05538011  0.55245634  0.82230014  1
  Zn  Zn126  1  0.55442040  0.06595793  0.31621638  1
  Zn  Zn127  1  0.57708251  0.04978268  0.80894247  1
  Zn  Zn128  1  0.57725532  0.56762579  0.30977189  1
  Zn  Zn129  1  0.55550874  0.56819082  0.80467666  1
  Zn  Zn130  1  0.42860633  0.19759133  0.43343350  1
  Zn  Zn131  1  0.43453935  0.18653953  0.94666446  1
  Zn  Zn132  1  0.43750457  0.69196858  0.44450665  1
  Zn  Zn133  1  0.44820778  0.68976686  0.94147287  1
  Zn  Zn134  1  0.93424739  0.19616251  0.43165070  1
  Zn  Zn135  1  0.93780893  0.19190841  0.93841516  1
  Zn  Zn136  1  0.93483666  0.55388023  0.43037597  1
  Zn  Zn137  1  0.93166124  0.68229760  0.95316990  1
  Zn  Zn138  1  0.06143236  0.31968075  0.05723049  1
  Zn  Zn139  1  0.06277202  0.30592560  0.55805733  1
  Zn  Zn140  1  0.04629479  0.82762279  0.09093276  1
  Zn  Zn141  1  0.07206378  0.80175569  0.56111991  1
  Zn  Zn142  1  0.55179210  0.30715505  0.05443912  1
  Zn  Zn143  1  0.55016661  0.31496420  0.56822437  1
  Zn  Zn144  1  0.56537231  0.81349244  0.05882407  1
  Zn  Zn145  1  0.56737502  0.81039047  0.56574353  1
  O  O146  1  0.11185759  0.12596141  0.11775384  1
  O  O147  1  0.12697130  0.13624232  0.59036500  1
  O  O148  1  0.12058654  0.61681031  0.12230749  1
  O  O149  1  0.10074193  0.62078080  0.63642562  1
  O  O150  1  0.61620371  0.11675435  0.11691938  1
  O  O151  1  0.63627860  0.10697307  0.63356769  1
  O  O152  1  0.61046271  0.63190627  0.11221438  1
  O  O153  1  0.64386168  0.62610100  0.60763612  1
  O  O154  1  0.39656418  0.36493210  0.37543133  1
  O  O155  1  0.37587238  0.36310716  0.88824939  1
  O  O156  1  0.38513776  0.88428044  0.37525920  1
  O  O157  1  0.37101130  0.85561826  0.88421477  1
  O  O158  1  0.88740186  0.37129720  0.36803068  1
  O  O159  1  0.86244086  0.38109144  0.88572708  1
  O  O160  1  0.87391671  0.88621439  0.38425409  1
  O  O161  1  0.88459680  0.86636568  0.87864330  1
  O  O162  1  0.25759314  0.00833344  0.36913685  1
  O  O163  1  0.25575772  -0.00245290  0.90393196  1
  O  O164  1  0.24122600  0.51580186  0.36302091  1
  O  O165  1  0.24750483  0.52799519  0.88059730  1
  O  O166  1  0.76893826  0.01334067  0.37579160  1
  O  O167  1  0.74367005  0.01061890  0.86768887  1
  O  O168  1  0.74615154  0.51909434  0.35973051  1
  O  O169  1  0.76000610  0.50849174  0.88553086  1
  O  O170  1  0.25092991  0.49224684  0.12844146  1
  O  O171  1  0.32332163  0.54202135  0.72750199  1
  O  O172  1  0.24564189  1.02099229  0.11147556  1
  O  O173  1  0.20683319  1.00018193  0.61502987  1
  O  O174  1  0.74781563  0.47781340  0.12995891  1
  O  O175  1  0.74842668  0.47886019  0.62462554  1
  O  O176  1  0.72973844  0.99520539  0.12399300  1
  O  O177  1  0.75356192  0.99118770  0.63326316  1
  O  O178  1  -0.00539829  0.36671311  0.24699553  1
  O  O179  1  0.01698480  0.37962022  0.76290174  1
  O  O180  1  0.02360793  0.86089080  0.20707094  1
  O  O181  1  0.00224534  0.88332405  0.77455884  1
  O  O182  1  0.50477998  0.36289525  0.25771083  1
  O  O183  1  0.49461132  0.37561569  0.74404784  1
  O  O184  1  0.49948462  0.86379837  0.26874200  1
  O  O185  1  0.52143838  0.86123180  0.74530416  1
  O  O186  1  0.50073126  0.13496139  0.23837479  1
  O  O187  1  0.46794970  0.09674236  0.76251024  1
  O  O188  1  0.50628275  0.63514938  0.23963357  1
  O  O189  1  0.49767981  0.63637952  0.73184670  1
  O  O190  1  0.99054182  0.13415542  0.23784064  1
  O  O191  1  0.97871344  0.12621138  0.76635766  1
  O  O192  1  0.99877837  0.62024140  0.22953746  1
  O  O193  1  0.98205857  0.61838277  0.75522800  1
  O  O194  1  0.37916652  0.26458822  0.01493670  1
  O  O195  1  0.38422239  0.25862483  0.51656023  1
  O  O196  1  0.38709160  0.76066382  0.01203648  1
  O  O197  1  0.36034227  0.75453207  0.50435582  1
  O  O198  1  0.87289281  0.25609855  0.01360780  1
  O  O199  1  0.87461045  0.24499497  0.51584190  1
  O  O200  1  0.87758661  0.75450919  0.02461801  1
  O  O201  1  0.86870526  0.76841411  0.50722595  1
  O  O202  1  0.11760336  0.24448075  0.47527014  1
  O  O203  1  0.11925780  0.24156824  0.99788695  1
  O  O204  1  0.13791377  0.75120677  0.48358478  1
  O  O205  1  0.13231088  0.75722632  1.02010117  1
  O  O206  1  0.59153248  0.21258771  0.50043041  1
  O  O207  1  0.60785640  0.23028575  0.98787052  1
  O  O208  1  0.64235062  0.75298723  0.49278237  1
  O  O209  1  0.60931429  0.73242826  0.99224854  1
  O  O210  1  0.49344903  0.24137631  0.13147534  1
  O  O211  1  0.49045808  0.23705847  0.63256658  1
  O  O212  1  0.49554218  0.74830843  0.13586050  1
  O  O213  1  0.50806930  0.73712605  0.63183656  1
  O  O214  1  0.99343250  0.24750914  0.13094266  1
  O  O215  1  0.98313938  0.25978800  0.62811861  1
  O  O216  1  0.99353390  0.72832144  0.12093402  1
  O  O217  1  0.98847171  0.73453739  0.61497986  1
  O  O218  1  0.00489302  0.26324060  0.35957429  1
  O  O219  1  -0.01206229  0.27079967  0.87562952  1
  O  O220  1  0.01331026  0.74118822  0.37163808  1
  O  O221  1  0.00326983  0.76154859  0.89934361  1
  O  O222  1  0.50057815  0.24375502  0.35675097  1
  O  O223  1  0.50001261  0.23992037  0.86739559  1
  O  O224  1  0.50734119  0.75684837  0.37218678  1
  O  O225  1  0.50351441  0.73590805  0.85187666  1
  O  O226  1  0.23211631  0.12950917  0.47036652  1
  O  O227  1  0.22949790  0.14013200  1.00568763  1
  O  O228  1  0.24987630  0.63717755  0.48449439  1
  O  O229  1  0.25646224  0.64330594  0.99502982  1
  O  O230  1  0.75344306  0.12634299  0.48859817  1
  O  O231  1  0.73694682  0.11509359  0.98892586  1
  O  O232  1  0.74737609  0.64041474  0.48642237  1
  O  O233  1  0.72991037  0.61760941  0.99686098  1
  O  O234  1  0.26209446  0.37357662  0.00217451  1
  O  O235  1  0.27841568  0.36265929  0.47588430  1
  O  O236  1  0.26569459  0.85549663  0.00276436  1
  O  O237  1  0.25140372  0.86102984  0.49995683  1
  O  O238  1  0.75570266  0.37207145  0.01248186  1
  O  O239  1  0.73318904  0.36115704  0.51686172  1
  O  O240  1  0.72384689  0.87001462  0.02654570  1
  O  O241  1  0.76073042  0.87290633  0.50776839  1
  O  O242  1  0.14854888  0.50375082  0.23131402  1
  O  O243  1  0.13046006  0.48864775  0.76974615  1
  O  O244  1  0.12145806  1.00242342  0.22376305  1
  O  O245  1  0.13228762  0.98643543  0.76687420  1
  O  O246  1  0.65301265  0.52523904  0.23671056  1
  O  O247  1  0.62812334  0.49892062  0.75809758  1
  O  O248  1  0.61717342  1.00549729  0.23987645  1
  O  O249  1  0.64112964  0.98434065  0.74017383  1
  O  O250  1  0.38364038  0.00164645  0.26582733  1
  O  O251  1  0.41393042  0.04328764  0.75882931  1
  O  O252  1  0.35766650  0.49347092  0.24911600  1
  O  O253  1  0.37898153  0.50542880  0.75716397  1
  O  O254  1  0.88124407  0.00689215  0.25974285  1
  O  O255  1  0.86734624  0.01173196  0.74338244  1
  O  O256  1  0.84924915  0.50777320  0.24211783  1
  O  O257  1  0.86730752  0.50287001  0.76410725  1
  O  O258  1  0.12238662  0.36776714  0.37661773  1
  O  O259  1  0.10562516  0.38074568  0.90131280  1
  O  O260  1  0.12988503  0.85724766  0.36733135  1
  O  O261  1  0.11092316  0.86214607  0.87737513  1
  O  O262  1  0.61852525  0.36975959  0.37841374  1
  O  O263  1  0.62766022  0.34984631  0.87802781  1
  O  O264  1  0.61366023  0.87060374  0.38440657  1
  O  O265  1  0.63741717  0.87715897  0.86070289  1
  O  O266  1  0.38104190  0.13150870  0.12158101  1
  O  O267  1  0.36891056  0.12411091  0.61006909  1
  O  O268  1  0.39376894  0.63779884  0.11638640  1
  O  O269  1  0.38574736  0.61581119  0.60497180  1
  O  O270  1  0.87768860  0.13124635  0.12879040  1
  O  O271  1  0.87080817  0.13550350  0.63868917  1
  O  O272  1  0.86295791  0.63049856  0.12806445  1
  O  O273  1  0.87827835  0.63271352  0.63464999  1
  O  O274  1  0.25357137  0.26416220  0.12519001  1
  O  O275  1  0.24028858  0.28146634  0.60809203  1
  O  O276  1  0.26806697  0.73870818  0.11940296  1
  O  O277  1  0.23502555  0.73899798  0.61130451  1
  O  O278  1  0.75873032  0.26129103  0.13596604  1
  O  O279  1  0.75352785  0.25471965  0.61823741  1
  O  O280  1  0.75689614  0.75810510  0.12837105  1
  O  O281  1  0.76493737  0.76055598  0.61678392  1
  O  O282  1  0.23624969  0.24517937  0.35938931  1
  O  O283  1  0.28802001  0.21658683  0.87286183  1
  O  O284  1  0.25156918  0.74227096  0.37631707  1
  O  O285  1  0.22386904  0.74526601  0.89802512  1
  O  O286  1  0.76174866  0.22987274  0.37642909  1
  O  O287  1  0.73413936  0.23153867  0.87446407  1
  O  O288  1  0.74834725  0.75326737  0.37881064  1
  O  O289  1  0.75934540  0.72794450  0.88434840  1
  O  O290  1  0.00286052  0.12225915  0.00524419  1
  O  O291  1  0.00802849  0.12718073  0.48330513  1
  O  O292  1  -0.01681948  0.60720831  0.02395367  1
  O  O293  1  0.00019217  0.61090147  0.50802598  1
  O  O294  1  0.49868218  0.10992840  0.00860745  1
  O  O295  1  0.54300074  0.15510830  0.49128137  1
  O  O296  1  0.50557434  0.61022532  0.00725498  1
  O  O297  1  0.52058271  0.63762785  0.50895461  1
  O  O298  1  0.49685531  0.37232340  0.48405399  1
  O  O299  1  0.48846614  0.38779860  1.00385755  1
  O  O300  1  0.49327305  0.86435963  0.49026884  1
  O  O301  1  0.49382314  0.88250140  0.99688102  1
  O  O302  1  1.00087339  0.37335555  0.48131832  1
  O  O303  1  0.97929391  0.37334646  0.99479798  1
  O  O304  1  0.99288400  0.87076668  0.50279956  1
  O  O305  1  0.99865468  0.89118718  1.00179670  1
  O  O306  1  0.51475942  0.48869795  0.36160878  1
  O  O307  1  0.49210029  0.50603120  0.88264283  1
  O  O308  1  0.49534530  0.98883792  0.37934829  1
  O  O309  1  0.50318967  1.00027854  0.88664939  1
  O  O310  1  1.00598989  0.48915084  0.36362520  1
  O  O311  1  0.97569870  0.48385046  0.87793040  1
  O  O312  1  0.99030447  1.00180193  0.36681415  1
  O  O313  1  0.99815311  0.98731804  0.89258035  1
  O  O314  1  -0.00008654  0.01268496  0.11488779  1
  O  O315  1  0.03920377  0.01728985  0.65092322  1
  O  O316  1  0.01895035  0.49813156  0.13254667  1
  O  O317  1  -0.01958944  0.50943496  0.62878234  1
  O  O318  1  0.50473379  0.00678145  0.12312164  1
  O  O319  1  0.52360962  -0.00763818  0.62858961  1
  O  O320  1  0.49418016  0.51276684  0.13202833  1
  O  O321  1  0.51467235  0.52466774  0.62344719  1
  O  O322  1  0.25060365  0.38062279  0.23863627  1
  O  O323  1  0.24519920  0.41516452  0.69915691  1
  O  O324  1  0.24660029  0.88047150  0.24180048  1
  O  O325  1  0.22759461  0.86058810  0.75999818  1
  O  O326  1  0.74377779  0.37904755  0.24240746  1
  O  O327  1  0.73338538  0.36046513  0.73743934  1
  O  O328  1  0.74076122  0.87337262  0.23035428  1
  O  O329  1  0.75161063  0.87861299  0.74411451  1
  O  O330  1  0.24417831  0.12819317  0.25945720  1
  O  O331  1  0.19339240  0.12210115  0.73161411  1
  O  O332  1  0.26152863  0.61978105  0.25416218  1
  O  O333  1  0.24949813  0.66361373  0.77909184  1
  O  O334  1  0.76480504  0.12920098  0.25529013  1
  O  O335  1  0.75711939  0.11616853  0.76349033  1
  O  O336  1  0.75288930  0.64424180  0.26503277  1
  O  O337  1  0.75921153  0.62506148  0.76522516  1
  O  O338  1  0.36272676  0.11873570  0.37784935  1
  O  O339  1  0.33706431  0.15292760  0.88243877  1
  O  O340  1  0.36500824  0.63067888  0.37653414  1
  O  O341  1  0.36622542  0.63608855  0.87984509  1
  O  O342  1  0.87630339  0.11493640  0.36688894  1
  O  O343  1  0.85928378  0.13360525  0.87218761  1
  O  O344  1  0.86677892  0.63408923  0.37535823  1
  O  O345  1  0.86894777  0.61255380  0.87549982  1
  O  O346  1  0.14086489  0.38237308  0.11737193  1
  O  O347  1  0.11624154  0.37976390  0.62647723  1
  O  O348  1  0.13941314  0.90182271  0.10039084  1
  O  O349  1  0.10553469  0.86027526  0.65470398  1
  O  O350  1  0.63276290  0.36304375  0.11420230  1
  O  O351  1  0.62648892  0.37349697  0.63048611  1
  O  O352  1  0.61089427  0.88965641  0.13187990  1
  O  O353  1  0.64375866  0.87738843  0.63062783  1
  O  O354  1  0.10776604  0.25093702  0.25392299  1
  O  O355  1  0.16493759  0.30816489  0.77359573  1
  O  O356  1  0.12407218  0.75151136  0.25685775  1
  O  O357  1  0.10943375  0.75396087  0.77154536  1
  O  O358  1  0.61479229  0.24724619  0.24557246  1
  O  O359  1  0.61854928  0.23665630  0.76372637  1
  O  O360  1  0.61588599  0.74840543  0.26339819  1
  O  O361  1  0.63643713  0.76148151  0.74811511  1
  O  O362  1  0.38465718  0.25492985  0.23510883  1
  O  O363  1  0.35168678  0.25213206  0.71537834  1
  O  O364  1  0.38438317  0.75226313  0.23938383  1
  O  O365  1  0.39070949  0.76443757  0.74204592  1
  O  O366  1  0.88647637  0.24276202  0.24015216  1
  O  O367  1  0.86597289  0.23847721  0.74474335  1
  O  O368  1  0.88479761  0.76769809  0.22650626  1
  O  O369  1  0.87143136  0.74240995  0.73918398  1
  O  O370  1  0.38018060  0.48993660  0.47943650  1
  O  O371  1  0.38390485  0.48816785  1.00191259  1
  O  O372  1  0.36894974  0.99647224  0.48033858  1
  O  O373  1  0.38821268  0.98008013  1.00282312  1
  O  O374  1  0.85414624  0.49628690  0.48610287  1
  O  O375  1  0.86818509  0.48611466  0.99814967  1
  O  O376  1  0.88130992  0.99001253  0.49188387  1
  O  O377  1  0.88482502  1.00935776  1.00182765  1
  O  O378  1  0.11262609  0.01947159  0.00932852  1
  O  O379  1  0.11810768  0.01399443  0.47620905  1
  O  O380  1  0.13549265  0.50328946  0.01850164  1
  O  O381  1  0.21731780  0.47488695  0.54963405  1
  O  O382  1  0.60945604  0.00605024  0.00623436  1
  O  O383  1  0.63611770  -0.00470776  0.51477168  1
  O  O384  1  0.60713384  0.50291450  -0.00561308  1
  O  O385  1  0.63964322  0.51995928  0.49072852  1
  O  O386  1  0.36310603  0.37077684  0.12102132  1
  O  O387  1  0.36578689  0.39240935  0.60015532  1
  O  O388  1  0.38235192  0.86132974  0.12276622  1
  O  O389  1  0.35838441  0.92121750  0.62963929  1
  O  O390  1  0.87193771  0.37047708  0.11565685  1
  O  O391  1  0.85908190  0.35956988  0.63798743  1
  O  O392  1  0.85767087  0.89090324  0.11957062  1
  O  O393  1  0.87896449  0.87551099  0.61799525  1
  O  O394  1  0.12675187  0.13725707  0.36963198  1
  O  O395  1  0.11976310  0.12093937  0.88644450  1
  O  O396  1  0.14043203  0.63916349  0.36320616  1
  O  O397  1  0.10580680  0.63903774  0.88318853  1
  O  O398  1  0.64308635  0.11469743  0.36965235  1
  O  O399  1  0.62741806  0.12730470  0.88009960  1
  O  O400  1  0.63171042  0.64277878  0.38605074  1
  O  O401  1  0.63457491  0.62083082  0.88241631  1
