# generated using pymatgen
data_V73Zn73O256
_symmetry_space_group_name_H-M   'P 1'
_cell_length_a   16.86096652
_cell_length_b   16.95346568
_cell_length_c   16.88162854
_cell_angle_alpha   89.97373176
_cell_angle_beta   89.65175349
_cell_angle_gamma   89.93129856
_symmetry_Int_Tables_number   1
_chemical_formula_structural   V73Zn73O256
_chemical_formula_sum   'V73 Zn73 O256'
_cell_volume   4825.55110198
_cell_formula_units_Z   1
loop_
 _symmetry_equiv_pos_site_id
 _symmetry_equiv_pos_as_xyz
  1  'x, y, z'
loop_
 _atom_site_type_symbol
 _atom_site_label
 _atom_site_symmetry_multiplicity
 _atom_site_fract_x
 _atom_site_fract_y
 _atom_site_fract_z
 _atom_site_occupancy
  V  V0  1  0.38454097  0.62258831  0.24303588  1
  V  V1  1  0.25665187  0.24167704  0.00702938  1
  V  V2  1  0.49022939  0.00812036  -0.00555040  1
  V  V3  1  0.50822091  0.62956231  0.63529169  1
  V  V4  1  0.50506015  0.01246532  0.49762238  1
  V  V5  1  0.38623625  0.49248385  0.88986036  1
  V  V6  1  0.63752705  0.23349448  0.87173379  1
  V  V7  1  0.12246298  0.87994542  0.25544123  1
  V  V8  1  0.02173028  0.12404854  0.62576430  1
  V  V9  1  0.10189195  0.87098778  0.74118208  1
  V  V10  1  0.29289316  0.63019256  0.41510420  1
  V  V11  1  0.74557990  0.34456273  0.11186485  1
  V  V12  1  0.61996920  0.60704106  -0.00637388  1
  V  V13  1  0.11624828  0.63079009  0.49834912  1
  V  V14  1  0.12812370  0.37729103  0.75046731  1
  V  V15  1  0.62761226  0.63517436  0.48604709  1
  V  V16  1  0.36695629  0.13071418  0.24071404  1
  V  V17  1  0.52174439  0.87888590  0.86994892  1
  V  V18  1  0.37199614  0.00521030  0.36958567  1
  V  V19  1  0.25647618  0.10876210  0.87115114  1
  V  V20  1  0.38303835  0.76166026  0.12823168  1
  V  V21  1  0.85976719  0.12326077  0.74894332  1
  V  V22  1  0.25185748  -0.00954599  0.72851380  1
  V  V23  1  -0.00469109  0.50054611  0.49496252  1
  V  V24  1  0.88798014  0.35097622  0.00316847  1
  V  V25  1  0.87781569  0.25077647  0.62729900  1
  V  V26  1  0.61712202  0.90711616  0.23824752  1
  V  V27  1  -0.01190349  0.74077404  0.25027635  1
  V  V28  1  0.36823261  0.63875033  0.75711911  1
  V  V29  1  0.88765934  0.49025866  0.88966490  1
  V  V30  1  -0.01473290  0.87244937  0.38693126  1
  V  V31  1  0.73996858  0.88287767  0.12155953  1
  V  V32  1  0.13169617  0.74041450  0.37456283  1
  V  V33  1  0.62351532  0.50479868  0.62624176  1
  V  V34  1  0.36594002  0.26032949  0.61163503  1
  V  V35  1  0.00432665  0.25339761  0.75638309  1
  V  V36  1  0.13292079  0.23556589  0.37364687  1
  V  V37  1  0.11474860  0.10670508  0.00821555  1
  V  V38  1  0.37725945  0.86404466  0.50511190  1
  V  V39  1  -0.01640741  0.22951133  0.24923319  1
  V  V40  1  -0.01314059  0.62419797  0.64079805  1
  V  V41  1  0.75987901  0.50162520  0.75892293  1
  V  V42  1  0.65011094  0.11721687  0.00109834  1
  V  V43  1  0.74478582  0.86980031  0.59602998  1
  V  V44  1  0.75241653  0.37636389  0.62969364  1
  V  V45  1  0.12604533  0.25256480  0.88037625  1
  V  V46  1  0.49584284  0.24152224  0.74944465  1
  V  V47  1  0.13185650  0.50073373  0.62514155  1
  V  V48  1  0.87396000  0.37224017  0.50210436  1
  V  V49  1  0.73682691  0.75485199  -0.00953119  1
  V  V50  1  0.00436144  0.37573459  0.36561292  1
  V  V51  1  0.61729311  0.37726894  0.76544206  1
  V  V52  1  0.72991695  0.49259958  0.22293153  1
  V  V53  1  0.52863008  0.75371234  0.75869383  1
  V  V54  1  0.87156532  0.75242706  0.61669098  1
  V  V55  1  0.24314937  0.51462107  0.25369029  1
  V  V56  1  0.11783965  0.60468366  0.01239266  1
  V  V57  1  0.36216226  0.87135642  -0.01794409  1
  V  V58  1  0.74651547  -0.01881327  0.75079708  1
  V  V59  1  0.11295528  0.75602284  0.88268719  1
  V  V60  1  0.24346118  0.87544270  0.12564449  1
  V  V61  1  0.25342670  0.49939618  0.75496881  1
  V  V62  1  0.88776005  0.87913112  -0.00876331  1
  V  V63  1  0.62154919  0.00307364  0.62154328  1
  V  V64  1  0.87561869  0.74635447  0.12329183  1
  V  V65  1  0.50689843  0.86441484  0.36781637  1
  V  V66  1  0.75784430  0.62240833  0.88052185  1
  V  V67  1  0.51289686  0.25276574  0.25654199  1
  V  V68  1  0.89062657  -0.00486137  0.86932889  1
  V  V69  1  0.50976724  0.62281662  0.11940416  1
  V  V70  1  0.00667606  0.00463185  0.49754680  1
  V  V71  1  0.23625885  0.39072143  0.11205256  1
  V  V72  1  0.84872626  0.50050585  0.37136659  1
  Zn  Zn73  1  0.81715709  0.06638326  0.30396237  1
  Zn  Zn74  1  0.50378949  0.11867344  0.12693339  1
  Zn  Zn75  1  0.25037466  0.63295340  0.89680075  1
  Zn  Zn76  1  0.54770698  0.42340648  0.15774520  1
  Zn  Zn77  1  0.20259136  0.18650350  0.52616295  1
  Zn  Zn78  1  0.23890463  0.00781644  0.25214094  1
  Zn  Zn79  1  0.69685668  0.19648534  0.44679139  1
  Zn  Zn80  1  0.23937920  0.85079279  0.61124560  1
  Zn  Zn81  1  0.38732350  0.11208032  0.74783692  1
  Zn  Zn82  1  0.17026563  0.18198430  0.19209176  1
  Zn  Zn83  1  0.20009024  0.19276435  0.69592051  1
  Zn  Zn84  1  0.19048889  0.69313215  0.17768271  1
  Zn  Zn85  1  0.17933368  0.69062987  0.68987359  1
  Zn  Zn86  1  0.68753820  0.17284256  0.19249074  1
  Zn  Zn87  1  0.67217714  0.20207214  0.65460183  1
  Zn  Zn88  1  0.73411634  0.63909785  0.14321250  1
  Zn  Zn89  1  0.71340014  0.69589728  0.69623288  1
  Zn  Zn90  1  0.29846150  0.31489787  0.27921464  1
  Zn  Zn91  1  0.31244114  0.31624113  0.82066814  1
  Zn  Zn92  1  0.31287449  0.81225401  0.31642219  1
  Zn  Zn93  1  0.29281778  0.80914509  0.80852814  1
  Zn  Zn94  1  0.79377329  0.30534876  0.30123700  1
  Zn  Zn95  1  0.81645860  0.31409510  0.81535188  1
  Zn  Zn96  1  0.81767120  0.86043283  0.29766537  1
  Zn  Zn97  1  0.82719716  0.80555863  0.80390659  1
  Zn  Zn98  1  0.18401160  0.45633363  0.41308752  1
  Zn  Zn99  1  0.18753745  0.43819028  0.93441648  1
  Zn  Zn100  1  0.21521934  0.99360777  0.47899733  1
  Zn  Zn101  1  0.17986180  0.93059881  0.92927890  1
  Zn  Zn102  1  0.68667232  0.38610078  0.42416861  1
  Zn  Zn103  1  0.69551253  0.43112518  0.94536589  1
  Zn  Zn104  1  0.68239158  0.94804989  0.42697634  1
  Zn  Zn105  1  0.69396651  0.94691384  0.93911923  1
  Zn  Zn106  1  0.30764591  0.05470673  0.06179536  1
  Zn  Zn107  1  0.33817992  0.07358642  0.56968473  1
  Zn  Zn108  1  0.30949920  0.57137054  0.06755922  1
  Zn  Zn109  1  0.33201042  0.68342253  0.56977217  1
  Zn  Zn110  1  0.80717571  0.08378789  0.10673841  1
  Zn  Zn111  1  0.82504507  0.05605978  0.56245184  1
  Zn  Zn112  1  0.93498936  0.55826277  0.06606349  1
  Zn  Zn113  1  0.80476978  0.56456348  0.55617461  1
  Zn  Zn114  1  0.40750070  0.30649156  0.10316850  1
  Zn  Zn115  1  0.43351016  0.43831812  0.69311928  1
  Zn  Zn116  1  0.43694329  0.94325999  0.18058835  1
  Zn  Zn117  1  0.43895377  0.93216634  0.69006836  1
  Zn  Zn118  1  0.91478634  0.42409001  0.19151200  1
  Zn  Zn119  1  0.94339888  0.43935261  0.69198181  1
  Zn  Zn120  1  0.92951464  0.93268080  0.19184429  1
  Zn  Zn121  1  0.93128100  0.94481057  0.66357626  1
  Zn  Zn122  1  0.05743067  0.06327631  0.32103454  1
  Zn  Zn123  1  0.07409731  0.06156743  0.80807224  1
  Zn  Zn124  1  0.05668324  0.56008741  0.19622629  1
  Zn  Zn125  1  0.06500694  0.56890445  0.82159619  1
  Zn  Zn126  1  0.55874299  0.07501176  0.31722443  1
  Zn  Zn127  1  0.56840866  0.05824443  0.81084558  1
  Zn  Zn128  1  0.59896255  0.58387422  0.28592362  1
  Zn  Zn129  1  0.56422178  0.56294714  0.81734960  1
  Zn  Zn130  1  0.43157962  0.19205408  0.43119759  1
  Zn  Zn131  1  0.43749012  0.19831648  0.92506263  1
  Zn  Zn132  1  0.46692742  0.67243317  0.42805854  1
  Zn  Zn133  1  0.43810127  0.69344337  0.93489805  1
  Zn  Zn134  1  0.94017812  0.18909176  0.43896470  1
  Zn  Zn135  1  0.93641345  0.17510445  0.93284925  1
  Zn  Zn136  1  0.92636950  0.68214909  0.43277673  1
  Zn  Zn137  1  0.94189100  0.68795018  0.93656089  1
  Zn  Zn138  1  0.06392342  0.30229104  0.07539267  1
  Zn  Zn139  1  0.06655036  0.31558752  0.56156088  1
  Zn  Zn140  1  0.06154855  0.81317826  0.06747973  1
  Zn  Zn141  1  0.05799654  0.80781854  0.56639311  1
  Zn  Zn142  1  0.56675757  0.29337842  0.05651590  1
  Zn  Zn143  1  0.56547994  0.30438227  0.56499974  1
  Zn  Zn144  1  0.55622639  0.82008499  0.05558076  1
  Zn  Zn145  1  0.56243426  0.81321377  0.56195075  1
  O  O146  1  0.12691794  0.11725033  0.10868797  1
  O  O147  1  0.12061717  0.14840470  0.61904705  1
  O  O148  1  0.11704276  0.62793048  0.11933410  1
  O  O149  1  0.10689344  0.62165996  0.61857498  1
  O  O150  1  0.62157175  0.12607337  0.10010006  1
  O  O151  1  0.63022779  0.10048401  0.62883364  1
  O  O152  1  0.61749513  0.63587291  0.10723494  1
  O  O153  1  0.62422581  0.61634135  0.64456407  1
  O  O154  1  0.34802076  0.41631206  0.46466610  1
  O  O155  1  0.36979459  0.39303300  0.87991102  1
  O  O156  1  0.39134561  0.88166740  0.37447554  1
  O  O157  1  0.36433896  0.86803960  0.88191607  1
  O  O158  1  0.87983148  0.38066663  0.39056557  1
  O  O159  1  0.87325974  0.38174275  0.88816913  1
  O  O160  1  0.88691421  0.86224850  0.38946442  1
  O  O161  1  0.87662241  0.87772062  0.87963892  1
  O  O162  1  0.27046120  -0.01310917  0.37134837  1
  O  O163  1  0.25276070  0.00794405  0.87247194  1
  O  O164  1  0.25329449  0.54554868  0.37267680  1
  O  O165  1  0.25218008  0.50909569  0.86537120  1
  O  O166  1  0.71184417  0.04006281  0.36303945  1
  O  O167  1  0.75836449  -0.00871627  0.85379103  1
  O  O168  1  0.74857713  0.47897440  0.38585011  1
  O  O169  1  0.76076862  0.50313127  0.87635021  1
  O  O170  1  0.25149566  0.49331946  0.14044328  1
  O  O171  1  0.23304608  0.51046629  0.63795225  1
  O  O172  1  0.25577930  0.98058479  0.13540029  1
  O  O173  1  0.24946348  1.00412644  0.62979286  1
  O  O174  1  0.74892380  0.50834441  0.12687274  1
  O  O175  1  0.74206176  0.49843656  0.63963576  1
  O  O176  1  0.75056081  0.97931062  0.11220933  1
  O  O177  1  0.74620350  0.98794261  0.62542123  1
  O  O178  1  -0.00927221  0.37193024  0.26608496  1
  O  O179  1  0.01109331  0.36292179  0.74904491  1
  O  O180  1  0.00629799  0.86987662  0.26018957  1
  O  O181  1  0.00292331  0.88344621  0.73499635  1
  O  O182  1  0.49799655  0.35141613  0.23771770  1
  O  O183  1  0.51555527  0.37308399  0.75428701  1
  O  O184  1  0.51061126  0.88294166  0.25153900  1
  O  O185  1  0.50304616  0.86420722  0.75940919  1
  O  O186  1  0.48650656  0.12683484  0.24656824  1
  O  O187  1  0.50455483  0.13618530  0.75290468  1
  O  O188  1  0.49948828  0.63267998  0.23057180  1
  O  O189  1  0.49868001  0.64305179  0.75841760  1
  O  O190  1  0.97915781  0.12888377  0.27296157  1
  O  O191  1  1.00700951  0.13736692  0.73974201  1
  O  O192  1  0.98832433  0.64325421  0.25227346  1
  O  O193  1  0.99839051  0.61772500  0.73860632  1
  O  O194  1  0.36103869  0.24777605  0.00096964  1
  O  O195  1  0.38596975  0.25560313  0.51247012  1
  O  O196  1  0.37701383  0.76649702  0.00531852  1
  O  O197  1  0.38408190  0.76132039  0.48926744  1
  O  O198  1  0.87500189  0.25234598  -0.01364309  1
  O  O199  1  0.88501873  0.26243075  0.51576730  1
  O  O200  1  0.87357201  0.76255586  0.00526153  1
  O  O201  1  0.86575058  0.73150265  0.51681386  1
  O  O202  1  0.12697088  0.25919759  0.48276181  1
  O  O203  1  0.13292402  0.24120559  0.99287829  1
  O  O204  1  0.11092058  0.74477331  0.48369507  1
  O  O205  1  0.11752676  0.76065885  0.98594729  1
  O  O206  1  0.64923747  0.23254005  0.54361364  1
  O  O207  1  0.62477900  0.22882288  0.98093515  1
  O  O208  1  0.61767887  0.73442124  0.49844547  1
  O  O209  1  0.63673356  0.76086292  0.99369187  1
  O  O210  1  0.49491101  0.23413789  0.13321667  1
  O  O211  1  0.49650211  0.25927710  0.64384910  1
  O  O212  1  0.48801554  0.75152585  0.11691845  1
  O  O213  1  0.51426163  0.74198106  0.64719205  1
  O  O214  1  1.00156901  0.24073506  0.14984221  1
  O  O215  1  0.99503018  0.24769078  0.63397194  1
  O  O216  1  0.98552646  0.75691071  0.13629356  1
  O  O217  1  0.98254748  0.73589410  0.62427930  1
  O  O218  1  0.00536433  0.26235328  0.37562235  1
  O  O219  1  0.01407664  0.23824914  0.86424113  1
  O  O220  1  -0.00547073  0.75571912  0.36473385  1
  O  O221  1  0.01170941  0.74146796  0.86536469  1
  O  O222  1  0.49963380  0.24348441  0.35898238  1
  O  O223  1  0.51931165  0.24894874  0.86053301  1
  O  O224  1  0.50755199  0.76689389  0.36746583  1
  O  O225  1  0.50234945  0.76511985  0.86663954  1
  O  O226  1  0.25970574  0.09832711  0.49436123  1
  O  O227  1  0.24642351  0.12690413  0.98819833  1
  O  O228  1  0.22307719  0.63554696  0.49933707  1
  O  O229  1  0.22648190  0.62619199  1.01088348  1
  O  O230  1  0.79267183  0.12325565  0.47310843  1
  O  O231  1  0.74927111  0.10847900  1.00709803  1
  O  O232  1  0.72722917  0.61900803  0.49385725  1
  O  O233  1  0.73286268  0.64039751  0.99900244  1
  O  O234  1  0.24425756  0.36269687  0.00958645  1
  O  O235  1  0.27752272  0.40342878  0.48329593  1
  O  O236  1  0.25864153  0.88303955  0.00549813  1
  O  O237  1  0.27316215  0.88722246  0.50405436  1
  O  O238  1  0.76456749  0.36808284  0.00659584  1
  O  O239  1  0.75945495  0.38130875  0.52345879  1
  O  O240  1  0.75317328  0.86683971  0.00179910  1
  O  O241  1  0.75042621  0.88855391  0.49732834  1
  O  O242  1  0.14399854  0.52564640  0.26019910  1
  O  O243  1  0.12901968  0.49601169  0.74791073  1
  O  O244  1  0.12118321  0.98369384  0.26417022  1
  O  O245  1  0.14075207  0.98056996  0.75630790  1
  O  O246  1  0.62316511  0.47938306  0.23481487  1
  O  O247  1  0.63557680  0.48766800  0.75882001  1
  O  O248  1  0.61723493  1.00442906  0.23347406  1
  O  O249  1  0.63831154  0.99481780  0.73838412  1
  O  O250  1  0.37864413  0.00435472  0.26040398  1
  O  O251  1  0.36108699  -0.00080300  0.74150665  1
  O  O252  1  0.37643144  0.52523934  0.25161022  1
  O  O253  1  0.36795901  0.50829517  0.76085772  1
  O  O254  1  0.85674050  -0.03419398  0.27000774  1
  O  O255  1  0.86605207  0.00211608  0.74873678  1
  O  O256  1  0.84618252  0.49074467  0.26608812  1
  O  O257  1  0.86499207  0.48833972  0.76368485  1
  O  O258  1  0.10645696  0.38121510  0.37710066  1
  O  O259  1  0.12928837  0.36354768  0.86674259  1
  O  O260  1  0.11508823  0.85400081  0.36292416  1
  O  O261  1  0.12118960  0.86429015  0.85926487  1
  O  O262  1  0.57753285  0.36625496  0.46809869  1
  O  O263  1  0.63328685  0.36417856  0.86740355  1
  O  O264  1  0.61681127  0.88715360  0.35087717  1
  O  O265  1  0.61977044  0.87834145  0.87670031  1
  O  O266  1  0.37541775  0.11261040  0.13783136  1
  O  O267  1  0.37792398  0.15150525  0.63930639  1
  O  O268  1  0.38723682  0.64168409  0.12463628  1
  O  O269  1  0.39893512  0.62351596  0.64865633  1
  O  O270  1  0.92963404  0.08243060  0.11514696  1
  O  O271  1  0.88874165  0.13483802  0.63409797  1
  O  O272  1  0.86346993  0.64576556  0.11781944  1
  O  O273  1  0.88406783  0.61772825  0.62378579  1
  O  O274  1  0.23959684  0.23165281  0.10469897  1
  O  O275  1  0.25811099  0.25028622  0.61488687  1
  O  O276  1  0.26294501  0.76652656  0.12377376  1
  O  O277  1  0.25623668  0.74116534  0.62588859  1
  O  O278  1  0.74645535  0.24660923  0.11657901  1
  O  O279  1  0.77154764  0.26323121  0.64468918  1
  O  O280  1  0.75776447  0.75695412  0.10763714  1
  O  O281  1  0.74328353  0.76551287  0.60672034  1
  O  O282  1  0.23002332  0.26054760  0.35590648  1
  O  O283  1  0.24285806  0.24269297  0.88349179  1
  O  O284  1  0.24001502  0.73333986  0.37289635  1
  O  O285  1  0.22430499  0.74083336  0.86472623  1
  O  O286  1  0.72121792  0.28706134  0.38239440  1
  O  O287  1  0.73649767  0.24603225  0.86002863  1
  O  O288  1  0.75378624  0.77315369  0.37694556  1
  O  O289  1  0.76405826  0.74068957  0.88709560  1
  O  O290  1  0.01658843  0.12273335  -0.00895490  1
  O  O291  1  -0.00113855  0.11465510  0.51272854  1
  O  O292  1  0.00898075  0.62484963  0.00581126  1
  O  O293  1  0.00063442  0.61552819  0.50324713  1
  O  O294  1  0.48606774  0.10987069  -0.01335585  1
  O  O295  1  0.49498573  0.11026878  0.49596072  1
  O  O296  1  0.51489930  0.63682781  0.00190553  1
  O  O297  1  0.51190542  0.63042281  0.53274137  1
  O  O298  1  0.51124865  0.41649540  0.43368065  1
  O  O299  1  0.48820899  0.37563855  1.06341157  1
  O  O300  1  0.50080341  0.87832035  0.48194111  1
  O  O301  1  0.49054480  0.88252609  0.98092728  1
  O  O302  1  0.99162079  0.38460046  0.50052454  1
  O  O303  1  0.98902077  0.35997119  1.01033848  1
  O  O304  1  1.00600961  0.87531245  0.48808905  1
  O  O305  1  0.98507592  0.87953779  1.00820744  1
  O  O306  1  0.52842804  0.44286994  0.36664138  1
  O  O307  1  0.48623415  0.50517942  0.87588678  1
  O  O308  1  0.49753674  0.99580865  0.38421794  1
  O  O309  1  0.50046147  0.98565031  0.87392216  1
  O  O310  1  0.98359202  0.48709463  0.38632466  1
  O  O311  1  0.98463788  0.50072410  0.86750234  1
  O  O312  1  0.99487287  0.98848174  0.39087646  1
  O  O313  1  0.98927919  0.99676853  0.85966738  1
  O  O314  1  -0.02823224  0.01878917  0.11932806  1
  O  O315  1  0.02162223  0.02485148  0.63823575  1
  O  O316  1  -0.01542385  0.49705457  0.14381808  1
  O  O317  1  0.00477242  0.50867035  0.61818889  1
  O  O318  1  0.49944761  -0.00094157  0.09906472  1
  O  O319  1  0.51234567  -0.00970685  0.61427451  1
  O  O320  1  0.49887695  0.52611193  0.11775934  1
  O  O321  1  0.51557249  0.51446799  0.65090678  1
  O  O322  1  0.25742397  0.42099508  0.29468312  1
  O  O323  1  0.24013413  0.38657141  0.75497765  1
  O  O324  1  0.23369997  0.87041530  0.24946962  1
  O  O325  1  0.25355864  0.88373488  0.73233091  1
  O  O326  1  0.75217472  0.37991105  0.22021589  1
  O  O327  1  0.74451762  0.38256175  0.74601348  1
  O  O328  1  0.72455846  0.86806564  0.23114105  1
  O  O329  1  0.75607805  0.88162005  0.73816093  1
  O  O330  1  0.25990350  0.12247505  0.24563487  1
  O  O331  1  0.24295237  0.10856843  0.75993621  1
  O  O332  1  0.27053768  0.62453863  0.23195103  1
  O  O333  1  0.26259456  0.61876771  0.74730120  1
  O  O334  1  0.78250373  0.11924099  0.21049785  1
  O  O335  1  0.76035456  0.11385363  0.73519330  1
  O  O336  1  0.71670028  0.59798544  0.25162975  1
  O  O337  1  0.74286428  0.61049737  0.76973073  1
  O  O338  1  0.37780969  0.10951620  0.36563777  1
  O  O339  1  0.35851695  0.13114043  0.86650788  1
  O  O340  1  0.37978644  0.65652113  0.34569337  1
  O  O341  1  0.37242924  0.62209864  0.86746685  1
  O  O342  1  0.85169614  0.11995267  0.40800265  1
  O  O343  1  0.87785274  0.10559039  0.86058077  1
  O  O344  1  0.86363248  0.59904230  0.38476812  1
  O  O345  1  0.86445357  0.60931992  0.89214149  1
  O  O346  1  0.14479178  0.36148777  0.14080635  1
  O  O347  1  0.11967656  0.38800521  0.63688417  1
  O  O348  1  0.12799024  0.86632701  0.14434226  1
  O  O349  1  0.12478892  0.86798778  0.63523388  1
  O  O350  1  0.64365099  0.36825228  0.10556970  1
  O  O351  1  0.63256060  0.38965005  0.64012360  1
  O  O352  1  0.62746020  0.87497129  0.12805918  1
  O  O353  1  0.63852410  0.88374819  0.61584191  1
  O  O354  1  0.10276377  0.24062206  0.26606146  1
  O  O355  1  0.12528308  0.25913936  0.75756699  1
  O  O356  1  0.11026229  0.74952813  0.25787160  1
  O  O357  1  0.11696413  0.76462404  0.75250787  1
  O  O358  1  0.61268461  0.23340513  0.24740179  1
  O  O359  1  0.61992767  0.25941699  0.75101970  1
  O  O360  1  0.70757548  0.72786963  0.34226559  1
  O  O361  1  0.62690614  0.74926749  0.75963699  1
  O  O362  1  0.37736127  0.23298853  0.25509066  1
  O  O363  1  0.39194747  0.25450702  0.76071705  1
  O  O364  1  0.37472624  0.75541888  0.23114680  1
  O  O365  1  0.37357064  0.73846564  0.75770981  1
  O  O366  1  0.88551654  0.25456817  0.26354890  1
  O  O367  1  0.88672646  0.24207833  0.75066327  1
  O  O368  1  0.87759835  0.76522069  0.23556362  1
  O  O369  1  0.83663093  0.73145556  0.71891433  1
  O  O370  1  0.36482298  0.60452523  0.48167134  1
  O  O371  1  0.36498017  0.51286952  0.98746426  1
  O  O372  1  0.39222641  0.98927553  0.49106434  1
  O  O373  1  0.38247791  0.98518795  0.99572491  1
  O  O374  1  0.87752917  0.48983141  0.49996915  1
  O  O375  1  0.88205714  0.48602172  0.99251252  1
  O  O376  1  0.91348783  0.98308170  0.54706639  1
  O  O377  1  0.87096230  0.98655035  0.97643269  1
  O  O378  1  0.12779984  0.00794150  -0.00720118  1
  O  O379  1  0.10585255  -0.00938700  0.50899769  1
  O  O380  1  0.12243349  0.50462136  0.00421483  1
  O  O381  1  0.11571681  0.50798266  0.50339210  1
  O  O382  1  0.61265782  0.01575314  -0.01523915  1
  O  O383  1  0.61416470  -0.00071774  0.50742411  1
  O  O384  1  0.62565326  0.50884213  -0.00143463  1
  O  O385  1  0.62110327  0.51412391  0.52776379  1
  O  O386  1  0.31558346  0.34774589  0.16274240  1
  O  O387  1  0.37687784  0.35984620  0.63552943  1
  O  O388  1  0.37167123  0.87006978  0.11640513  1
  O  O389  1  0.39394808  0.86957316  0.60464797  1
  O  O390  1  0.86317568  0.36302666  0.11015669  1
  O  O391  1  0.87333806  0.37176200  0.62457019  1
  O  O392  1  0.86079580  0.86954196  0.11091861  1
  O  O393  1  0.86192416  0.85770911  0.62133570  1
  O  O394  1  0.12726919  0.13424771  0.38050607  1
  O  O395  1  0.13874274  0.13108146  0.88013845  1
  O  O396  1  0.11068848  0.63962846  0.38199823  1
  O  O397  1  0.12316279  0.63106207  0.89540176  1
  O  O398  1  0.65647807  0.10522439  0.37375926  1
  O  O399  1  0.63381774  0.12811049  0.87638817  1
  O  O400  1  0.58150682  0.61661946  0.39358796  1
  O  O401  1  0.63706676  0.62133456  0.88810369  1
