# generated using pymatgen
data_V73Zn73O256
_symmetry_space_group_name_H-M   'P 1'
_cell_length_a   16.86547803
_cell_length_b   16.85662616
_cell_length_c   16.84623093
_cell_angle_alpha   90.16258052
_cell_angle_beta   89.96066220
_cell_angle_gamma   89.96358234
_symmetry_Int_Tables_number   1
_chemical_formula_structural   V73Zn73O256
_chemical_formula_sum   'V73 Zn73 O256'
_cell_volume   4789.27882066
_cell_formula_units_Z   1
loop_
 _symmetry_equiv_pos_site_id
 _symmetry_equiv_pos_as_xyz
  1  'x, y, z'
loop_
 _atom_site_type_symbol
 _atom_site_label
 _atom_site_symmetry_multiplicity
 _atom_site_fract_x
 _atom_site_fract_y
 _atom_site_fract_z
 _atom_site_occupancy
  V  V0  1  0.49912174  0.38151709  0.89400993  1
  V  V1  1  0.24891458  0.00130781  0.75172182  1
  V  V2  1  0.62770051  0.38001052  0.24349048  1
  V  V3  1  0.38395017  0.88090207  -0.00558727  1
  V  V4  1  0.38210248  0.75735302  0.12727757  1
  V  V5  1  0.61782418  0.50087438  0.11974976  1
  V  V6  1  0.87773390  0.23847356  0.63357655  1
  V  V7  1  0.39120417  0.75253482  0.63665739  1
  V  V8  1  0.24479821  0.38596307  0.64383486  1
  V  V9  1  0.74973700  0.50801097  0.75913513  1
  V  V10  1  0.61785863  0.76642444  0.86765462  1
  V  V11  1  0.60593508  0.73207897  0.38005455  1
  V  V12  1  0.38129191  0.88301764  0.48951252  1
  V  V13  1  0.49615477  0.23760660  0.24125584  1
  V  V14  1  0.88360555  0.50525623  0.88064777  1
  V  V15  1  0.11018734  0.01292307  0.61923884  1
  V  V16  1  0.10963092  0.87608659  0.74429487  1
  V  V17  1  0.62461702  -0.00041925  0.63403391  1
  V  V18  1  0.50101776  0.12950839  0.62644540  1
  V  V19  1  0.35924871  0.11000782  0.25371883  1
  V  V20  1  0.37129090  0.25689511  0.12269721  1
  V  V21  1  0.24801735  0.49847053  0.23540972  1
  V  V22  1  0.62078592  0.87771658  0.27228947  1
  V  V23  1  0.11734011  0.75293255  0.86583758  1
  V  V24  1  0.12476752  0.10246692  0.00454135  1
  V  V25  1  0.87203824  0.24201020  0.11520171  1
  V  V26  1  -0.01076976  0.88365718  0.37249377  1
  V  V27  1  0.50814847  0.50674045  0.50350788  1
  V  V28  1  0.62267573  -0.00495772  0.12741973  1
  V  V29  1  0.49712292  0.00289092  0.49208117  1
  V  V30  1  0.74556279  0.73279946  0.48909771  1
  V  V31  1  0.50634182  0.26689208  0.75080593  1
  V  V32  1  0.25515317  0.88052026  0.62464853  1
  V  V33  1  -0.00515532  0.25169456  0.25044547  1
  V  V34  1  0.60534738  0.13197099  0.00452695  1
  V  V35  1  0.62233458  0.62477440  -0.00302626  1
  V  V36  1  0.89483569  0.37976379  0.00493233  1
  V  V37  1  0.00571849  0.24067401  0.74593450  1
  V  V38  1  0.38872028  -0.00121595  0.87814909  1
  V  V39  1  0.37838083  0.62807482  0.25048796  1
  V  V40  1  0.25061673  0.26253131  0.00824704  1
  V  V41  1  0.62940560  0.13157583  0.49660590  1
  V  V42  1  0.87200490  0.48173849  0.38131146  1
  V  V43  1  0.37716980  0.50188748  0.88610208  1
  V  V44  1  0.00119273  0.10853368  0.12432448  1
  V  V45  1  0.36651989  0.50512854  0.37645849  1
  V  V46  1  0.36505393  0.36981580  0.49792593  1
  V  V47  1  0.75112322  0.76841542  0.01124788  1
  V  V48  1  0.12005246  0.25848636  0.88163368  1
  V  V49  1  0.24099456  0.62366233  0.86317668  1
  V  V50  1  0.74523978  0.37295369  0.11233294  1
  V  V51  1  0.50167942  0.37112221  0.37295148  1
  V  V52  1  0.01232880  0.73418911  0.25276426  1
  V  V53  1  0.76214393  0.01329094  0.74532780  1
  V  V54  1  0.24718516  0.75304281  -0.00048647  1
  V  V55  1  0.64099068  0.23688418  0.35429904  1
  V  V56  1  0.25304511  0.73928219  0.49718438  1
  V  V57  1  0.76071047  0.26199434  0.49341040  1
  V  V58  1  0.12662171  0.12309234  0.48186289  1
  V  V59  1  0.39455054  0.62211532  0.74796936  1
  V  V60  1  -0.00703899  0.87350051  0.89118981  1
  V  V61  1  0.22889084  -0.02279963  0.24558023  1
  V  V62  1  0.37587093  0.12674666  0.75054746  1
  V  V63  1  0.75315411  0.37479251  0.64250349  1
  V  V64  1  0.83513290  0.60596035  0.24514371  1
  V  V65  1  0.75177385  0.85952683  0.63160776  1
  V  V66  1  0.25020988  0.12169361  0.88082500  1
  V  V67  1  0.75543480  0.13514652  0.88655882  1
  V  V68  1  0.87849933  0.00029338  0.89028828  1
  V  V69  1  0.14585346  0.25174367  0.36848987  1
  V  V70  1  0.36724547  0.25041553  0.62033416  1
  V  V71  1  0.11712645  0.50554444  0.11389496  1
  V  V72  1  0.86428564  0.76160792  0.14052063  1
  Zn  Zn73  1  0.12589694  0.74109658  0.38114499  1
  Zn  Zn74  1  0.49418529  0.61875476  0.11780147  1
  Zn  Zn75  1  0.61418482  0.49437643  0.63946572  1
  Zn  Zn76  1  0.04297839  0.41626746  0.82674675  1
  Zn  Zn77  1  0.00405701  0.54644432  0.00833279  1
  Zn  Zn78  1  0.75530380  0.63409453  0.87637431  1
  Zn  Zn79  1  0.87088785  0.86455945  0.49893102  1
  Zn  Zn80  1  0.12973953  0.37467535  0.24526230  1
  Zn  Zn81  1  0.64767225  0.26959378  0.87473988  1
  Zn  Zn82  1  0.18667111  0.17755678  0.18745786  1
  Zn  Zn83  1  0.18629158  0.19162707  0.69098224  1
  Zn  Zn84  1  0.19295549  0.68221102  0.18926147  1
  Zn  Zn85  1  0.20097911  0.69623425  0.68633687  1
  Zn  Zn86  1  0.70455245  0.15638585  0.17787811  1
  Zn  Zn87  1  0.68814269  0.19100094  0.69150325  1
  Zn  Zn88  1  0.67462424  0.69491077  0.19218494  1
  Zn  Zn89  1  0.67720527  0.67616852  0.68848944  1
  Zn  Zn90  1  0.31680556  0.31699218  0.30716707  1
  Zn  Zn91  1  0.31532371  0.31310990  0.81630049  1
  Zn  Zn92  1  0.31208408  0.81585945  0.31179819  1
  Zn  Zn93  1  0.31197767  0.81509231  0.81271258  1
  Zn  Zn94  1  0.81742180  0.31841013  0.29950663  1
  Zn  Zn95  1  0.83884283  0.31688874  0.81284206  1
  Zn  Zn96  1  0.80162139  0.81849507  0.30890176  1
  Zn  Zn97  1  0.77785006  0.84126596  0.83459828  1
  Zn  Zn98  1  0.18460119  0.43309119  0.43319496  1
  Zn  Zn99  1  0.19382842  0.44439380  0.94106819  1
  Zn  Zn100  1  0.18610874  0.93486672  0.42710566  1
  Zn  Zn101  1  0.18774990  0.91745204  1.06983223  1
  Zn  Zn102  1  0.69077906  0.43169187  0.43258849  1
  Zn  Zn103  1  0.68731930  0.43936477  0.93807227  1
  Zn  Zn104  1  0.68334424  0.92903545  0.45363855  1
  Zn  Zn105  1  0.68044116  0.94842122  0.94265252  1
  Zn  Zn106  1  0.31692225  0.06234755  0.07435932  1
  Zn  Zn107  1  0.30713822  0.06832798  0.55419610  1
  Zn  Zn108  1  0.30382791  0.57515845  0.05935313  1
  Zn  Zn109  1  0.31966958  0.55892719  0.56851057  1
  Zn  Zn110  1  0.80558293  0.05232528  0.06830048  1
  Zn  Zn111  1  0.80990487  0.06958927  0.55786488  1
  Zn  Zn112  1  0.80481195  0.56511469  0.06718049  1
  Zn  Zn113  1  0.80170560  0.54690707  0.54687787  1
  Zn  Zn114  1  0.43415309  0.43780629  0.18382152  1
  Zn  Zn115  1  0.42724613  0.44019593  0.68631127  1
  Zn  Zn116  1  0.44809052  0.93844752  0.18503829  1
  Zn  Zn117  1  0.44274479  0.93830631  0.69361746  1
  Zn  Zn118  1  0.95935987  0.46167231  0.22139076  1
  Zn  Zn119  1  0.93958303  0.42778417  0.69311825  1
  Zn  Zn120  1  1.04856567  0.91237673  0.17879896  1
  Zn  Zn121  1  0.92978456  0.94138146  0.68103176  1
  Zn  Zn122  1  0.06139327  0.06081163  0.30612000  1
  Zn  Zn123  1  0.06128822  0.06040254  0.81678688  1
  Zn  Zn124  1  0.05740334  0.56730104  0.33237525  1
  Zn  Zn125  1  0.07874127  0.57436769  0.74939939  1
  Zn  Zn126  1  0.56162210  0.05814021  0.30839015  1
  Zn  Zn127  1  0.56942778  0.07018751  0.81468874  1
  Zn  Zn128  1  0.55644135  0.55853135  0.30995468  1
  Zn  Zn129  1  0.56639364  0.56260263  0.81928009  1
  Zn  Zn130  1  0.43764773  0.18623796  0.43180135  1
  Zn  Zn131  1  0.43574149  0.19353237  0.93533803  1
  Zn  Zn132  1  0.43229534  0.68671760  0.44451372  1
  Zn  Zn133  1  0.44071911  0.69306121  0.93297788  1
  Zn  Zn134  1  0.95532576  0.19910441  0.45375586  1
  Zn  Zn135  1  0.93914717  0.17957334  0.94435164  1
  Zn  Zn136  1  0.90399537  0.69499889  0.40568515  1
  Zn  Zn137  1  0.92976582  0.69693719  0.94322843  1
  Zn  Zn138  1  0.06705809  0.31561609  0.07509362  1
  Zn  Zn139  1  0.07391507  0.30407509  0.56273481  1
  Zn  Zn140  1  0.05465864  0.75372547  0.06114876  1
  Zn  Zn141  1  0.08191965  0.84346061  0.52706789  1
  Zn  Zn142  1  0.56376572  0.30391817  0.05996265  1
  Zn  Zn143  1  0.57074014  0.31943747  0.55916325  1
  Zn  Zn144  1  0.56383463  0.81671561  0.06202482  1
  Zn  Zn145  1  0.56760172  0.81550298  0.56160587  1
  O  O146  1  0.11687281  0.12324829  0.11154903  1
  O  O147  1  0.12630933  0.11457322  0.62946906  1
  O  O148  1  0.13675864  0.60647996  0.12402712  1
  O  O149  1  0.12881098  0.61458090  0.65229884  1
  O  O150  1  0.61277463  0.14495310  0.10638501  1
  O  O151  1  0.61721578  0.12657095  0.61874303  1
  O  O152  1  0.61990897  0.61877132  0.11701514  1
  O  O153  1  0.62798159  0.60433385  0.62318173  1
  O  O154  1  0.38274744  0.37910800  0.38033055  1
  O  O155  1  0.38093530  0.39403792  0.87015633  1
  O  O156  1  0.37742595  0.87375231  0.39140978  1
  O  O157  1  0.37171267  0.88371193  0.88421700  1
  O  O158  1  0.88157489  0.37876935  0.36856015  1
  O  O159  1  0.86610222  0.38704490  0.90111970  1
  O  O160  1  0.88225150  0.86697425  0.37477839  1
  O  O161  1  0.88279338  0.88730340  0.86535484  1
  O  O162  1  0.24344357  -0.00952762  0.34863527  1
  O  O163  1  0.25769766  0.01133928  0.86338743  1
  O  O164  1  0.26239809  0.49750820  0.37588989  1
  O  O165  1  0.25911903  0.51545914  0.87412566  1
  O  O166  1  0.77418483  -0.00109693  0.41792868  1
  O  O167  1  0.76208540  0.00461529  0.86475791  1
  O  O168  1  0.76648991  0.48515501  0.37185800  1
  O  O169  1  0.75720126  0.50156584  0.87054403  1
  O  O170  1  0.25123049  0.49996665  0.13133913  1
  O  O171  1  0.25481795  0.48583162  0.62488347  1
  O  O172  1  0.24740848  0.99339942  0.13366149  1
  O  O173  1  0.25154695  0.99836450  0.63799739  1
  O  O174  1  0.73045236  0.48506343  0.11662759  1
  O  O175  1  0.76529273  0.48609765  0.64215153  1
  O  O176  1  0.72706821  1.04540217  0.14693359  1
  O  O177  1  0.74445668  1.00944826  0.63460893  1
  O  O178  1  0.00796978  0.35356956  0.23831544  1
  O  O179  1  -0.03270575  0.33707342  0.78065293  1
  O  O180  1  0.00002925  0.85660297  0.26635381  1
  O  O181  1  0.00861762  0.87737591  0.73638154  1
  O  O182  1  0.49922097  0.37248413  0.26059037  1
  O  O183  1  0.49898966  0.36783096  0.74638314  1
  O  O184  1  0.52232622  0.87006079  0.23563940  1
  O  O185  1  0.52636571  0.87711802  0.73017858  1
  O  O186  1  0.49881881  0.13663844  0.24743761  1
  O  O187  1  0.49594377  0.13496148  0.74286684  1
  O  O188  1  0.48342129  0.61761528  0.24081462  1
  O  O189  1  0.49447530  0.62607000  0.75370151  1
  O  O190  1  1.00741440  0.13246055  0.23007971  1
  O  O191  1  0.99860647  0.14161207  0.76415436  1
  O  O192  1  0.99774933  0.63453945  0.24951553  1
  O  O193  1  0.96799842  0.65373137  0.75098392  1
  O  O194  1  0.36172610  0.24122899  0.01177424  1
  O  O195  1  0.38388738  0.25632179  0.50967543  1
  O  O196  1  0.36870139  0.75892065  0.00119318  1
  O  O197  1  0.37180963  0.76559538  0.51301078  1
  O  O198  1  0.88605399  0.26287096  0.00747492  1
  O  O199  1  0.86629250  0.24905784  0.50617195  1
  O  O200  1  0.85798936  0.74901053  0.02106391  1
  O  O201  1  0.85339234  0.74130323  0.49618435  1
  O  O202  1  0.11763460  0.24160344  0.47621889  1
  O  O203  1  0.13750495  0.24735891  0.99538148  1
  O  O204  1  0.15249146  0.75345464  0.51732826  1
  O  O205  1  0.13981340  0.75248215  0.97624724  1
  O  O206  1  0.63451655  0.24841204  0.48546251  1
  O  O207  1  0.61828789  0.23892904  0.98326056  1
  O  O208  1  0.63178738  0.75403354  0.49001309  1
  O  O209  1  0.63353382  0.74714677  0.99665386  1
  O  O210  1  0.48456507  0.25462174  0.13265924  1
  O  O211  1  0.49718109  0.24821991  0.63411373  1
  O  O212  1  0.48392422  0.74896603  0.11826608  1
  O  O213  1  0.48948612  0.75649409  0.62240935  1
  O  O214  1  0.99496815  0.23939994  0.12832989  1
  O  O215  1  0.99444288  0.25661609  0.63753929  1
  O  O216  1  0.97639618  0.75245180  0.14879625  1
  O  O217  1  1.06476384  0.64812722  0.58657760  1
  O  O218  1  -0.00951937  0.23479716  0.35199365  1
  O  O219  1  0.01986781  0.24244434  0.88546434  1
  O  O220  1  -0.00479363  0.74726555  0.36253165  1
  O  O221  1  0.00144648  0.76346194  0.87266928  1
  O  O222  1  0.50859226  0.25316608  0.35969895  1
  O  O223  1  0.48490031  0.26976113  0.86147950  1
  O  O224  1  0.50690874  0.75186115  0.38858688  1
  O  O225  1  0.51762994  0.75730415  0.87769864  1
  O  O226  1  0.22805365  0.13068155  0.50650946  1
  O  O227  1  0.24084451  0.12847642  0.99608238  1
  O  O228  1  0.26870811  0.64094070  0.50730441  1
  O  O229  1  0.25661706  0.64035670  0.97490881  1
  O  O230  1  0.73816863  0.14677447  0.50619426  1
  O  O231  1  0.75412959  0.13013593  0.98752572  1
  O  O232  1  0.73960906  0.63405268  0.51260616  1
  O  O233  1  0.73525073  0.63500755  1.00204944  1
  O  O234  1  0.25361585  0.36063158  -0.00459920  1
  O  O235  1  0.26264245  0.37582091  0.50125737  1
  O  O236  1  0.26125905  0.85887938  -0.00375247  1
  O  O237  1  0.26491787  0.87989337  0.51019206  1
  O  O238  1  0.74361302  0.36606997  0.00909637  1
  O  O239  1  0.74845450  0.36417390  0.51753877  1
  O  O240  1  0.74826366  0.86781033  0.00035207  1
  O  O241  1  0.75028715  0.85678986  0.51497175  1
  O  O242  1  0.14218856  0.50486866  0.24778701  1
  O  O243  1  0.04128258  0.47213455  0.72791251  1
  O  O244  1  0.12415581  0.98717490  0.23975948  1
  O  O245  1  0.13026496  0.99662790  0.74197353  1
  O  O246  1  0.61645447  0.48600798  0.24017746  1
  O  O247  1  0.64462758  0.49931318  0.75855693  1
  O  O248  1  0.62390562  0.98938043  0.24549360  1
  O  O249  1  0.63468279  1.01024201  0.73938055  1
  O  O250  1  0.37538974  0.00871967  0.24082510  1
  O  O251  1  0.36794645  0.00554497  0.75674450  1
  O  O252  1  0.36769725  0.50515098  0.25589727  1
  O  O253  1  0.37871274  0.51744002  0.75540313  1
  O  O254  1  0.85111473  0.04529608  0.27981380  1
  O  O255  1  0.86476349  0.00773911  0.75140010  1
  O  O256  1  0.85252211  0.50350926  0.23333849  1
  O  O257  1  0.86927082  0.48812433  0.77571455  1
  O  O258  1  0.12895892  0.35589655  0.36641361  1
  O  O259  1  0.12942766  0.36362469  0.88095775  1
  O  O260  1  0.10478656  0.85777165  0.39977986  1
  O  O261  1  0.10367013  0.87089463  0.86161979  1
  O  O262  1  0.62175638  0.36004524  0.36063369  1
  O  O263  1  0.60504376  0.37930237  0.88093481  1
  O  O264  1  0.61714744  0.87924990  0.37602784  1
  O  O265  1  0.64072492  0.86774141  0.87406770  1
  O  O266  1  0.36973006  0.14020859  0.14191928  1
  O  O267  1  0.38268610  0.13218815  0.62779506  1
  O  O268  1  0.37532976  0.63753612  0.12672706  1
  O  O269  1  0.37605231  0.63973327  0.63830398  1
  O  O270  1  0.88953806  0.13334039  0.10624439  1
  O  O271  1  0.87987464  0.13907006  0.61266325  1
  O  O272  1  0.85984260  0.63212191  0.14184017  1
  O  O273  1  0.89655419  0.61146070  0.60617186  1
  O  O274  1  0.25246446  0.24797061  0.11543366  1
  O  O275  1  0.26414776  0.25478052  0.63350800  1
  O  O276  1  0.25668354  0.73921771  0.10389689  1
  O  O277  1  0.26575160  0.76455229  0.62061878  1
  O  O278  1  0.76853522  0.24412184  0.12434923  1
  O  O279  1  0.76026663  0.25623553  0.62491422  1
  O  O280  1  0.74559155  0.75178846  0.11857280  1
  O  O281  1  0.74352195  0.75866784  0.63309837  1
  O  O282  1  0.24475057  0.24656323  0.36497940  1
  O  O283  1  0.24597506  0.24075050  0.88490660  1
  O  O284  1  0.25395459  0.75708743  0.39391598  1
  O  O285  1  0.24282879  0.74411555  0.87458685  1
  O  O286  1  0.75343152  0.27034959  0.39070193  1
  O  O287  1  0.76126281  0.23779318  0.86392282  1
  O  O288  1  0.73796631  0.74423288  0.38629909  1
  O  O289  1  0.74921286  0.74983958  0.89393095  1
  O  O290  1  0.01668763  0.11878252  0.00639561  1
  O  O291  1  0.02294719  0.12476884  0.50240372  1
  O  O292  1  0.01137007  0.65850805  0.00952631  1
  O  O293  1  0.06330520  0.60842908  0.52496179  1
  O  O294  1  0.50634131  0.12278912  -0.01232328  1
  O  O295  1  0.50383909  0.12530404  0.51160821  1
  O  O296  1  0.51636389  0.63469607  -0.00012874  1
  O  O297  1  0.49207022  0.60532773  0.50208306  1
  O  O298  1  0.49328988  0.37153111  0.48568812  1
  O  O299  1  0.49037913  0.36880394  0.99163003  1
  O  O300  1  0.48809173  0.88845743  0.51141592  1
  O  O301  1  0.48312716  0.87511152  1.00064263  1
  O  O302  1  1.02926498  0.40881831  0.51114852  1
  O  O303  1  0.99408815  0.37835937  1.00565842  1
  O  O304  1  0.98329395  0.87206332  0.48750326  1
  O  O305  1  0.99403227  0.87183256  0.98736672  1
  O  O306  1  0.49102986  0.48836259  0.38180000  1
  O  O307  1  0.49010781  0.49169353  0.87519397  1
  O  O308  1  0.50053793  1.00793570  0.39312991  1
  O  O309  1  0.48746157  1.00728549  0.86673105  1
  O  O310  1  0.97865216  0.49008106  0.33505804  1
  O  O311  1  0.98705798  0.50132910  0.89084347  1
  O  O312  1  1.00009893  0.98380602  0.36464669  1
  O  O313  1  0.98698784  0.99079562  0.87197955  1
  O  O314  1  -0.00477913  0.01002126  0.13107277  1
  O  O315  1  0.01178385  0.00138592  0.62527906  1
  O  O316  1  0.01334662  0.50352802  0.12643995  1
  O  O317  1  -0.05795415  0.55944642  0.63414132  1
  O  O318  1  0.52195302  0.01021289  0.12824374  1
  O  O319  1  0.50589140  0.01566192  0.62198944  1
  O  O320  1  0.51138385  0.49543006  0.12057753  1
  O  O321  1  0.49994456  0.48111524  0.60732680  1
  O  O322  1  0.25327589  0.39426687  0.25266735  1
  O  O323  1  0.25485677  0.37704071  0.74451414  1
  O  O324  1  0.24739298  0.87679093  0.24109963  1
  O  O325  1  0.24264558  0.88509693  0.74357397  1
  O  O326  1  0.73371551  0.35919105  0.23029998  1
  O  O327  1  0.75609268  0.37633386  0.74763498  1
  O  O328  1  0.72192820  0.87017225  0.24825511  1
  O  O329  1  0.75055333  0.89403290  0.73698122  1
  O  O330  1  0.25429412  0.10785939  0.24813798  1
  O  O331  1  0.25414983  0.12197152  0.75951138  1
  O  O332  1  0.26629035  0.61223842  0.24846583  1
  O  O333  1  0.26848499  0.63467540  0.76156386  1
  O  O334  1  0.70064536  0.18199853  0.29026394  1
  O  O335  1  0.74707381  0.11683156  0.76048894  1
  O  O336  1  0.73559022  0.61503390  0.24929644  1
  O  O337  1  0.76013230  0.60994652  0.75299196  1
  O  O338  1  0.37883387  0.13026023  0.35263572  1
  O  O339  1  0.36693919  0.12052993  0.87217366  1
  O  O340  1  0.38250245  0.61453293  0.36682807  1
  O  O341  1  0.37581196  0.62007547  0.86466576  1
  O  O342  1  0.85089191  0.10163426  0.32610051  1
  O  O343  1  0.86895657  0.11183760  0.88069477  1
  O  O344  1  0.86843404  0.60448944  0.35036445  1
  O  O345  1  0.87171502  0.60994734  0.89033298  1
  O  O346  1  0.13022804  0.39351621  0.12974368  1
  O  O347  1  0.14830040  0.36045699  0.62458662  1
  O  O348  1  0.10651715  0.84855221  0.10599010  1
  O  O349  1  0.13640215  0.89121867  0.62499720  1
  O  O350  1  0.62497201  0.37836484  0.12453410  1
  O  O351  1  0.64475789  0.37718448  0.62857947  1
  O  O352  1  0.63228478  0.89499223  0.11299344  1
  O  O353  1  0.64126386  0.89061532  0.61664716  1
  O  O354  1  0.11897319  0.24329742  0.25766790  1
  O  O355  1  0.11503038  0.24952781  0.76526485  1
  O  O356  1  0.11648436  0.74111214  0.25184509  1
  O  O357  1  0.13221799  0.76498152  0.75557721  1
  O  O358  1  0.59978408  0.26548943  0.23924317  1
  O  O359  1  0.60939479  0.24660512  0.75982892  1
  O  O360  1  0.62167336  0.75750620  0.27381272  1
  O  O361  1  0.64069113  0.74292168  0.77172589  1
  O  O362  1  0.38153683  0.24498010  0.24228157  1
  O  O363  1  0.38555125  0.24644740  0.74166035  1
  O  O364  1  0.36491203  0.74551801  0.23387079  1
  O  O365  1  0.37948376  0.74788843  0.74287591  1
  O  O366  1  0.88547529  0.25091242  0.22913048  1
  O  O367  1  0.87691074  0.23280615  0.73651753  1
  O  O368  1  0.85849764  0.73317640  0.24838058  1
  O  O369  1  0.95684831  0.71125651  0.70600799  1
  O  O370  1  0.38450395  0.48858696  0.49379647  1
  O  O371  1  0.37219952  0.51154135  0.98501550  1
  O  O372  1  0.38103750  0.99204570  0.50822106  1
  O  O373  1  0.36700389  0.98882846  0.99394357  1
  O  O374  1  0.88219246  0.49944695  0.48201032  1
  O  O375  1  0.87785170  0.49272100  1.00382723  1
  O  O376  1  0.83544638  0.99682886  0.46976306  1
  O  O377  1  0.86731715  0.99478757  0.98907584  1
  O  O378  1  0.13416891  0.00511351  -0.00162230  1
  O  O379  1  0.13113890  0.00789053  0.51146215  1
  O  O380  1  0.12059204  0.49945458  0.00798129  1
  O  O381  1  0.08188880  0.46233154  0.49590836  1
  O  O382  1  0.63570704  0.02224285  0.01432396  1
  O  O383  1  0.61786809  0.01210263  0.51261060  1
  O  O384  1  0.62643594  0.51666043  0.00237984  1
  O  O385  1  0.60880714  0.48776537  0.49107716  1
  O  O386  1  0.36966296  0.35731457  0.13092599  1
  O  O387  1  0.36511817  0.36775281  0.61797156  1
  O  O388  1  0.37515683  0.86393394  0.11370517  1
  O  O389  1  0.36938993  0.87014276  0.62818571  1
  O  O390  1  0.86458483  0.36459268  0.11176278  1
  O  O391  1  0.86666147  0.36008260  0.63117741  1
  O  O392  1  0.86168778  0.85786505  0.14511040  1
  O  O393  1  0.85572202  0.88141612  0.61946236  1
  O  O394  1  0.12612597  0.12928582  0.37614579  1
  O  O395  1  0.13294133  0.12961603  0.88728898  1
  O  O396  1  0.12395061  0.62793904  0.39410288  1
  O  O397  1  0.13511567  0.62984711  0.84608408  1
  O  O398  1  0.60885963  0.12890690  0.39199330  1
  O  O399  1  0.64374870  0.12168864  0.88544102  1
  O  O400  1  0.61231591  0.63200810  0.37561241  1
  O  O401  1  0.62930732  0.63407057  0.88742959  1
