# generated using pymatgen
data_V73Zn73O256
_symmetry_space_group_name_H-M   'P 1'
_cell_length_a   16.94632952
_cell_length_b   17.00766215
_cell_length_c   16.89194580
_cell_angle_alpha   90.03924740
_cell_angle_beta   89.96477098
_cell_angle_gamma   89.77098537
_symmetry_Int_Tables_number   1
_chemical_formula_structural   V73Zn73O256
_chemical_formula_sum   'V73 Zn73 O256'
_cell_volume   4868.51253401
_cell_formula_units_Z   1
loop_
 _symmetry_equiv_pos_site_id
 _symmetry_equiv_pos_as_xyz
  1  'x, y, z'
loop_
 _atom_site_type_symbol
 _atom_site_label
 _atom_site_symmetry_multiplicity
 _atom_site_fract_x
 _atom_site_fract_y
 _atom_site_fract_z
 _atom_site_occupancy
  V  V0  1  0.24579659  0.11091181  0.87244704  1
  V  V1  1  0.49699621  0.62145061  0.61385199  1
  V  V2  1  0.88192764  0.37098514  -0.00037065  1
  V  V3  1  0.87350186  -0.01044201  0.37504956  1
  V  V4  1  0.12993472  0.50509102  0.62463110  1
  V  V5  1  0.87967407  0.25809421  0.62292407  1
  V  V6  1  0.24621017  0.62273794  0.87419773  1
  V  V7  1  0.25462951  0.49825445  0.75645817  1
  V  V8  1  0.50574036  0.00615688  0.50162748  1
  V  V9  1  0.25962224  0.24604464  0.00128926  1
  V  V10  1  0.11287721  0.75675368  0.86638907  1
  V  V11  1  0.13006847  0.37255510  0.23201406  1
  V  V12  1  0.25250097  0.37404521  0.62254099  1
  V  V13  1  -0.00042378  0.50102702  0.01545806  1
  V  V14  1  0.36847822  0.51047348  0.37961465  1
  V  V15  1  0.12756707  0.85843866  0.24871186  1
  V  V16  1  0.37414926  0.25094556  0.63459196  1
  V  V17  1  0.74925959  0.25739198  0.50312706  1
  V  V18  1  0.25449090  0.88391415  0.63805413  1
  V  V19  1  0.36937188  0.10402219  0.74789023  1
  V  V20  1  0.37508581  0.61974695  0.75737206  1
  V  V21  1  0.25039770  0.50224245  0.23416557  1
  V  V22  1  0.25699684  0.74649052  0.00811561  1
  V  V23  1  0.87751833  0.38421775  0.49043207  1
  V  V24  1  0.49721157  0.38531668  0.37731556  1
  V  V25  1  0.88806195  0.13269279  0.25456926  1
  V  V26  1  0.12513495  0.25131098  0.87905384  1
  V  V27  1  0.13129702  0.00144103  0.63465118  1
  V  V28  1  0.49859266  0.49631641  -0.00918703  1
  V  V29  1  0.37574579  0.75135176  0.62774830  1
  V  V30  1  0.48090165  0.24745250  0.24565958  1
  V  V31  1  0.75095444  0.39016191  0.63012189  1
  V  V32  1  0.37589178  0.01567658  0.36565439  1
  V  V33  1  0.62292807  0.49667715  0.13613430  1
  V  V34  1  0.63434940  0.73944070  0.39172560  1
  V  V35  1  0.62961501  0.35698434  0.75659525  1
  V  V36  1  0.49753155  0.74920572  0.75814356  1
  V  V37  1  0.01483502  0.36209078  0.37238236  1
  V  V38  1  0.75941544  0.50449015  0.26139246  1
  V  V39  1  0.63014795  0.75019274  0.87217187  1
  V  V40  1  0.11932052  0.37292194  0.75110893  1
  V  V41  1  0.62368192  0.25972235  0.36684229  1
  V  V42  1  0.87834688  0.49427644  0.86479323  1
  V  V43  1  0.86885866  0.12617153  0.74638249  1
  V  V44  1  0.37763663  0.87845405  0.49949508  1
  V  V45  1  0.50631875  0.87699201  0.37605173  1
  V  V46  1  0.62389714  0.13196069  0.50503671  1
  V  V47  1  0.37231284  0.37467254  0.01078351  1
  V  V48  1  0.00661880  -0.00894876  0.48874471  1
  V  V49  1  0.00060716  -0.00025865  -0.00074885  1
  V  V50  1  0.13312576  0.63202953  0.49519333  1
  V  V51  1  -0.01486604  0.74066365  0.25005541  1
  V  V52  1  0.61232656  0.50098790  0.62523154  1
  V  V53  1  0.49190496  0.74660613  0.24436112  1
  V  V54  1  0.24571455  0.75530915  0.49586549  1
  V  V55  1  0.47920292  0.87914880  0.89076353  1
  V  V56  1  0.11480360  0.61819428  0.00887498  1
  V  V57  1  0.00585489  0.50183707  0.48934764  1
  V  V58  1  -0.01217451  0.62569517  0.63251342  1
  V  V59  1  0.74369952  0.60460863  0.85639834  1
  V  V60  1  0.75830768  0.14065536  0.89938052  1
  V  V61  1  0.63066189  0.61909963  -0.00005019  1
  V  V62  1  0.50220882  0.13307180  0.63315410  1
  V  V63  1  0.74590999  0.37010381  0.12710721  1
  V  V64  1  0.24770423  0.24169133  0.48924854  1
  V  V65  1  0.74565112  0.00248048  0.23400135  1
  V  V66  1  0.49856819  0.35378877  0.87120970  1
  V  V67  1  0.01059842  0.13250097  0.61659506  1
  V  V68  1  0.25182077  0.88621192  0.12301357  1
  V  V69  1  0.89308316  0.25361020  0.13428217  1
  V  V70  1  0.87438353  -0.01582060  0.86507790  1
  V  V71  1  0.63486033  0.87073917  0.23798406  1
  V  V72  1  0.48961712  0.62442521  0.13019001  1
  Zn  Zn73  1  0.25325394  0.64152065  0.36053981  1
  Zn  Zn74  1  0.38073715  0.37872001  0.50536441  1
  Zn  Zn75  1  -0.00993489  0.78349364  0.73815895  1
  Zn  Zn76  1  0.74471504  0.12641738  0.37208578  1
  Zn  Zn77  1  0.12592729  0.13210055  0.46087138  1
  Zn  Zn78  1  0.55159035  -0.01615602  0.04208550  1
  Zn  Zn79  1  0.64492815  0.93018942  0.71337325  1
  Zn  Zn80  1  0.00099877  0.25355907  0.75542619  1
  Zn  Zn81  1  0.87072610  0.62210891  0.29644489  1
  Zn  Zn82  1  0.11596594  0.16618684  0.25940284  1
  Zn  Zn83  1  0.19138217  0.18608210  0.68916507  1
  Zn  Zn84  1  0.18155100  0.68402887  0.18654198  1
  Zn  Zn85  1  0.18787344  0.69505590  0.68662605  1
  Zn  Zn86  1  0.69069497  0.19025122  0.18474572  1
  Zn  Zn87  1  0.65176171  0.14071036  0.74434969  1
  Zn  Zn88  1  0.67682063  0.67499288  0.20166316  1
  Zn  Zn89  1  0.68415792  0.68116414  0.68611171  1
  Zn  Zn90  1  0.30968400  0.32193588  0.30825750  1
  Zn  Zn91  1  0.31131483  0.31224476  0.81521396  1
  Zn  Zn92  1  0.31171652  0.82586519  0.30923237  1
  Zn  Zn93  1  0.31069522  0.81072991  0.82324811  1
  Zn  Zn94  1  0.81249480  0.32123491  0.31301987  1
  Zn  Zn95  1  0.81214508  0.31186763  0.81195251  1
  Zn  Zn96  1  0.81147395  0.80774953  0.31604761  1
  Zn  Zn97  1  0.80297613  0.79784612  0.79850835  1
  Zn  Zn98  1  0.19318800  0.44023958  0.43640419  1
  Zn  Zn99  1  0.18355280  0.43213066  0.94199539  1
  Zn  Zn100  1  0.19350585  0.94382661  0.43417873  1
  Zn  Zn101  1  0.17639430  0.93378276  0.94921256  1
  Zn  Zn102  1  0.68269677  0.44024642  0.44224358  1
  Zn  Zn103  1  0.68748114  0.43071571  0.94127730  1
  Zn  Zn104  1  0.68494408  0.94450424  0.43414596  1
  Zn  Zn105  1  0.74424213  0.97803419  0.97635058  1
  Zn  Zn106  1  0.14224976  0.04248928  0.11803986  1
  Zn  Zn107  1  0.31389501  0.06499223  0.55670395  1
  Zn  Zn108  1  0.31354555  0.55981978  0.05512915  1
  Zn  Zn109  1  0.31534487  0.56539579  0.56248899  1
  Zn  Zn110  1  0.85589690  0.06349727  0.06596009  1
  Zn  Zn111  1  0.82829493  0.08139589  0.54603707  1
  Zn  Zn112  1  0.80657298  0.55268598  0.05895601  1
  Zn  Zn113  1  0.84160977  0.59580076  0.50625818  1
  Zn  Zn114  1  0.43640213  0.43550881  0.19499408  1
  Zn  Zn115  1  0.44078288  0.43324493  0.69611917  1
  Zn  Zn116  1  0.43082040  0.92217865  0.17785809  1
  Zn  Zn117  1  0.46213862  0.93247691  0.68385294  1
  Zn  Zn118  1  0.93843847  0.43840318  0.19573389  1
  Zn  Zn119  1  0.94114069  0.44397547  0.67980911  1
  Zn  Zn120  1  1.00002733  0.93006268  0.15657901  1
  Zn  Zn121  1  0.92943648  0.95007281  0.66984991  1
  Zn  Zn122  1  0.08262101  0.01202975  0.31226523  1
  Zn  Zn123  1  0.05424832  0.06472155  0.81339503  1
  Zn  Zn124  1  0.07166478  0.56207583  0.30330707  1
  Zn  Zn125  1  0.06468103  0.55549164  0.81669152  1
  Zn  Zn126  1  0.52939885  0.04577810  0.23391697  1
  Zn  Zn127  1  0.60743284  0.02394581  0.86787371  1
  Zn  Zn128  1  0.56394864  0.56556483  0.31915391  1
  Zn  Zn129  1  0.56438787  0.55141271  0.80540485  1
  Zn  Zn130  1  0.43624828  0.19652147  0.43893752  1
  Zn  Zn131  1  0.42720311  0.18761234  0.92378415  1
  Zn  Zn132  1  0.43849505  0.69471915  0.43232794  1
  Zn  Zn133  1  0.44120307  0.68313165  0.94202560  1
  Zn  Zn134  1  0.93883674  0.19069353  0.43335372  1
  Zn  Zn135  1  0.93997806  0.19194994  0.93864642  1
  Zn  Zn136  1  0.97139803  0.68818767  0.42182649  1
  Zn  Zn137  1  0.93134273  0.66845545  0.82805473  1
  Zn  Zn138  1  0.10887971  0.24810030  0.10080958  1
  Zn  Zn139  1  0.06909806  0.31520837  0.55661672  1
  Zn  Zn140  1  0.06165312  0.79860287  0.06488053  1
  Zn  Zn141  1  0.05587090  0.82289072  0.58134825  1
  Zn  Zn142  1  0.55715031  0.31341507  0.06759928  1
  Zn  Zn143  1  0.56071452  0.31688628  0.56465683  1
  Zn  Zn144  1  0.62112364  0.83593187  0.02591603  1
  Zn  Zn145  1  0.57284452  0.81347892  0.57374086  1
  O  O146  1  0.12433626  0.14773013  0.14845298  1
  O  O147  1  0.12188928  0.11701066  0.62431420  1
  O  O148  1  0.12847509  0.61769960  0.10664098  1
  O  O149  1  0.13052465  0.61391068  0.62066457  1
  O  O150  1  0.62204391  0.15757747  0.09147440  1
  O  O151  1  0.60782339  0.13771055  0.62155611  1
  O  O152  1  0.61598116  0.61489704  0.11874076  1
  O  O153  1  0.61176090  0.60845226  0.63412928  1
  O  O154  1  0.38442606  0.38636330  0.37960452  1
  O  O155  1  0.39444942  0.36782074  0.87567196  1
  O  O156  1  0.38937067  0.87590012  0.38484383  1
  O  O157  1  0.37894098  0.87049451  0.89271283  1
  O  O158  1  0.89037715  0.37207233  0.38488658  1
  O  O159  1  0.86531256  0.38364938  0.89212796  1
  O  O160  1  0.87150721  0.89237448  0.36908776  1
  O  O161  1  0.85647001  0.89048271  0.84122352  1
  O  O162  1  0.27796720  -0.00661911  0.37412550  1
  O  O163  1  0.23474364  0.01359161  0.88493897  1
  O  O164  1  0.26166790  0.50453215  0.37195528  1
  O  O165  1  0.24076574  0.50590350  0.86313547  1
  O  O166  1  0.76231078  0.00752171  0.37696560  1
  O  O167  1  0.77435204  0.02671373  0.86540674  1
  O  O168  1  0.74421213  0.48608807  0.36007915  1
  O  O169  1  0.75574100  0.50007724  0.87655604  1
  O  O170  1  0.25714846  0.50036726  0.13473654  1
  O  O171  1  0.24638025  0.49378494  0.63260738  1
  O  O172  1  0.24331150  0.98365992  0.10529368  1
  O  O173  1  0.23987600  1.00079005  0.62020968  1
  O  O174  1  0.74185136  0.49523874  0.13629252  1
  O  O175  1  0.73874743  0.48919672  0.62596242  1
  O  O176  1  0.76362096  1.00177624  0.13710901  1
  O  O177  1  0.77579998  0.93687272  0.58168162  1
  O  O178  1  0.01450269  0.38706716  0.26604283  1
  O  O179  1  0.01610631  0.37600892  0.74037790  1
  O  O180  1  0.01576491  0.85536627  0.23933726  1
  O  O181  1  0.00602491  0.87298704  0.67837853  1
  O  O182  1  0.49580692  0.36484045  0.26886884  1
  O  O183  1  0.50986897  0.36935915  0.76368944  1
  O  O184  1  0.51513792  0.86368813  0.25577593  1
  O  O185  1  0.48486755  0.85337102  0.77296372  1
  O  O186  1  0.51115660  0.15072594  0.25649590  1
  O  O187  1  0.48420458  0.12943734  0.73403375  1
  O  O188  1  0.50742754  0.63749718  0.24561343  1
  O  O189  1  0.48667611  0.62490605  0.75109708  1
  O  O190  1  0.98389472  0.12602477  0.25565775  1
  O  O191  1  0.99462089  0.13291492  0.73247637  1
  O  O192  1  0.99102132  0.63255789  0.26970523  1
  O  O193  1  0.99781819  0.60971487  0.73739057  1
  O  O194  1  0.36930354  0.26023689  -0.00583167  1
  O  O195  1  0.36234473  0.25358008  0.51320639  1
  O  O196  1  0.35521046  0.73709114  -0.00798889  1
  O  O197  1  0.37172049  0.76117192  0.50761632  1
  O  O198  1  0.88524252  0.26465484  0.01504565  1
  O  O199  1  0.87012168  0.26145859  0.50429830  1
  O  O200  1  0.86191294  0.82712594  0.05022616  1
  O  O201  1  0.78974615  0.74528373  0.54421240  1
  O  O202  1  0.14173778  0.24654213  0.50369744  1
  O  O203  1  0.13937095  0.25632181  0.98319948  1
  O  O204  1  0.13722031  0.74498801  0.51247582  1
  O  O205  1  0.12825801  0.72943917  0.99012709  1
  O  O206  1  0.63486298  0.25135542  0.50214338  1
  O  O207  1  0.61276650  0.20854907  1.03410736  1
  O  O208  1  0.61760954  0.75525431  0.49166998  1
  O  O209  1  0.61997381  0.72909951  0.98154676  1
  O  O210  1  0.49648459  0.26495063  0.14709184  1
  O  O211  1  0.48596895  0.24098502  0.61493609  1
  O  O212  1  0.50352927  0.73923011  0.14140558  1
  O  O213  1  0.49414683  0.73778360  0.63912816  1
  O  O214  1  0.99023324  0.25534014  0.13322063  1
  O  O215  1  0.99326382  0.24982363  0.61773379  1
  O  O216  1  1.01219347  0.73662853  0.14884833  1
  O  O217  1  1.00919883  0.72419200  0.62297374  1
  O  O218  1  0.00687459  0.26298299  0.37686785  1
  O  O219  1  0.02012047  0.24467293  0.87404056  1
  O  O220  1  0.00831932  0.76405108  0.35290262  1
  O  O221  1  0.01208539  0.73957954  0.87261839  1
  O  O222  1  0.51037902  0.26049556  0.37073906  1
  O  O223  1  0.50879245  0.25534728  0.88407671  1
  O  O224  1  0.51111692  0.75845970  0.36794021  1
  O  O225  1  0.50641168  0.75036373  0.87535273  1
  O  O226  1  0.24895902  0.13829804  0.49711020  1
  O  O227  1  0.25900131  0.14079955  0.97616173  1
  O  O228  1  0.24770242  0.63999180  0.50452343  1
  O  O229  1  0.24018893  0.62159233  0.98943163  1
  O  O230  1  0.74264112  0.14059223  0.50449084  1
  O  O231  1  0.77276493  0.11646086  0.99791675  1
  O  O232  1  0.75695621  0.67904980  0.54988238  1
  O  O233  1  0.73315854  0.61068839  0.99058046  1
  O  O234  1  0.26726607  0.36758520  -0.01247363  1
  O  O235  1  0.25089496  0.37141835  0.51437490  1
  O  O236  1  0.23852290  0.85269247  0.00965645  1
  O  O237  1  0.26233887  0.87358081  0.50511818  1
  O  O238  1  0.76681236  0.38834761  0.01861497  1
  O  O239  1  0.76015270  0.37532318  0.50733981  1
  O  O240  1  0.73614238  0.86303850  0.00292511  1
  O  O241  1  0.73655951  0.89151701  0.52698469  1
  O  O242  1  0.13890885  0.48846950  0.25107181  1
  O  O243  1  0.13453183  0.49257518  0.74279715  1
  O  O244  1  0.09766200  0.97740002  0.20545609  1
  O  O245  1  0.11752624  1.00262739  0.73243322  1
  O  O246  1  0.63163817  0.50512616  0.24078284  1
  O  O247  1  0.61967766  0.48013206  0.73559523  1
  O  O248  1  0.63551177  0.98532163  0.24657626  1
  O  O249  1  0.62812828  1.02798083  0.75747472  1
  O  O250  1  0.40448665  -0.00434785  0.26821253  1
  O  O251  1  0.38249978  0.00732798  0.73699841  1
  O  O252  1  0.35984886  0.49285930  0.26245583  1
  O  O253  1  0.36397095  0.50685930  0.74583393  1
  O  O254  1  0.86193035  0.01924465  0.26386561  1
  O  O255  1  0.88365144  0.02044698  0.74838014  1
  O  O256  1  0.86427838  0.50692227  0.25080437  1
  O  O257  1  0.87684079  0.48241633  0.76605080  1
  O  O258  1  0.11412672  0.37797535  0.38536486  1
  O  O259  1  0.13331807  0.36219239  0.86277481  1
  O  O260  1  0.13195338  0.90375404  0.34491444  1
  O  O261  1  0.12502422  0.85430712  0.88291975  1
  O  O262  1  0.61195968  0.36789355  0.38331688  1
  O  O263  1  0.61961721  0.37368846  0.86532414  1
  O  O264  1  0.61700266  0.87301586  0.37214994  1
  O  O265  1  0.63206957  0.84817184  0.87093266  1
  O  O266  1  0.33522364  0.11905883  0.16888759  1
  O  O267  1  0.37530394  0.13258069  0.63220875  1
  O  O268  1  0.39127958  0.61555541  0.11971231  1
  O  O269  1  0.37884801  0.62976970  0.63653011  1
  O  O270  1  0.86708099  0.14805677  0.14286086  1
  O  O271  1  0.88757370  0.13748244  0.62608402  1
  O  O272  1  0.83157396  0.66214545  0.11377233  1
  O  O273  1  0.89112453  0.61422456  0.61262287  1
  O  O274  1  0.24448842  0.24757299  0.09731837  1
  O  O275  1  0.25499672  0.25950602  0.62109319  1
  O  O276  1  0.25024077  0.73159453  0.10770018  1
  O  O277  1  0.25741352  0.76309656  0.61895637  1
  O  O278  1  0.75503720  0.26833822  0.12936456  1
  O  O279  1  0.76601941  0.26553708  0.61344297  1
  O  O280  1  0.77084336  0.70718463  0.12152709  1
  O  O281  1  0.71137973  0.78966665  0.65631838  1
  O  O282  1  0.25795641  0.26225661  0.39261925  1
  O  O283  1  0.24155708  0.24358935  0.87363220  1
  O  O284  1  0.26101904  0.75546004  0.39074160  1
  O  O285  1  0.23748199  0.73793652  0.88132578  1
  O  O286  1  0.74014675  0.26452395  0.38851587  1
  O  O287  1  0.77199315  0.24058989  0.88923699  1
  O  O288  1  0.73293612  0.75883156  0.38040068  1
  O  O289  1  0.73520936  0.72416986  0.86326397  1
  O  O290  1  -0.01867878  0.10312142  -0.00911151  1
  O  O291  1  0.00626964  0.12869312  0.50446077  1
  O  O292  1  0.01035995  0.61112935  0.00029840  1
  O  O293  1  0.01585802  0.61831903  0.50921275  1
  O  O294  1  0.45766987  0.09465833  -0.00003904  1
  O  O295  1  0.50764580  0.12642369  0.50464211  1
  O  O296  1  0.50656841  0.61211655  0.00701363  1
  O  O297  1  0.49012522  0.63097945  0.51556123  1
  O  O298  1  0.49627706  0.36951840  0.48509302  1
  O  O299  1  0.49446962  0.37574892  0.99112871  1
  O  O300  1  0.49427815  0.88406733  0.49516779  1
  O  O301  1  0.51650673  0.87457865  0.99076379  1
  O  O302  1  0.99743268  0.38288010  0.49238199  1
  O  O303  1  0.98439223  0.38996017  1.00048463  1
  O  O304  1  1.00593306  0.89359135  0.49942411  1
  O  O305  1  1.00745207  0.89268630  1.02723287  1
  O  O306  1  0.49016368  0.49161513  0.36755728  1
  O  O307  1  0.50701679  0.48999472  0.88831153  1
  O  O308  1  0.49636224  0.99115617  0.38901861  1
  O  O309  1  0.49817137  0.97501282  0.86994610  1
  O  O310  1  1.00922852  0.49876100  0.38810293  1
  O  O311  1  0.98167159  0.50537566  0.88278540  1
  O  O312  1  0.98661840  1.00425612  0.38102815  1
  O  O313  1  0.98588098  0.99628133  0.87861287  1
  O  O314  1  -0.04406526  0.01324077  0.10006893  1
  O  O315  1  0.01152662  0.01528134  0.60515849  1
  O  O316  1  -0.00519245  0.49994628  0.11462294  1
  O  O317  1  0.01408172  0.50568110  0.61378198  1
  O  O318  1  0.50193303  -0.00292018  0.13628934  1
  O  O319  1  0.48769953  0.02576899  0.60897952  1
  O  O320  1  0.50703401  0.50132685  0.12352073  1
  O  O321  1  0.50333224  0.50489660  0.62929460  1
  O  O322  1  0.23969873  0.38888711  0.24963968  1
  O  O323  1  0.24502213  0.38209294  0.74192808  1
  O  O324  1  0.24237891  0.87652995  0.23524624  1
  O  O325  1  0.26325967  0.87265884  0.73698720  1
  O  O326  1  0.75879276  0.38843918  0.23469560  1
  O  O327  1  0.73880409  0.36854783  0.74397604  1
  O  O328  1  0.74169888  0.88711273  0.25540897  1
  O  O329  1  0.72129423  0.84085625  0.72089635  1
  O  O330  1  0.28600475  0.11425105  0.22138190  1
  O  O331  1  0.26076745  0.11825406  0.75416217  1
  O  O332  1  0.23912709  0.60813655  0.25162808  1
  O  O333  1  0.25486741  0.61747649  0.75406612  1
  O  O334  1  0.73945560  0.11121974  0.25100948  1
  O  O335  1  0.77084746  0.13662454  0.73332954  1
  O  O336  1  0.75236363  0.60932497  0.25727025  1
  O  O337  1  0.74106203  0.60939397  0.75698234  1
  O  O338  1  0.38422144  0.11409599  0.38012214  1
  O  O339  1  0.36393119  0.12167489  0.85574613  1
  O  O340  1  0.37562574  0.61420798  0.37713689  1
  O  O341  1  0.36161805  0.62664137  0.86599345  1
  O  O342  1  0.86467986  0.13561384  0.36383336  1
  O  O343  1  0.87630348  0.13539418  0.85322414  1
  O  O344  1  0.87019172  0.64239198  0.40969944  1
  O  O345  1  0.85397020  0.60416407  0.87728543  1
  O  O346  1  0.11853244  0.36295521  0.13340790  1
  O  O347  1  0.13445393  0.38551986  0.62948403  1
  O  O348  1  0.14386169  0.85153578  0.13389662  1
  O  O349  1  0.14391740  0.89531404  0.61195225  1
  O  O350  1  0.63862909  0.38193593  0.11727758  1
  O  O351  1  0.62972602  0.37716066  0.63636688  1
  O  O352  1  0.63142491  0.86007779  0.13980545  1
  O  O353  1  0.56620286  0.89649015  0.64370813  1
  O  O354  1  0.13419040  0.27747332  0.26240280  1
  O  O355  1  0.12666219  0.25968567  0.75295657  1
  O  O356  1  0.13666771  0.75678036  0.26244766  1
  O  O357  1  0.11942606  0.74730185  0.76100860  1
  O  O358  1  0.63467458  0.25466380  0.26743339  1
  O  O359  1  0.62642747  0.25865625  0.74714585  1
  O  O360  1  0.62485626  0.75969665  0.26228025  1
  O  O361  1  0.60544847  0.72771639  0.76580792  1
  O  O362  1  0.38144596  0.24931987  0.25942439  1
  O  O363  1  0.36778373  0.24395509  0.73794727  1
  O  O364  1  0.39415228  0.75772612  0.25949968  1
  O  O365  1  0.37748158  0.73761715  0.74895010  1
  O  O366  1  0.87186692  0.24649046  0.24507222  1
  O  O367  1  0.88208162  0.25068513  0.73708847  1
  O  O368  1  0.87963442  0.74280118  0.25350816  1
  O  O369  1  0.88715912  0.74068027  0.75404044  1
  O  O370  1  0.36896524  0.49761292  0.48647063  1
  O  O371  1  0.38467164  0.48419740  0.99889367  1
  O  O372  1  0.38393838  0.99395190  0.49271032  1
  O  O373  1  0.39536819  1.06230257  1.02568839  1
  O  O374  1  0.89018931  0.49004382  0.50438217  1
  O  O375  1  0.88464848  0.49486948  0.99933222  1
  O  O376  1  0.88968752  1.01092566  0.48516065  1
  O  O377  1  0.86961669  0.98235425  0.97337007  1
  O  O378  1  0.10613197  0.00782567  0.00698771  1
  O  O379  1  0.11501241  0.01014433  0.49374840  1
  O  O380  1  0.11003119  0.50396176  -0.00908333  1
  O  O381  1  0.12653677  0.50831455  0.50908088  1
  O  O382  1  0.63469212  0.00125592  -0.02523052  1
  O  O383  1  0.61748125  0.02076280  0.49535427  1
  O  O384  1  0.61588442  0.50030051  0.01152013  1
  O  O385  1  0.62357985  0.48916971  0.52472576  1
  O  O386  1  0.37917277  0.37479661  0.10949558  1
  O  O387  1  0.36845978  0.36988721  0.62889790  1
  O  O388  1  0.35207024  0.86676188  0.12509069  1
  O  O389  1  0.37461006  0.87367448  0.61556115  1
  O  O390  1  0.87189620  0.36777126  0.12286014  1
  O  O391  1  0.87227784  0.37397584  0.61668800  1
  O  O392  1  0.79522569  0.84820721  0.07265968  1
  O  O393  1  0.84064399  0.89750258  0.60956746  1
  O  O394  1  0.12860606  0.10654103  0.35108538  1
  O  O395  1  0.13793366  0.13834603  0.85858366  1
  O  O396  1  0.13333403  0.62051138  0.39280557  1
  O  O397  1  0.13291474  0.62690073  0.87832105  1
  O  O398  1  0.62903987  0.15150687  0.39317802  1
  O  O399  1  0.65947707  0.13502160  0.87062794  1
  O  O400  1  0.62372353  0.63971209  0.37931685  1
  O  O401  1  0.63167506  0.61316074  0.87966037  1
