# generated using pymatgen
data_V73Zn73O256
_symmetry_space_group_name_H-M   'P 1'
_cell_length_a   16.84212759
_cell_length_b   16.83493733
_cell_length_c   16.82206749
_cell_angle_alpha   90.04317752
_cell_angle_beta   90.17703913
_cell_angle_gamma   90.03253684
_symmetry_Int_Tables_number   1
_chemical_formula_structural   V73Zn73O256
_chemical_formula_sum   'V73 Zn73 O256'
_cell_volume   4769.63956249
_cell_formula_units_Z   1
loop_
 _symmetry_equiv_pos_site_id
 _symmetry_equiv_pos_as_xyz
  1  'x, y, z'
loop_
 _atom_site_type_symbol
 _atom_site_label
 _atom_site_symmetry_multiplicity
 _atom_site_fract_x
 _atom_site_fract_y
 _atom_site_fract_z
 _atom_site_occupancy
  V  V0  1  0.50974279  0.75847299  0.75465233  1
  V  V1  1  0.88220373  0.62686164  0.74826947  1
  V  V2  1  0.85640916  0.87377074  0.50309373  1
  V  V3  1  0.86337549  0.10564844  0.75384511  1
  V  V4  1  0.87546466  0.25021645  0.63728481  1
  V  V5  1  -0.00237508  -0.00395252  0.49712596  1
  V  V6  1  0.11799553  0.86438466  0.74214451  1
  V  V7  1  0.63123587  -0.00676952  0.11545511  1
  V  V8  1  0.24715778  0.49933061  0.24485385  1
  V  V9  1  -0.00685131  0.12111651  0.11680676  1
  V  V10  1  0.50037730  0.75203595  0.23831155  1
  V  V11  1  0.88141311  0.64195373  0.24302062  1
  V  V12  1  0.51647767  0.27515541  0.73989029  1
  V  V13  1  0.11445111  0.50919374  0.10777897  1
  V  V14  1  0.12364742  0.00013877  0.11854624  1
  V  V15  1  0.74851940  0.63188843  0.88013032  1
  V  V16  1  0.24504726  0.63008153  0.38351237  1
  V  V17  1  0.00445130  0.12809795  0.62986899  1
  V  V18  1  0.11973443  0.37250877  0.24723149  1
  V  V19  1  0.74328186  0.12139408  0.89126164  1
  V  V20  1  0.47981378  -0.00549852  0.00447053  1
  V  V21  1  0.38845287  0.49898047  0.88553649  1
  V  V22  1  0.61182363  0.11765368  0.50342005  1
  V  V23  1  0.74387236  0.62836016  0.38938760  1
  V  V24  1  0.61651116  0.74572029  0.39036785  1
  V  V25  1  0.87302288  0.88028161  0.00293146  1
  V  V26  1  0.25373775  0.63564346  0.88400906  1
  V  V27  1  0.38006431  0.62877608  0.23870611  1
  V  V28  1  0.37244123  0.63706498  0.74068605  1
  V  V29  1  0.62661064  0.88009033  0.26115834  1
  V  V30  1  0.00816190  0.62818340  0.62055219  1
  V  V31  1  0.25526772  0.00286296  0.76040809  1
  V  V32  1  0.60489668  0.25720570  0.37800022  1
  V  V33  1  0.12549556  0.74633970  0.88481543  1
  V  V34  1  0.86375059  0.36588784  0.00331674  1
  V  V35  1  0.37621703  0.49135206  0.37324100  1
  V  V36  1  0.12463477  0.00053809  0.62430218  1
  V  V37  1  0.25378654  0.49156230  0.74181878  1
  V  V38  1  0.36607852  0.37255572  0.51912039  1
  V  V39  1  0.37568694  0.13496649  0.24555493  1
  V  V40  1  -0.00630057  0.24194992  0.25181129  1
  V  V41  1  0.75178326  0.13927481  0.37166338  1
  V  V42  1  0.38052263  0.86126819  0.49777286  1
  V  V43  1  0.24265069  0.12815839  0.38576544  1
  V  V44  1  0.25543050  0.86265429  0.61731830  1
  V  V45  1  0.63068110  0.26615288  0.88792544  1
  V  V46  1  0.87484312  0.36536735  0.49395248  1
  V  V47  1  0.12352409  0.25304861  0.38490717  1
  V  V48  1  0.00497602  0.49754967  0.49866447  1
  V  V49  1  0.50737760  0.49474923  0.49648535  1
  V  V50  1  0.11184753  0.86539734  0.25770368  1
  V  V51  1  0.26165610  0.86187558  0.11908266  1
  V  V52  1  0.61111722  0.37172597  0.24845518  1
  V  V53  1  0.49799210  0.87851561  0.88353854  1
  V  V54  1  0.75051782  0.49863272  0.23959195  1
  V  V55  1  0.49862396  0.13184893  0.12579353  1
  V  V56  1  0.60976982  0.50044778  0.11750188  1
  V  V57  1  0.61297763  0.63048543  0.00308806  1
  V  V58  1  0.86181077  -0.00081851  0.36879599  1
  V  V59  1  0.38348852  0.00114151  0.38809036  1
  V  V60  1  0.62441194  -0.00760980  0.63813645  1
  V  V61  1  0.00105442  0.88285420  0.88124003  1
  V  V62  1  0.10095657  0.36120159  0.75661816  1
  V  V63  1  0.86100332  0.74961124  0.61965195  1
  V  V64  1  0.50694272  0.63541132  0.61584481  1
  V  V65  1  0.74511866  0.49460302  0.75252989  1
  V  V66  1  0.89112627  0.49493767  0.88220572  1
  V  V67  1  0.87422961  0.49601593  0.37528471  1
  V  V68  1  0.39689079  0.12793754  0.75929671  1
  V  V69  1  0.24791040  -0.00244637  0.25135694  1
  V  V70  1  0.74414452  0.36934341  0.62403050  1
  V  V71  1  0.13604782  0.13105608  -0.01081644  1
  V  V72  1  0.25514415  0.36195865  0.10893831  1
  Zn  Zn73  1  0.24932724  0.25204625  0.53508209  1
  Zn  Zn74  1  0.86193435  0.23672083  0.11802996  1
  Zn  Zn75  1  0.12350615  0.74399959  0.37968223  1
  Zn  Zn76  1  0.13457300  0.49104090  0.61945926  1
  Zn  Zn77  1  0.19755489  0.28884674  -0.07570172  1
  Zn  Zn78  1  0.62545474  0.50102817  0.62382730  1
  Zn  Zn79  1  0.75865739  0.74767498  0.01619812  1
  Zn  Zn80  1  0.76231159  0.86986527  0.14109019  1
  Zn  Zn81  1  0.65110914  0.87412456  0.75358151  1
  Zn  Zn82  1  0.18418486  0.18497546  0.18764753  1
  Zn  Zn83  1  0.20770419  0.21063903  0.75173180  1
  Zn  Zn84  1  0.18500343  0.68692028  0.19106247  1
  Zn  Zn85  1  0.18741633  0.68568148  0.68049614  1
  Zn  Zn86  1  0.68064303  0.17374591  0.19247091  1
  Zn  Zn87  1  0.68285122  0.18385410  0.68888465  1
  Zn  Zn88  1  0.68867114  0.68540242  0.19184499  1
  Zn  Zn89  1  0.68751812  0.68417663  0.68915283  1
  Zn  Zn90  1  0.30802463  0.31353528  0.30891804  1
  Zn  Zn91  1  0.33906068  0.31516693  0.80746013  1
  Zn  Zn92  1  0.31254455  0.81472421  0.31060042  1
  Zn  Zn93  1  0.31390108  0.82011756  0.81119989  1
  Zn  Zn94  1  0.78372821  0.29174182  0.26669872  1
  Zn  Zn95  1  0.81014606  0.30994868  0.81727381  1
  Zn  Zn96  1  0.80856591  0.81234135  0.32219485  1
  Zn  Zn97  1  0.82026739  0.81204037  0.81059334  1
  Zn  Zn98  1  0.19243511  0.43423962  0.43522679  1
  Zn  Zn99  1  0.18954953  0.45275208  0.92815258  1
  Zn  Zn100  1  0.18628782  0.93542219  0.44036259  1
  Zn  Zn101  1  0.18954618  0.93579358  0.93878400  1
  Zn  Zn102  1  0.69223053  0.43195390  0.43263413  1
  Zn  Zn103  1  0.68956621  0.44445708  0.93674827  1
  Zn  Zn104  1  0.68137202  0.93883705  0.44242551  1
  Zn  Zn105  1  0.68810274  0.93187999  0.92821920  1
  Zn  Zn106  1  0.30846584  0.06163876  0.06287826  1
  Zn  Zn107  1  0.30981375  0.06590353  0.57120370  1
  Zn  Zn108  1  0.30666466  0.56039490  0.06251145  1
  Zn  Zn109  1  0.31949018  0.56486739  0.56057756  1
  Zn  Zn110  1  0.81387079  0.05051972  0.05544180  1
  Zn  Zn111  1  0.80109261  0.06972322  0.55679699  1
  Zn  Zn112  1  0.82204428  0.56146581  0.06236728  1
  Zn  Zn113  1  0.81671477  0.55711485  0.56442047  1
  Zn  Zn114  1  0.43281754  0.43530066  0.18038631  1
  Zn  Zn115  1  0.43930157  0.44848391  0.69047387  1
  Zn  Zn116  1  0.43825928  0.93836275  0.19662040  1
  Zn  Zn117  1  0.44086891  0.94523464  0.67693970  1
  Zn  Zn118  1  0.93958160  0.43853027  0.18659891  1
  Zn  Zn119  1  0.93494939  0.43953264  0.68612821  1
  Zn  Zn120  1  0.93735042  0.93889297  0.18747288  1
  Zn  Zn121  1  0.93364262  0.93219049  0.68655297  1
  Zn  Zn122  1  0.05935676  0.06042479  0.31272945  1
  Zn  Zn123  1  0.06205258  0.06275853  0.80653127  1
  Zn  Zn124  1  0.06076449  0.56176950  0.30961554  1
  Zn  Zn125  1  0.07004110  0.56155426  0.80759322  1
  Zn  Zn126  1  0.56186359  0.06778927  0.31595037  1
  Zn  Zn127  1  0.57307664  0.06009444  0.82269964  1
  Zn  Zn128  1  0.56181956  0.56371902  0.31189848  1
  Zn  Zn129  1  0.56348981  0.56836003  0.81148116  1
  Zn  Zn130  1  0.43080065  0.19265980  0.43868194  1
  Zn  Zn131  1  0.46316285  0.17711579  0.92531359  1
  Zn  Zn132  1  0.43308039  0.68149995  0.43000137  1
  Zn  Zn133  1  0.43402658  0.69380426  0.93669636  1
  Zn  Zn134  1  0.93789547  0.18166521  0.44050410  1
  Zn  Zn135  1  0.93450095  0.18840051  0.93612243  1
  Zn  Zn136  1  0.93432482  0.68278385  0.43176983  1
  Zn  Zn137  1  0.93500117  0.69980798  0.93006227  1
  Zn  Zn138  1  0.06419877  0.30885068  0.06707604  1
  Zn  Zn139  1  0.06235246  0.31618010  0.57079075  1
  Zn  Zn140  1  0.07380774  0.81741672  0.06012614  1
  Zn  Zn141  1  0.04033575  0.79527825  0.52447302  1
  Zn  Zn142  1  0.69073858  0.31037805  0.07310717  1
  Zn  Zn143  1  0.55919929  0.31208826  0.55657265  1
  Zn  Zn144  1  0.56808070  0.81049045  0.06360037  1
  Zn  Zn145  1  0.56049367  0.82279676  0.56628791  1
  O  O146  1  0.11818636  0.11856222  0.11624056  1
  O  O147  1  0.10765357  0.11518337  0.63131471  1
  O  O148  1  0.13384184  0.60683402  0.13056545  1
  O  O149  1  0.11138362  0.61797483  0.62706361  1
  O  O150  1  0.60791505  0.10178913  0.13997658  1
  O  O151  1  0.62720211  0.12401407  0.60726154  1
  O  O152  1  0.62832046  0.61213464  0.11508223  1
  O  O153  1  0.61112636  0.62158614  0.62643204  1
  O  O154  1  0.36810246  0.38763869  0.37504205  1
  O  O155  1  0.37416504  0.39936677  0.87325903  1
  O  O156  1  0.36178093  0.89158417  0.38771964  1
  O  O157  1  0.39754824  0.87590004  0.86600401  1
  O  O158  1  0.86617363  0.38251807  0.39018601  1
  O  O159  1  0.86854551  0.38823967  0.88353069  1
  O  O160  1  0.86804281  0.88522754  0.39214081  1
  O  O161  1  0.89767132  0.86614783  0.87544223  1
  O  O162  1  0.24815079  0.01544343  0.37194403  1
  O  O163  1  0.25771110  -0.02351092  0.85768871  1
  O  O164  1  0.25523254  0.50402212  0.36355467  1
  O  O165  1  0.25858508  0.52039499  0.86043738  1
  O  O166  1  0.75913027  0.00235952  0.37984019  1
  O  O167  1  0.74204853  0.02021741  0.87841234  1
  O  O168  1  0.75544047  0.50895088  0.36972570  1
  O  O169  1  0.76122303  0.50808356  0.86451384  1
  O  O170  1  0.24012530  0.48943655  0.13057972  1
  O  O171  1  0.25101322  0.51323671  0.63731236  1
  O  O172  1  0.24114261  0.99689646  0.13626704  1
  O  O173  1  0.23597558  0.99460951  0.62855712  1
  O  O174  1  0.74855362  0.50345145  0.13763751  1
  O  O175  1  0.75167329  0.49446664  0.63743272  1
  O  O176  1  0.73511987  0.99486463  0.12323436  1
  O  O177  1  0.72504189  1.00635119  0.61020900  1
  O  O178  1  0.01115567  0.36045766  0.24373453  1
  O  O179  1  0.00248471  0.38325127  0.75958009  1
  O  O180  1  0.01290242  0.87787752  0.24694938  1
  O  O181  1  0.01405975  0.87475772  0.75429798  1
  O  O182  1  0.51216038  0.38627011  0.24935689  1
  O  O183  1  0.50736959  0.37578177  0.74638737  1
  O  O184  1  0.50595956  0.85956266  0.25409949  1
  O  O185  1  0.49494596  0.86207214  0.74631898  1
  O  O186  1  0.48374240  0.11590635  0.24139103  1
  O  O187  1  0.49453221  0.11067520  0.74760752  1
  O  O188  1  0.48731425  0.62943267  0.25014671  1
  O  O189  1  0.49428159  0.63616392  0.74169154  1
  O  O190  1  1.00573647  0.13532132  0.23978872  1
  O  O191  1  0.98432556  0.11702998  0.73638681  1
  O  O192  1  0.98039643  0.62249687  0.25931587  1
  O  O193  1  0.99242663  0.61317005  0.73313915  1
  O  O194  1  0.40371776  0.27337531  -0.00579526  1
  O  O195  1  0.37122338  0.26873009  0.49853269  1
  O  O196  1  0.37482777  0.75578384  0.00524595  1
  O  O197  1  0.37356835  0.76196628  0.48802102  1
  O  O198  1  0.86400473  0.26050859  -0.00015063  1
  O  O199  1  0.87900140  0.26145482  0.50627265  1
  O  O200  1  0.87287042  0.76600132  -0.00517458  1
  O  O201  1  0.87373648  0.76082028  0.50782828  1
  O  O202  1  0.12950314  0.25979404  0.48910491  1
  O  O203  1  0.12819106  0.23731920  1.00072755  1
  O  O204  1  0.14176008  0.76703335  0.49188997  1
  O  O205  1  0.13303149  0.75242985  0.98384142  1
  O  O206  1  0.62359739  0.25350886  0.48147846  1
  O  O207  1  0.62855949  0.26114084  0.99037793  1
  O  O208  1  0.61522992  0.75363215  0.48944760  1
  O  O209  1  0.63339215  0.73328499  1.00524029  1
  O  O210  1  0.50866165  0.22685192  0.12282022  1
  O  O211  1  0.51224215  0.25413391  0.63994357  1
  O  O212  1  0.50400034  0.74842256  0.13875564  1
  O  O213  1  0.50198790  0.73993279  0.63025650  1
  O  O214  1  0.99733184  0.23791992  0.13560090  1
  O  O215  1  0.99133599  0.23409913  0.61686491  1
  O  O216  1  1.00897234  0.71187617  0.09260219  1
  O  O217  1  0.99227655  0.73158020  0.61343580  1
  O  O218  1  0.01442129  0.23644029  0.36741152  1
  O  O219  1  -0.00328846  0.29240215  0.91666291  1
  O  O220  1  0.01542241  0.75636936  0.41418735  1
  O  O221  1  0.01948741  0.75214835  0.87138985  1
  O  O222  1  0.50602842  0.25339665  0.36960047  1
  O  O223  1  0.52295798  0.25081970  0.86518922  1
  O  O224  1  0.51342229  0.73663574  0.36697998  1
  O  O225  1  0.50268871  0.75844961  0.86228326  1
  O  O226  1  0.25395677  0.13536990  0.48830562  1
  O  O227  1  0.23692044  0.12085085  0.99825856  1
  O  O228  1  0.25599579  0.61862190  0.48332477  1
  O  O229  1  0.25345898  0.62905531  0.98275184  1
  O  O230  1  0.73007873  0.12693777  0.48089256  1
  O  O231  1  0.76155823  0.13036035  0.99136437  1
  O  O232  1  0.75215838  0.61625654  0.48868672  1
  O  O233  1  0.75546084  0.62393288  0.98744293  1
  O  O234  1  0.24056955  0.37144693  0.00494620  1
  O  O235  1  0.25885890  0.37345951  0.50776009  1
  O  O236  1  0.24448096  0.87974657  0.02005530  1
  O  O237  1  0.25717136  0.88259906  0.51204158  1
  O  O238  1  0.76006840  0.38195610  0.00780715  1
  O  O239  1  0.76389909  0.38518174  0.51454366  1
  O  O240  1  0.76366726  0.87188924  -0.00857145  1
  O  O241  1  0.75708273  0.87599309  0.50519407  1
  O  O242  1  0.13108796  0.48872402  0.24946850  1
  O  O243  1  0.14355504  0.49280795  0.75077175  1
  O  O244  1  0.13162814  0.99732420  0.24377887  1
  O  O245  1  0.13241036  0.98617072  0.74339983  1
  O  O246  1  0.63178020  0.50067242  0.24148898  1
  O  O247  1  0.64242056  0.50648459  0.75063983  1
  O  O248  1  0.61235820  0.98218624  0.25489987  1
  O  O249  1  0.62732279  1.00059771  0.74197423  1
  O  O250  1  0.36314656  0.00462778  0.26503695  1
  O  O251  1  0.36155400  0.01769298  0.73003341  1
  O  O252  1  0.36882380  0.50675476  0.25287764  1
  O  O253  1  0.37021095  0.51767478  0.75628957  1
  O  O254  1  0.87739494  -0.00812795  0.27021089  1
  O  O255  1  0.87148619  0.00628083  0.74783634  1
  O  O256  1  0.86467022  0.49623627  0.25758707  1
  O  O257  1  0.86812380  0.50782085  0.75849865  1
  O  O258  1  0.13211396  0.35952394  0.36411651  1
  O  O259  1  0.14270223  0.37413044  0.85612325  1
  O  O260  1  0.12939689  0.88147509  0.35862674  1
  O  O261  1  0.12313338  0.86430050  0.86448338  1
  O  O262  1  0.62575023  0.36744191  0.36336568  1
  O  O263  1  0.64061930  0.36647821  0.87120817  1
  O  O264  1  0.62770487  0.85923417  0.37002549  1
  O  O265  1  0.60680482  0.88174055  0.86266075  1
  O  O266  1  0.38046523  0.11972663  0.13725528  1
  O  O267  1  0.33326446  0.15224389  0.64791658  1
  O  O268  1  0.36717123  0.62231889  0.14005439  1
  O  O269  1  0.38787498  0.62421117  0.63528992  1
  O  O270  1  0.88848817  0.11849858  0.11905679  1
  O  O271  1  0.87321601  0.13158424  0.63469393  1
  O  O272  1  0.86882775  0.62545376  0.14311859  1
  O  O273  1  0.88123250  0.63028941  0.62859993  1
  O  O274  1  0.24398887  0.26313717  0.12880055  1
  O  O275  1  0.27200925  0.21411710  0.64650369  1
  O  O276  1  0.24629929  0.76265233  0.13299640  1
  O  O277  1  0.24909568  0.76331125  0.62230911  1
  O  O278  1  0.75355373  0.25312351  0.15307142  1
  O  O279  1  0.75683657  0.26456808  0.63053912  1
  O  O280  1  0.74252188  0.75860406  0.12797960  1
  O  O281  1  0.76217667  0.73769665  0.62062224  1
  O  O282  1  0.23771462  0.23880801  0.36853770  1
  O  O283  1  0.26274777  0.24319831  0.84716228  1
  O  O284  1  0.25182500  0.73260416  0.36544537  1
  O  O285  1  0.24451550  0.74368234  0.86625777  1
  O  O286  1  0.74750565  0.24311497  0.36622629  1
  O  O287  1  0.73940298  0.23873138  0.86789265  1
  O  O288  1  0.73733955  0.73527378  0.37687666  1
  O  O289  1  0.75577096  0.73161649  0.86870896  1
  O  O290  1  0.00742932  0.13170652  0.01298785  1
  O  O291  1  -0.01463013  0.10857716  0.51957689  1
  O  O292  1  0.00017865  0.66023960  0.03822290  1
  O  O293  1  -0.00818945  0.60785403  0.50956183  1
  O  O294  1  0.49036973  0.10743677  0.01439107  1
  O  O295  1  0.51209498  0.13754630  0.49444996  1
  O  O296  1  0.51497091  0.62972793  -0.00850224  1
  O  O297  1  0.48987740  0.61630871  0.51129909  1
  O  O298  1  0.48721561  0.38975513  0.50359866  1
  O  O299  1  0.44599876  0.33272527  1.00495750  1
  O  O300  1  0.47958095  0.87660953  0.50438388  1
  O  O301  1  0.50236072  0.87775299  0.99207465  1
  O  O302  1  0.98487030  0.38455448  0.50748950  1
  O  O303  1  0.98910751  0.34651551  0.97693214  1
  O  O304  1  0.98181052  0.89303589  0.50986700  1
  O  O305  1  0.99792097  0.86997738  0.98929826  1
  O  O306  1  0.49064398  0.51130087  0.38869896  1
  O  O307  1  0.48827328  0.51190637  0.87155725  1
  O  O308  1  0.48133077  1.00587347  0.37412538  1
  O  O309  1  0.50364464  0.99359503  0.89543315  1
  O  O310  1  0.98766102  0.50419357  0.38720152  1
  O  O311  1  0.98971576  0.50764304  0.87229511  1
  O  O312  1  0.98697790  1.01264477  0.39176967  1
  O  O313  1  1.01175660  0.98136211  0.87292256  1
  O  O314  1  0.00985306  0.01421382  0.13315692  1
  O  O315  1  0.00474025  0.00440324  0.62174889  1
  O  O316  1  0.01510954  0.49763580  0.12607505  1
  O  O317  1  -0.00280041  0.50652920  0.61240565  1
  O  O318  1  0.50344447  -0.00593745  0.11516563  1
  O  O319  1  0.51983948  0.00212663  0.62024990  1
  O  O320  1  0.51052829  0.49933784  0.12202083  1
  O  O321  1  0.50288079  0.51101275  0.61344289  1
  O  O322  1  0.24039942  0.38217743  0.24205251  1
  O  O323  1  0.26953178  0.39358087  0.74296288  1
  O  O324  1  0.24178842  0.88420887  0.24496230  1
  O  O325  1  0.24643861  0.88160256  0.73435063  1
  O  O326  1  0.73648497  0.39525707  0.25729406  1
  O  O327  1  0.75915503  0.38780761  0.73878302  1
  O  O328  1  0.73155829  0.87150076  0.25598365  1
  O  O329  1  0.76166376  0.87655586  0.74606068  1
  O  O330  1  0.25770933  0.11745410  0.25450595  1
  O  O331  1  0.23244461  0.09995524  0.76279452  1
  O  O332  1  0.25988822  0.61413418  0.25450517  1
  O  O333  1  0.26445725  0.62747647  0.74761301  1
  O  O334  1  0.73761128  0.11446156  0.27298710  1
  O  O335  1  0.76151205  0.12513788  0.75108272  1
  O  O336  1  0.75603801  0.61317614  0.26119697  1
  O  O337  1  0.75917345  0.61528700  0.75769542  1
  O  O338  1  0.36335899  0.11978703  0.36746666  1
  O  O339  1  0.38456997  0.12115287  0.85915649  1
  O  O340  1  0.36436126  0.61193444  0.36461000  1
  O  O341  1  0.36727338  0.62699476  0.86306625  1
  O  O342  1  0.86060885  0.11502749  0.38375436  1
  O  O343  1  0.86921412  0.13262498  0.85935954  1
  O  O344  1  0.86170103  0.61661858  0.36970429  1
  O  O345  1  0.87195148  0.61675319  0.86996454  1
  O  O346  1  0.13173364  0.38280373  0.12941192  1
  O  O347  1  0.12196893  0.37705205  0.64696291  1
  O  O348  1  0.13055554  0.88223481  0.13717641  1
  O  O349  1  0.13149686  0.88004959  0.63349325  1
  O  O350  1  0.62821278  0.38996152  0.13760224  1
  O  O351  1  0.64232150  0.37863877  0.61588207  1
  O  O352  1  0.62159764  0.88445120  0.13989339  1
  O  O353  1  0.62622341  0.88480240  0.63219947  1
  O  O354  1  0.11649275  0.25435196  0.25701360  1
  O  O355  1  0.10566502  0.25937678  0.74903079  1
  O  O356  1  0.12288701  0.76070626  0.25653056  1
  O  O357  1  0.13149114  0.76243587  0.74990625  1
  O  O358  1  0.62385206  0.26577804  0.25547178  1
  O  O359  1  0.61981222  0.25025771  0.75624139  1
  O  O360  1  0.61304343  0.75373438  0.25721293  1
  O  O361  1  0.61344517  0.75172101  0.74590234  1
  O  O362  1  0.37173513  0.23405618  0.25515996  1
  O  O363  1  0.40860778  0.23923468  0.75478789  1
  O  O364  1  0.38718346  0.73886692  0.25813533  1
  O  O365  1  0.38519460  0.74095569  0.75078100  1
  O  O366  1  0.89316167  0.25592635  0.25404862  1
  O  O367  1  0.87757018  0.25148887  0.73918670  1
  O  O368  1  0.87179536  0.74159105  0.25951168  1
  O  O369  1  0.87652570  0.73565200  0.73575450  1
  O  O370  1  0.37938226  0.48945214  0.49294111  1
  O  O371  1  0.37426839  0.51265523  0.98565203  1
  O  O372  1  0.36924208  1.00762862  0.49091991  1
  O  O373  1  0.38108133  0.99125902  1.00543198  1
  O  O374  1  0.88174294  0.49069021  0.49351928  1
  O  O375  1  0.87850968  0.49280555  0.98818610  1
  O  O376  1  0.87571975  0.99068194  0.50039252  1
  O  O377  1  0.87807236  0.98164356  0.98918262  1
  O  O378  1  0.12730940  0.00682748  0.01221775  1
  O  O379  1  0.10789381  -0.00688783  0.50868052  1
  O  O380  1  0.12487709  0.50248922  0.00697210  1
  O  O381  1  0.10899748  0.48616705  0.49855223  1
  O  O382  1  0.61835316  -0.01044659  0.01471825  1
  O  O383  1  0.61228410  0.01496136  0.48884277  1
  O  O384  1  0.63014644  0.50784363  0.01223814  1
  O  O385  1  0.61031577  0.49237353  0.49555526  1
  O  O386  1  0.35463296  0.37782999  0.12507399  1
  O  O387  1  0.37580822  0.38118208  0.61765010  1
  O  O388  1  0.36009089  0.87931512  0.13740033  1
  O  O389  1  0.36354111  0.87940243  0.61320882  1
  O  O390  1  0.88936097  0.37474563  0.10370079  1
  O  O391  1  0.86920686  0.36835952  0.61772040  1
  O  O392  1  0.87621274  0.88167084  0.11088765  1
  O  O393  1  0.87625598  0.85778020  0.61949911  1
  O  O394  1  0.13567042  0.13349565  0.37233726  1
  O  O395  1  0.11406398  0.12011984  0.89042386  1
  O  O396  1  0.14096962  0.62054444  0.36722697  1
  O  O397  1  0.13988938  0.63742922  0.86341792  1
  O  O398  1  0.62549732  0.14245821  0.37648974  1
  O  O399  1  0.63639849  0.13523611  0.88229443  1
  O  O400  1  0.63457963  0.63098252  0.37440692  1
  O  O401  1  0.64087927  0.61551077  0.88819542  1
