# generated using pymatgen
data_V73Zn73O256
_symmetry_space_group_name_H-M   'P 1'
_cell_length_a   16.90245740
_cell_length_b   16.92499627
_cell_length_c   16.85848134
_cell_angle_alpha   90.17438623
_cell_angle_beta   90.28731754
_cell_angle_gamma   90.14533757
_symmetry_Int_Tables_number   1
_chemical_formula_structural   V73Zn73O256
_chemical_formula_sum   'V73 Zn73 O256'
_cell_volume   4822.67499120
_cell_formula_units_Z   1
loop_
 _symmetry_equiv_pos_site_id
 _symmetry_equiv_pos_as_xyz
  1  'x, y, z'
loop_
 _atom_site_type_symbol
 _atom_site_label
 _atom_site_symmetry_multiplicity
 _atom_site_fract_x
 _atom_site_fract_y
 _atom_site_fract_z
 _atom_site_occupancy
  V  V0  1  0.13235701  -0.00020907  0.13442501  1
  V  V1  1  0.86809624  0.25678989  0.11546301  1
  V  V2  1  0.61860456  0.85381649  0.25033820  1
  V  V3  1  0.24898987  0.24880618  0.50325769  1
  V  V4  1  0.86147516  0.01351922  0.36337568  1
  V  V5  1  0.61801908  0.87027755  0.75191115  1
  V  V6  1  0.85445477  0.63173905  0.75826552  1
  V  V7  1  0.37957991  0.24823065  0.63348127  1
  V  V8  1  0.12462121  0.12094736  0.51023244  1
  V  V9  1  0.50221936  -0.00439088  0.00136952  1
  V  V10  1  0.36708566  0.51365295  0.88003137  1
  V  V11  1  -0.00372196  0.74788614  0.24312114  1
  V  V12  1  0.38116883  0.62370103  0.73335252  1
  V  V13  1  0.76592756  0.25019070  0.49523393  1
  V  V14  1  -0.01097280  0.12525600  0.13388090  1
  V  V15  1  0.00066094  -0.00014554  0.50824643  1
  V  V16  1  0.37126783  -0.00473155  0.36813548  1
  V  V17  1  0.86954759  0.87307692  0.50612316  1
  V  V18  1  0.50099901  0.50083442  0.50767753  1
  V  V19  1  0.76700141  0.36935997  0.63098228  1
  V  V20  1  -0.00101081  0.63492409  0.63532939  1
  V  V21  1  0.13187085  0.88175157  0.25744369  1
  V  V22  1  0.74306613  0.86351830  0.12881367  1
  V  V23  1  0.13644976  0.62976207  -0.00295090  1
  V  V24  1  0.35452562  0.25167915  0.12552571  1
  V  V25  1  0.49762485  -0.00615090  0.49686781  1
  V  V26  1  0.13131130  0.13208296  0.00372706  1
  V  V27  1  0.87141863  0.87752768  -0.00486851  1
  V  V28  1  -0.01301114  0.13944229  0.63475138  1
  V  V29  1  0.39098917  0.76486382  0.61914874  1
  V  V30  1  -0.02309317  0.37982946  0.38184891  1
  V  V31  1  0.62184498  0.61102601  -0.00269406  1
  V  V32  1  0.24823579  0.12082282  0.37006644  1
  V  V33  1  0.67843842  0.04140872  0.17700371  1
  V  V34  1  -0.00535393  0.87582433  0.37004147  1
  V  V35  1  -0.00500142  0.51136675  0.02579827  1
  V  V36  1  0.62689230  0.62372113  0.48674070  1
  V  V37  1  0.24820836  0.13384387  0.86944905  1
  V  V38  1  0.36612537  -0.00202954  0.86892217  1
  V  V39  1  0.75515137  0.73879291  0.49404980  1
  V  V40  1  0.62215013  0.50261529  0.13907060  1
  V  V41  1  0.24967009  0.63111638  0.36582789  1
  V  V42  1  -0.00576979  0.00331375  -0.00744775  1
  V  V43  1  0.74864811  0.37370306  0.11531736  1
  V  V44  1  -0.01725819  0.38929989  0.88071673  1
  V  V45  1  -0.01083906  0.49793845  0.50388053  1
  V  V46  1  0.63138138  -0.00375328  0.62428265  1
  V  V47  1  0.35343992  0.87006087  0.01082519  1
  V  V48  1  0.63067094  0.50164887  0.63490374  1
  V  V49  1  0.49497610  0.86163973  0.37019926  1
  V  V50  1  0.25135330  0.75750082  0.50367184  1
  V  V51  1  0.75350773  0.73806676  -0.00941422  1
  V  V52  1  0.64401563  0.24275647  0.86680985  1
  V  V53  1  0.38682789  0.62780566  0.23732540  1
  V  V54  1  0.36843411  0.49871568  0.36704253  1
  V  V55  1  0.49942925  0.36180282  0.36944812  1
  V  V56  1  0.50257021  0.12656730  0.63161794  1
  V  V57  1  0.12419732  0.26134793  0.37573254  1
  V  V58  1  0.63269004  0.12498588  -0.00980243  1
  V  V59  1  0.13028461  0.61852243  0.50292615  1
  V  V60  1  0.22863783  0.38947896  0.13683856  1
  V  V61  1  0.24250076  0.38942373  0.62948401  1
  V  V62  1  0.75900190  0.00448877  0.76637387  1
  V  V63  1  0.63009612  0.13290625  0.48981146  1
  V  V64  1  0.12438742  0.38811852  0.76121989  1
  V  V65  1  0.62863811  0.35680474  0.25634618  1
  V  V66  1  0.00997606  0.86210863  0.86923875  1
  V  V67  1  0.37399319  0.37328493  0.50317944  1
  V  V68  1  -0.00926264  0.25113200  0.25654212  1
  V  V69  1  0.61642491  0.74090913  0.87063234  1
  V  V70  1  0.49001232  0.35679579  0.87154799  1
  V  V71  1  0.49674030  0.12926172  0.12861353  1
  V  V72  1  0.18685500  0.93795446  0.68016686  1
  Zn  Zn73  1  0.87687527  0.74703088  0.12723824  1
  Zn  Zn74  1  0.38091143  0.12641002  0.25405948  1
  Zn  Zn75  1  0.37189966  0.12310471  0.74774987  1
  Zn  Zn76  1  0.48985929  0.86369765  0.87303332  1
  Zn  Zn77  1  0.61995160  0.35886147  0.74280258  1
  Zn  Zn78  1  0.12094798  0.25703101  0.87112913  1
  Zn  Zn79  1  0.35453745  0.36700788  -0.00327141  1
  Zn  Zn80  1  0.49280979  0.48813883  0.00302410  1
  Zn  Zn81  1  0.75952566  0.86645704  0.63511621  1
  Zn  Zn82  1  0.17726638  0.19210843  0.19326753  1
  Zn  Zn83  1  0.18064837  0.19618336  0.69073794  1
  Zn  Zn84  1  0.20212098  0.72609130  0.12116106  1
  Zn  Zn85  1  0.21019953  0.66466448  0.67796069  1
  Zn  Zn86  1  0.68094365  0.20022906  0.18811214  1
  Zn  Zn87  1  0.69782680  0.18479469  0.68417913  1
  Zn  Zn88  1  0.54357080  0.68183520  0.17304769  1
  Zn  Zn89  1  0.68340065  0.68828850  0.67816654  1
  Zn  Zn90  1  0.31377397  0.30622932  0.30704424  1
  Zn  Zn91  1  0.30467343  0.31333739  0.81218181  1
  Zn  Zn92  1  0.30761390  0.79897863  0.28731843  1
  Zn  Zn93  1  0.32017888  0.81721693  0.79282090  1
  Zn  Zn94  1  0.80909496  0.30547365  0.31243807  1
  Zn  Zn95  1  0.80557572  0.44633004  0.79826762  1
  Zn  Zn96  1  0.81227965  0.80796731  0.31568637  1
  Zn  Zn97  1  0.81490180  0.81295144  0.80923024  1
  Zn  Zn98  1  0.14519938  0.47843514  0.37362410  1
  Zn  Zn99  1  0.18486560  0.44714780  0.95351361  1
  Zn  Zn100  1  0.18578213  0.93911741  0.44133230  1
  Zn  Zn101  1  0.18363405  0.94415874  0.93762263  1
  Zn  Zn102  1  0.67359997  0.41576321  0.45664453  1
  Zn  Zn103  1  0.68166368  0.42225728  0.93364014  1
  Zn  Zn104  1  0.68477972  0.93573213  0.43196204  1
  Zn  Zn105  1  0.68601473  0.93251034  0.93511011  1
  Zn  Zn106  1  0.31471635  0.05705960  0.06120868  1
  Zn  Zn107  1  0.31467792  0.05784258  0.55958173  1
  Zn  Zn108  1  0.30589708  0.55104880  0.06411216  1
  Zn  Zn109  1  0.31515727  0.56354951  0.55597497  1
  Zn  Zn110  1  0.81564809  0.06300811  0.06105479  1
  Zn  Zn111  1  0.81341306  0.06168477  0.56251213  1
  Zn  Zn112  1  0.81585769  0.55356752  -0.06290444  1
  Zn  Zn113  1  0.81435768  0.56259914  0.57421820  1
  Zn  Zn114  1  0.43754257  0.42993768  0.18490288  1
  Zn  Zn115  1  0.43715341  0.43938457  0.69695606  1
  Zn  Zn116  1  0.43661528  0.93754022  0.18767034  1
  Zn  Zn117  1  0.43912483  0.94038872  0.68637243  1
  Zn  Zn118  1  1.05627141  0.43272674  0.20348659  1
  Zn  Zn119  1  0.94870367  0.45195222  0.69153651  1
  Zn  Zn120  1  0.93053517  0.94141736  0.18366980  1
  Zn  Zn121  1  0.94475070  0.93947084  0.69084003  1
  Zn  Zn122  1  0.05641929  0.06489282  0.32105333  1
  Zn  Zn123  1  0.06662757  0.05816902  0.80726075  1
  Zn  Zn124  1  0.10451033  0.59168037  0.21454457  1
  Zn  Zn125  1  0.07258217  0.56160756  0.81788245  1
  Zn  Zn126  1  0.56271786  0.05530947  0.31435096  1
  Zn  Zn127  1  0.56246950  0.05617118  0.81271848  1
  Zn  Zn128  1  0.55973741  0.55102873  0.32003364  1
  Zn  Zn129  1  0.54831222  0.55845769  0.81674817  1
  Zn  Zn130  1  0.43712787  0.18000148  0.44391512  1
  Zn  Zn131  1  0.43553845  0.18405061  0.94568653  1
  Zn  Zn132  1  0.43671810  0.68451034  0.44233121  1
  Zn  Zn133  1  0.43988393  0.69355884  0.98791533  1
  Zn  Zn134  1  0.93939291  0.18431710  0.44152818  1
  Zn  Zn135  1  0.94933643  0.20376689  0.94275707  1
  Zn  Zn136  1  0.94607515  0.68885403  0.43667771  1
  Zn  Zn137  1  0.94861084  0.67918067  0.93634730  1
  Zn  Zn138  1  0.05425187  0.31784588  0.05684157  1
  Zn  Zn139  1  0.06069798  0.31563568  0.56565042  1
  Zn  Zn140  1  0.06396825  0.81396960  0.05956395  1
  Zn  Zn141  1  0.07046868  0.80867915  0.55628466  1
  Zn  Zn142  1  0.56402642  0.30917924  0.05686603  1
  Zn  Zn143  1  0.56307091  0.31198460  0.56496272  1
  Zn  Zn144  1  0.56312513  0.81368877  0.05713451  1
  Zn  Zn145  1  0.56971729  0.80973015  0.55592215  1
  O  O146  1  0.11264758  0.12094773  0.11860531  1
  O  O147  1  0.12118700  0.13246040  0.61302905  1
  O  O148  1  0.14019702  0.63331289  0.12112354  1
  O  O149  1  0.12654030  0.62212047  0.60858668  1
  O  O150  1  0.61879925  0.11380082  0.11645868  1
  O  O151  1  0.61857375  0.11389691  0.61778099  1
  O  O152  1  0.62487188  0.60752842  0.11735583  1
  O  O153  1  0.63138946  0.60627683  0.61029824  1
  O  O154  1  0.37903470  0.37979986  0.38108991  1
  O  O155  1  0.38109028  0.37123186  0.87658894  1
  O  O156  1  0.38924848  0.88038666  0.36057597  1
  O  O157  1  0.37036725  0.88737530  0.87694468  1
  O  O158  1  0.87852908  0.37278599  0.38090191  1
  O  O159  1  0.88499061  0.38340741  0.86548851  1
  O  O160  1  0.88192845  0.88433394  0.38256055  1
  O  O161  1  0.88194224  0.86929348  0.89150172  1
  O  O162  1  0.26132533  0.01003876  0.38958309  1
  O  O163  1  0.26094530  0.01240149  0.88130047  1
  O  O164  1  0.26568137  0.50721377  0.38058600  1
  O  O165  1  0.26860927  0.49138345  0.88296852  1
  O  O166  1  0.76222436  -0.00244612  0.37894794  1
  O  O167  1  0.74913054  -0.00295645  0.86728656  1
  O  O168  1  0.80885289  0.53045355  0.32112572  1
  O  O169  1  0.74246301  0.49465705  0.87727600  1
  O  O170  1  0.24648239  0.48752132  0.14136928  1
  O  O171  1  0.25433694  0.48680688  0.61603567  1
  O  O172  1  0.23079188  1.01312564  0.12827375  1
  O  O173  1  0.24687236  0.99582050  0.61981205  1
  O  O174  1  0.72834875  0.47664923  0.12642792  1
  O  O175  1  0.73813954  0.48534151  0.61659597  1
  O  O176  1  0.74638762  0.98534667  0.12128061  1
  O  O177  1  0.73795714  0.99183094  0.62341304  1
  O  O178  1  -0.00326678  0.36410991  0.27377357  1
  O  O179  1  0.01574294  0.38665651  0.76261966  1
  O  O180  1  -0.00344118  0.88108820  0.26204939  1
  O  O181  1  -0.00769607  0.87739347  0.77080237  1
  O  O182  1  0.50470083  0.37410286  0.26460092  1
  O  O183  1  0.50342879  0.37482927  0.76543932  1
  O  O184  1  0.50957166  0.87671198  0.25586135  1
  O  O185  1  0.51254032  0.88149266  0.75700971  1
  O  O186  1  0.50475563  0.11182560  0.23134536  1
  O  O187  1  0.49847938  0.11531786  0.73438776  1
  O  O188  1  0.49438669  0.61185753  0.24938136  1
  O  O189  1  0.47965823  0.63231718  0.76426920  1
  O  O190  1  1.00158171  0.13293779  0.24097931  1
  O  O191  1  1.00880601  0.12205947  0.73326043  1
  O  O192  1  1.01228051  0.65107417  0.25612590  1
  O  O193  1  1.01877935  0.62344153  0.73408700  1
  O  O194  1  0.37886575  0.24961165  0.02113125  1
  O  O195  1  0.36826840  0.25521244  0.50745769  1
  O  O196  1  0.36152561  0.77256611  -0.01691576  1
  O  O197  1  0.36475373  0.74003549  0.51119782  1
  O  O198  1  0.87562518  0.25095182  0.01606239  1
  O  O199  1  0.86466623  0.24384454  0.50397063  1
  O  O200  1  0.86368814  0.75347081  0.00446090  1
  O  O201  1  0.86718600  0.76074577  0.49433725  1
  O  O202  1  0.13366932  0.24407054  0.49645777  1
  O  O203  1  0.11605472  0.23251493  1.00268537  1
  O  O204  1  0.14084757  0.73452559  0.49433388  1
  O  O205  1  0.13898711  0.74169028  1.01939283  1
  O  O206  1  0.62326012  0.23521173  0.50180952  1
  O  O207  1  0.62089675  0.22979707  0.99038574  1
  O  O208  1  0.63017266  0.72927645  0.49552283  1
  O  O209  1  0.63734840  0.73827205  0.99241551  1
  O  O210  1  0.50667009  0.22995854  0.12213349  1
  O  O211  1  0.49038131  0.23935672  0.61798254  1
  O  O212  1  0.49321116  0.73439717  0.08881917  1
  O  O213  1  0.49006330  0.74842975  0.60933064  1
  O  O214  1  0.98715859  0.24799949  0.13372336  1
  O  O215  1  0.99902101  0.23905868  0.62067358  1
  O  O216  1  0.99416814  0.76359411  0.13793940  1
  O  O217  1  1.00869623  0.73273681  0.61523637  1
  O  O218  1  0.00372744  0.25900208  0.37828996  1
  O  O219  1  0.00795957  0.27976060  0.88616199  1
  O  O220  1  -0.00414649  0.77056289  0.36835991  1
  O  O221  1  0.00398789  0.76356997  0.88559373  1
  O  O222  1  0.48954065  0.26362148  0.38249053  1
  O  O223  1  0.49171307  0.25378611  0.87336198  1
  O  O224  1  0.49467034  0.76344750  0.38084177  1
  O  O225  1  0.51655941  0.74825083  0.88988385  1
  O  O226  1  0.24462471  0.13335236  0.49513392  1
  O  O227  1  0.23435405  0.11952650  0.99761266  1
  O  O228  1  0.24386954  0.62696654  0.49161584  1
  O  O229  1  0.23794026  0.61662187  1.00121812  1
  O  O230  1  0.73767964  0.13655309  0.51082243  1
  O  O231  1  0.73102978  0.11247319  1.00344702  1
  O  O232  1  0.74649940  0.63211638  0.50366348  1
  O  O233  1  0.74514059  0.63502368  0.99931935  1
  O  O234  1  0.24121452  0.37484974  0.02702208  1
  O  O235  1  0.26218066  0.36399025  0.51164324  1
  O  O236  1  0.25451269  0.88889102  0.00642987  1
  O  O237  1  0.24565897  0.85543137  0.48747278  1
  O  O238  1  0.73269484  0.36191102  0.01799427  1
  O  O239  1  0.75143774  0.36101614  0.51245599  1
  O  O240  1  0.75238603  0.86841158  0.00688334  1
  O  O241  1  0.76280353  0.87200889  0.49962930  1
  O  O242  1  0.12317079  0.49759256  0.26590741  1
  O  O243  1  0.13547917  0.48831496  0.75135814  1
  O  O244  1  0.11463523  0.99985963  0.24144985  1
  O  O245  1  0.13075700  0.99614634  0.74194554  1
  O  O246  1  0.62120437  0.48938124  0.24142517  1
  O  O247  1  0.61775856  0.50629378  0.73518272  1
  O  O248  1  0.62389842  0.98490998  0.24199461  1
  O  O249  1  0.63173882  0.98977181  0.74402911  1
  O  O250  1  0.37768827  0.00542579  0.26277723  1
  O  O251  1  0.37901385  0.00343710  0.76519277  1
  O  O252  1  0.38157290  0.49775688  0.26490701  1
  O  O253  1  0.37938111  0.51350749  0.76387103  1
  O  O254  1  0.87341599  -0.00149192  0.26341365  1
  O  O255  1  0.85618970  -0.01287561  0.74567096  1
  O  O256  1  0.87149434  0.56780947  0.33785121  1
  O  O257  1  0.87752990  0.52071097  0.74776759  1
  O  O258  1  0.12717396  0.36134244  0.38477914  1
  O  O259  1  0.13646255  0.38046786  0.86721115  1
  O  O260  1  0.10351338  0.89399179  0.36768621  1
  O  O261  1  0.10833043  0.88291335  0.88347668  1
  O  O262  1  0.61063645  0.37916764  0.36830667  1
  O  O263  1  0.61407397  0.35153961  0.87270642  1
  O  O264  1  0.61596710  0.87445359  0.35754902  1
  O  O265  1  0.62186532  0.85941185  0.86974087  1
  O  O266  1  0.38502533  0.12934752  0.12318163  1
  O  O267  1  0.38391419  0.13097195  0.62229483  1
  O  O268  1  0.37413115  0.61081445  0.13867506  1
  O  O269  1  0.38142610  0.62170355  0.62949442  1
  O  O270  1  0.88171350  0.13609534  0.12163876  1
  O  O271  1  0.88727501  0.12309975  0.62419037  1
  O  O272  1  0.85753112  0.61704140  0.15348065  1
  O  O273  1  0.89195528  0.62457857  0.63755892  1
  O  O274  1  0.25412781  0.23940568  0.12265861  1
  O  O275  1  0.25865366  0.25227839  0.61564216  1
  O  O276  1  0.27375821  0.78395036  0.17573263  1
  O  O277  1  0.25818515  0.74622566  0.60917256  1
  O  O278  1  0.76059909  0.25416004  0.13157236  1
  O  O279  1  0.74904582  0.26228992  0.61798004  1
  O  O280  1  0.75078351  0.76049897  0.11031081  1
  O  O281  1  0.73769962  0.75799403  0.60282620  1
  O  O282  1  0.24595459  0.24349641  0.38578984  1
  O  O283  1  0.24943125  0.23615742  0.88241935  1
  O  O284  1  0.27093384  0.73409710  0.38464578  1
  O  O285  1  0.20334587  0.75610561  0.84291997  1
  O  O286  1  0.74923371  0.25362152  0.39505503  1
  O  O287  1  0.73845983  0.24860690  0.87872498  1
  O  O288  1  0.74512666  0.75909444  0.39451828  1
  O  O289  1  0.74171782  0.75552698  0.88783190  1
  O  O290  1  0.00334822  0.11760260  0.00605530  1
  O  O291  1  0.00728742  0.11868619  0.50956927  1
  O  O292  1  0.00943737  0.61997183  0.01289469  1
  O  O293  1  0.01259706  0.61944150  0.49973110  1
  O  O294  1  0.50788798  0.11481588  0.00927728  1
  O  O295  1  0.51100797  0.11472390  0.50745883  1
  O  O296  1  0.51996664  0.60964259  -0.00463360  1
  O  O297  1  0.51494501  0.61215432  0.49194215  1
  O  O298  1  0.49112566  0.37802843  0.49298492  1
  O  O299  1  0.50342938  0.36993255  0.98309037  1
  O  O300  1  0.51508402  0.88425680  0.48052230  1
  O  O301  1  0.49782273  0.88875412  0.99308976  1
  O  O302  1  1.00145367  0.38698381  0.49628961  1
  O  O303  1  1.00190236  0.39633644  0.99254149  1
  O  O304  1  0.99244457  0.87939398  0.49011465  1
  O  O305  1  0.99268956  0.88862676  0.99958830  1
  O  O306  1  0.48890680  0.48529412  0.38793695  1
  O  O307  1  0.48824475  0.48336344  0.88099347  1
  O  O308  1  0.49131778  0.99352006  0.38004999  1
  O  O309  1  0.48295739  1.00728664  0.88589641  1
  O  O310  1  0.99795859  0.48164312  0.38627083  1
  O  O311  1  1.00414556  0.49235185  0.88050933  1
  O  O312  1  0.98616240  0.99625631  0.38638000  1
  O  O313  1  1.00205224  1.00226857  0.89121458  1
  O  O314  1  0.00062222  0.01125765  0.11883620  1
  O  O315  1  -0.00382504  0.00714624  0.61182946  1
  O  O316  1  -0.00042902  0.49772408  0.12633745  1
  O  O317  1  0.00742172  0.51163392  0.60832002  1
  O  O318  1  0.49327789  0.00746144  0.10782580  1
  O  O319  1  0.50762136  0.00481196  0.61539917  1
  O  O320  1  0.51960552  0.47928502  0.11843099  1
  O  O321  1  0.50908616  0.49005166  0.61403549  1
  O  O322  1  0.24524607  0.35816257  0.23492592  1
  O  O323  1  0.25118645  0.37801569  0.73374299  1
  O  O324  1  0.22868583  0.88596518  0.27907420  1
  O  O325  1  0.24489557  0.87941264  0.74088381  1
  O  O326  1  0.73251796  0.36753070  0.25116365  1
  O  O327  1  0.74089119  0.37447337  0.73312208  1
  O  O328  1  0.73686894  0.86088737  0.23735862  1
  O  O329  1  0.73697232  0.88039710  0.75026830  1
  O  O330  1  0.24354823  0.12928492  0.26838329  1
  O  O331  1  0.24582454  0.12876293  0.76628376  1
  O  O332  1  0.27162818  0.62435208  0.26595806  1
  O  O333  1  0.27808813  0.63071417  0.75933729  1
  O  O334  1  0.73133521  0.10532552  0.23231863  1
  O  O335  1  0.74549737  0.10262890  0.74474392  1
  O  O336  1  0.79300449  0.60867985  0.18720011  1
  O  O337  1  0.75532798  0.62565977  0.74381556  1
  O  O338  1  0.36684757  0.11760434  0.37540257  1
  O  O339  1  0.36153697  0.11871989  0.87861293  1
  O  O340  1  0.37786658  0.60723005  0.37546273  1
  O  O341  1  0.38088362  0.61068983  0.89870899  1
  O  O342  1  0.87697427  0.11269348  0.37900043  1
  O  O343  1  0.88294651  0.14460341  0.85259113  1
  O  O344  1  0.85894631  0.64130976  0.37293595  1
  O  O345  1  0.87223166  0.62802720  0.86605741  1
  O  O346  1  0.12318527  0.36947956  0.13242080  1
  O  O347  1  0.13850470  0.37435081  0.63071454  1
  O  O348  1  0.11916255  0.89390897  0.13819667  1
  O  O349  1  0.12428967  0.88107210  0.62146476  1
  O  O350  1  0.62864635  0.36586420  0.14059348  1
  O  O351  1  0.62637970  0.38590211  0.62463807  1
  O  O352  1  0.63359664  0.87163247  0.13079684  1
  O  O353  1  0.62028993  0.88238688  0.63258940  1
  O  O354  1  0.10602363  0.24453049  0.26517401  1
  O  O355  1  0.13415982  0.27410795  0.75550022  1
  O  O356  1  0.10800139  0.78109248  0.24871398  1
  O  O357  1  0.15503747  0.74492661  0.78868679  1
  O  O358  1  0.61605944  0.25792366  0.25890665  1
  O  O359  1  0.62952945  0.23944586  0.76124434  1
  O  O360  1  0.61035408  0.75596125  0.24059906  1
  O  O361  1  0.62931379  0.75269793  0.76298857  1
  O  O362  1  0.37611010  0.24039219  0.23284420  1
  O  O363  1  0.36713796  0.24527548  0.73621794  1
  O  O364  1  0.39253180  0.72682577  0.25260309  1
  O  O365  1  0.37650457  0.74359976  0.72714289  1
  O  O366  1  0.88485843  0.24953052  0.24538431  1
  O  O367  1  0.87000835  0.18978658  0.79575308  1
  O  O368  1  0.88791175  0.75624288  0.24800250  1
  O  O369  1  0.87089748  0.73384268  0.75026677  1
  O  O370  1  0.38231175  0.48908176  0.49451359  1
  O  O371  1  0.37569250  0.48597931  0.99582567  1
  O  O372  1  0.39069910  1.00201929  0.48953626  1
  O  O373  1  0.38159241  0.99287651  0.99007315  1
  O  O374  1  0.89059870  0.51259227  0.49985984  1
  O  O375  1  0.89407788  0.51500665  1.00812230  1
  O  O376  1  0.87965413  0.98863724  0.49395446  1
  O  O377  1  0.88618181  0.99429908  1.00350143  1
  O  O378  1  0.11114705  0.00933544  0.01464929  1
  O  O379  1  0.11304668  0.01171974  0.49240378  1
  O  O380  1  0.11217032  0.51711105  0.00742528  1
  O  O381  1  0.11833074  0.51630586  0.48369584  1
  O  O382  1  0.60868605  0.00673408  -0.01244184  1
  O  O383  1  0.61968993  0.00495600  0.50598251  1
  O  O384  1  0.63333414  0.50801701  0.00459916  1
  O  O385  1  0.61849670  0.50246912  0.50598249  1
  O  O386  1  0.36363945  0.36020592  0.12895701  1
  O  O387  1  0.37250208  0.36826809  0.62006417  1
  O  O388  1  0.37914135  0.88075636  0.10851135  1
  O  O389  1  0.38330944  0.86504046  0.62177600  1
  O  O390  1  0.85647418  0.36332706  0.12773959  1
  O  O391  1  0.86544661  0.38443961  0.63549147  1
  O  O392  1  0.85936383  0.87587634  0.11554180  1
  O  O393  1  0.87977952  0.87748055  0.60856820  1
  O  O394  1  0.12923483  0.13387080  0.38752569  1
  O  O395  1  0.13286185  0.12259791  0.88797954  1
  O  O396  1  0.14828564  0.62634913  0.37555528  1
  O  O397  1  0.11681680  0.63125114  0.89601396  1
  O  O398  1  0.62204740  0.11732857  0.39086335  1
  O  O399  1  0.61962300  0.13021703  0.88227006  1
  O  O400  1  0.63519235  0.60526502  0.38841498  1
  O  O401  1  0.62519128  0.63220370  0.88392519  1
