# generated using pymatgen
data_V73Zn73O256
_symmetry_space_group_name_H-M   'P 1'
_cell_length_a   16.90621291
_cell_length_b   16.84250336
_cell_length_c   16.86232597
_cell_angle_alpha   89.75277230
_cell_angle_beta   89.93853495
_cell_angle_gamma   89.92495703
_symmetry_Int_Tables_number   1
_chemical_formula_structural   V73Zn73O256
_chemical_formula_sum   'V73 Zn73 O256'
_cell_volume   4801.37685360
_cell_formula_units_Z   1
loop_
 _symmetry_equiv_pos_site_id
 _symmetry_equiv_pos_as_xyz
  1  'x, y, z'
loop_
 _atom_site_type_symbol
 _atom_site_label
 _atom_site_symmetry_multiplicity
 _atom_site_fract_x
 _atom_site_fract_y
 _atom_site_fract_z
 _atom_site_occupancy
  V  V0  1  0.88255701  -0.01087945  0.87576608  1
  V  V1  1  0.73963349  0.38479910  0.12624536  1
  V  V2  1  0.38133473  0.50478268  0.87397678  1
  V  V3  1  0.12298379  0.37261414  0.25537222  1
  V  V4  1  0.50127353  0.36484987  0.36775559  1
  V  V5  1  0.24507310  0.76010755  0.50874494  1
  V  V6  1  0.87664602  0.12661017  0.74703605  1
  V  V7  1  0.00008759  0.60995680  0.62320358  1
  V  V8  1  0.62201494  0.00358377  0.11995298  1
  V  V9  1  0.75374645  0.48747157  0.75438369  1
  V  V10  1  0.37534466  0.00444795  0.37257329  1
  V  V11  1  0.22858092  -0.00918527  0.74407325  1
  V  V12  1  0.87970079  0.24460386  0.12825229  1
  V  V13  1  0.73423941  -0.00402332  0.25146755  1
  V  V14  1  0.24923778  0.50276760  0.23756054  1
  V  V15  1  0.62630477  0.74761822  0.88251438  1
  V  V16  1  0.23874020  0.50270881  0.73669381  1
  V  V17  1  0.02154657  0.50486046  0.00695060  1
  V  V18  1  0.87683982  -0.00293484  0.36101069  1
  V  V19  1  -0.00109884  0.24693335  0.75221507  1
  V  V20  1  0.74282136  0.12420107  0.88068166  1
  V  V21  1  0.00086968  -0.01006941  -0.00481176  1
  V  V22  1  0.38544734  0.50385779  0.38097826  1
  V  V23  1  0.74552701  -0.00799071  0.75140535  1
  V  V24  1  0.87525141  0.25259963  0.61174706  1
  V  V25  1  0.61816702  -0.00277914  0.63133071  1
  V  V26  1  0.87410163  0.62731582  0.74721989  1
  V  V27  1  0.36405069  0.01628799  0.87052963  1
  V  V28  1  0.12377394  0.76240825  0.88346730  1
  V  V29  1  0.13755553  0.12841517  -0.00576187  1
  V  V30  1  0.76404147  0.76810353  0.00923010  1
  V  V31  1  0.63044654  0.25422454  0.34889446  1
  V  V32  1  0.75760407  0.86661930  0.61219919  1
  V  V33  1  0.64791281  0.62878084  0.50072123  1
  V  V34  1  0.00693338  0.24184134  0.25859858  1
  V  V35  1  0.49786016  0.02040783  0.00317312  1
  V  V36  1  0.24621010  0.62454780  0.37181787  1
  V  V37  1  0.25970282  0.86269956  0.12641712  1
  V  V38  1  0.62861378  0.13674455  0.50716287  1
  V  V39  1  -0.01667689  -0.00654517  0.50000705  1
  V  V40  1  0.13528372  0.11976377  0.50460860  1
  V  V41  1  0.88065642  0.38038254  -0.00236258  1
  V  V42  1  0.51194475  0.62972079  0.11913337  1
  V  V43  1  0.87487555  0.63408251  0.25447784  1
  V  V44  1  -0.00119572  0.12268910  0.12392877  1
  V  V45  1  0.39123339  0.25112006  0.12282015  1
  V  V46  1  0.75147800  0.50337046  0.26998885  1
  V  V47  1  0.00674938  0.75868121  0.75084907  1
  V  V48  1  0.11979931  0.60944543  0.50348784  1
  V  V49  1  0.39654592  0.13246356  0.24545119  1
  V  V50  1  0.11663229  0.86939965  0.25000366  1
  V  V51  1  0.25122152  0.01337850  0.25042920  1
  V  V52  1  0.37507102  0.86296834  0.00136256  1
  V  V53  1  0.24475912  0.36220315  0.11813053  1
  V  V54  1  0.49478038  0.62583585  0.61595450  1
  V  V55  1  0.50157327  0.87588781  0.87457140  1
  V  V56  1  0.36961009  0.63879826  0.74590134  1
  V  V57  1  -0.00640117  0.38718902  0.38831175  1
  V  V58  1  0.75639191  0.62194579  0.88632799  1
  V  V59  1  0.74930920  0.37244005  0.60003010  1
  V  V60  1  0.13688552  0.24646321  0.87198502  1
  V  V61  1  0.49577077  0.00411959  0.50734926  1
  V  V62  1  0.10898994  -0.02969473  0.61977559  1
  V  V63  1  0.00142783  0.63989741  0.12513810  1
  V  V64  1  0.64140254  0.75083907  0.37493164  1
  V  V65  1  0.74575306  0.23135989  0.00770173  1
  V  V66  1  0.50457373  0.75548244  0.74191985  1
  V  V67  1  0.36843583  0.35902217  0.50745126  1
  V  V68  1  0.37953343  0.37987528  -0.00283480  1
  V  V69  1  0.23912491  0.62902805  0.88743792  1
  V  V70  1  0.12989618  0.00419692  0.12305285  1
  V  V71  1  0.50778274  0.87391790  0.37051472  1
  V  V72  1  0.11086726  0.75165232  0.37354365  1
  Zn  Zn73  1  0.60640007  0.27495558  0.84352872  1
  Zn  Zn74  1  0.38048084  0.86100271  0.51056265  1
  Zn  Zn75  1  0.75980670  0.13756502  0.36654066  1
  Zn  Zn76  1  0.12449349  0.38220610  0.74187013  1
  Zn  Zn77  1  0.62111556  0.49778173  0.62707736  1
  Zn  Zn78  1  0.49952752  0.75619403  0.23964940  1
  Zn  Zn79  1  0.53403149  0.50292913  0.01858272  1
  Zn  Zn80  1  0.37498246  0.64435992  0.24014112  1
  Zn  Zn81  1  -0.00026568  0.38123860  0.87130897  1
  Zn  Zn82  1  0.19237874  0.18473700  0.33596492  1
  Zn  Zn83  1  0.17847421  0.16745345  0.68279570  1
  Zn  Zn84  1  0.18122792  0.68441014  0.18068859  1
  Zn  Zn85  1  0.17961785  0.68923161  0.68879487  1
  Zn  Zn86  1  0.68447577  0.17312249  0.18083912  1
  Zn  Zn87  1  0.69155201  0.18781752  0.68509806  1
  Zn  Zn88  1  0.68907545  0.68769352  0.18968932  1
  Zn  Zn89  1  0.68178462  0.68654859  0.69071052  1
  Zn  Zn90  1  0.32164306  0.31830231  0.30557080  1
  Zn  Zn91  1  0.29627672  0.32832765  0.82272783  1
  Zn  Zn92  1  0.31246725  0.81878498  0.31862850  1
  Zn  Zn93  1  0.30598991  0.81736907  0.81766118  1
  Zn  Zn94  1  0.81745699  0.32044141  0.30945764  1
  Zn  Zn95  1  0.81402653  0.30496051  0.81981696  1
  Zn  Zn96  1  0.81694001  0.82012223  0.30817377  1
  Zn  Zn97  1  0.81511521  0.80701324  0.81126195  1
  Zn  Zn98  1  0.19121477  0.42708645  0.43379876  1
  Zn  Zn99  1  0.19079876  0.44032080  0.93280662  1
  Zn  Zn100  1  0.18220074  0.94250740  0.43149618  1
  Zn  Zn101  1  0.19163024  0.93672754  0.93878399  1
  Zn  Zn102  1  0.67940795  0.44404446  0.43493932  1
  Zn  Zn103  1  0.68721773  0.41870791  0.94680043  1
  Zn  Zn104  1  0.68995177  0.94229884  0.43906642  1
  Zn  Zn105  1  0.68266735  0.94013690  0.93964686  1
  Zn  Zn106  1  0.31824149  0.06325749  0.06386282  1
  Zn  Zn107  1  0.29967703  0.01841801  0.56097229  1
  Zn  Zn108  1  0.32216317  0.57082568  0.06223592  1
  Zn  Zn109  1  0.31009163  0.56960974  0.55796916  1
  Zn  Zn110  1  0.82536532  0.03081911  0.07712596  1
  Zn  Zn111  1  0.80349090  0.06603437  0.56103897  1
  Zn  Zn112  1  0.81856920  0.56607252  0.07099042  1
  Zn  Zn113  1  0.81939429  0.55636345  0.56396203  1
  Zn  Zn114  1  0.43836148  0.44658020  0.18761900  1
  Zn  Zn115  1  0.42256876  0.45235199  0.67931160  1
  Zn  Zn116  1  0.44222814  0.93782701  0.18550734  1
  Zn  Zn117  1  0.40017323  0.92456877  0.69905676  1
  Zn  Zn118  1  0.93255995  0.44038861  0.18601032  1
  Zn  Zn119  1  0.93300497  0.43359997  0.68677749  1
  Zn  Zn120  1  0.93417373  0.93039219  0.18549784  1
  Zn  Zn121  1  0.93152553  0.93680058  0.68672736  1
  Zn  Zn122  1  0.06068137  0.05704014  0.31795456  1
  Zn  Zn123  1  0.06203298  0.06222304  0.80910947  1
  Zn  Zn124  1  0.05950917  0.56126149  0.30423056  1
  Zn  Zn125  1  0.05736742  0.56291411  0.82062754  1
  Zn  Zn126  1  0.56732675  0.06696990  0.31777613  1
  Zn  Zn127  1  0.55624077  0.06563306  0.81510026  1
  Zn  Zn128  1  0.56883271  0.57249171  0.30492960  1
  Zn  Zn129  1  0.59228241  0.53488606  0.84328952  1
  Zn  Zn130  1  0.43677556  0.18432764  0.43774565  1
  Zn  Zn131  1  0.42394447  0.19406210  0.93447493  1
  Zn  Zn132  1  0.42871704  0.69227718  0.43036394  1
  Zn  Zn133  1  0.44024471  0.68378711  0.93830334  1
  Zn  Zn134  1  0.94490979  0.17192830  0.43684070  1
  Zn  Zn135  1  0.93893641  0.18215495  0.93685733  1
  Zn  Zn136  1  0.92581451  0.68203913  0.43663916  1
  Zn  Zn137  1  0.93984556  0.68834934  0.93851963  1
  Zn  Zn138  1  0.06496524  0.31029352  0.06222638  1
  Zn  Zn139  1  0.06053767  0.29361054  0.55701390  1
  Zn  Zn140  1  0.06787860  0.81056597  0.06366925  1
  Zn  Zn141  1  0.01001457  0.80104055  0.55515768  1
  Zn  Zn142  1  0.56800122  0.31134575  0.03735419  1
  Zn  Zn143  1  0.56139228  0.33387719  0.54832614  1
  Zn  Zn144  1  0.56856239  0.81555532  0.06506923  1
  Zn  Zn145  1  0.57280361  0.81662183  0.55835601  1
  O  O146  1  0.11798751  0.11491270  0.11041344  1
  O  O147  1  0.11603338  0.10296527  0.61339351  1
  O  O148  1  0.10341932  0.62247670  0.13100964  1
  O  O149  1  0.11790796  0.62188099  0.61075187  1
  O  O150  1  0.60551585  0.10547300  0.13372142  1
  O  O151  1  0.63631966  0.11407783  0.61368101  1
  O  O152  1  0.61311233  0.62685618  0.12779032  1
  O  O153  1  0.61152376  0.63240239  0.61326633  1
  O  O154  1  0.38351905  0.38677019  0.38066462  1
  O  O155  1  0.36910066  0.38788696  0.88483806  1
  O  O156  1  0.38723006  0.89007051  0.38437413  1
  O  O157  1  0.37811879  0.88460039  0.88899533  1
  O  O158  1  0.89536510  0.36852975  0.37398500  1
  O  O159  1  0.87892020  0.36315752  0.89462339  1
  O  O160  1  0.86361078  0.89680031  0.37848927  1
  O  O161  1  0.87264528  0.89080544  0.86864393  1
  O  O162  1  0.26584553  -0.01111130  0.36188966  1
  O  O163  1  0.25681397  -0.00682795  0.85951555  1
  O  O164  1  0.25132211  0.51185366  0.36689103  1
  O  O165  1  0.25474008  0.51403913  0.86476331  1
  O  O166  1  0.75025786  0.00456892  0.36299380  1
  O  O167  1  0.75829670  0.00802643  0.87319332  1
  O  O168  1  0.76049097  0.49143715  0.36920439  1
  O  O169  1  0.75119939  0.51562136  0.86347044  1
  O  O170  1  0.25863167  0.49678919  0.13575405  1
  O  O171  1  0.25056029  0.51210885  0.63742660  1
  O  O172  1  0.24391000  0.99747849  0.13101246  1
  O  O173  1  0.21780094  0.97489089  0.63310282  1
  O  O174  1  0.74378270  0.48390100  0.10729816  1
  O  O175  1  0.75670642  0.48234181  0.63596769  1
  O  O176  1  0.72792148  1.00863460  0.13194839  1
  O  O177  1  0.74262057  0.99405260  0.63440807  1
  O  O178  1  0.01281856  0.36798973  0.24764586  1
  O  O179  1  0.00706721  0.36596353  0.75093536  1
  O  O180  1  0.01830026  0.87696305  0.23930704  1
  O  O181  1  -0.00744270  0.85726098  0.74694733  1
  O  O182  1  0.49251753  0.38354192  0.26877967  1
  O  O183  1  0.49156570  0.35477413  0.73746563  1
  O  O184  1  0.49855293  0.88015984  0.26748700  1
  O  O185  1  0.48080227  0.86255506  0.76078806  1
  O  O186  1  0.49382744  0.12347371  0.24397234  1
  O  O187  1  0.49036662  0.16001609  0.78785719  1
  O  O188  1  0.49688742  0.63157936  0.23967671  1
  O  O189  1  0.48790757  0.64486489  0.74009684  1
  O  O190  1  1.01422000  0.13555021  0.24077345  1
  O  O191  1  0.98665045  0.13160322  0.75266698  1
  O  O192  1  0.98924840  0.61929933  0.23575054  1
  O  O193  1  0.98975703  0.62110596  0.74569952  1
  O  O194  1  0.37523247  0.26968653  0.00421672  1
  O  O195  1  0.38011420  0.25776880  0.50132648  1
  O  O196  1  0.37365910  0.76454044  -0.00745241  1
  O  O197  1  0.35203379  0.74969998  0.49637146  1
  O  O198  1  0.87717053  0.25077236  0.01303306  1
  O  O199  1  0.88655773  0.24040270  0.51428955  1
  O  O200  1  0.86307529  0.75305381  -0.00712358  1
  O  O201  1  0.91372831  0.75437834  0.51619546  1
  O  O202  1  0.12540562  0.22060220  0.49951501  1
  O  O203  1  0.12104385  0.23783768  0.98675598  1
  O  O204  1  0.12825521  0.74428334  0.48245586  1
  O  O205  1  0.12201473  0.75034552  0.98392754  1
  O  O206  1  0.61351967  0.23702916  0.51264763  1
  O  O207  1  0.64909932  0.22235984  1.02138989  1
  O  O208  1  0.62318289  0.73988012  0.49096041  1
  O  O209  1  0.63407276  0.75575818  0.98614611  1
  O  O210  1  0.48901447  0.25894937  0.11055532  1
  O  O211  1  0.51725969  0.30127629  0.69173814  1
  O  O212  1  0.50453031  0.74132134  0.12288953  1
  O  O213  1  0.50361630  0.75308043  0.63616107  1
  O  O214  1  0.99904104  0.24026946  0.12969539  1
  O  O215  1  0.98456185  0.25443051  0.63838768  1
  O  O216  1  0.99824606  0.74111491  0.11882912  1
  O  O217  1  1.01089630  0.72820988  0.64657904  1
  O  O218  1  -0.00200392  0.24896214  0.35966506  1
  O  O219  1  0.00556300  0.25170519  0.86569115  1
  O  O220  1  0.01377737  0.74510909  0.37103816  1
  O  O221  1  0.01349664  0.74098293  0.86546037  1
  O  O222  1  0.50708215  0.25965196  0.37075153  1
  O  O223  1  0.49335548  0.22015079  0.84224423  1
  O  O224  1  0.50090842  0.76929276  0.38382417  1
  O  O225  1  0.50606803  0.75526548  0.87052585  1
  O  O226  1  0.23733774  0.10018036  0.51363719  1
  O  O227  1  0.23567653  0.12141828  1.00443247  1
  O  O228  1  0.23563804  0.63436586  0.49142399  1
  O  O229  1  0.25381980  0.62380619  0.98594465  1
  O  O230  1  0.73112125  0.12243136  0.48829446  1
  O  O231  1  0.76705364  0.12489477  0.99066828  1
  O  O232  1  0.74652022  0.63128177  0.51393352  1
  O  O233  1  0.75943051  0.62815718  0.98696981  1
  O  O234  1  0.26023392  0.38662172  0.01303032  1
  O  O235  1  0.26875801  0.37756327  0.49567690  1
  O  O236  1  0.26316674  0.88322086  0.01481769  1
  O  O237  1  0.24429540  0.86210788  0.49043665  1
  O  O238  1  0.76266336  0.35306825  0.00772434  1
  O  O239  1  0.75545498  0.37957592  0.50206243  1
  O  O240  1  0.74895420  0.86809826  -0.00453541  1
  O  O241  1  0.74642096  0.87702306  0.51242561  1
  O  O242  1  0.13881262  0.48604386  0.25066540  1
  O  O243  1  0.13451976  0.50408807  0.75231894  1
  O  O244  1  0.13215790  0.99016130  0.24263604  1
  O  O245  1  0.12175746  0.98796924  0.74316973  1
  O  O246  1  0.64928921  0.50712650  0.25834969  1
  O  O247  1  0.64823679  0.50960473  0.74467998  1
  O  O248  1  0.62873478  0.99791330  0.24856943  1
  O  O249  1  0.62920626  1.01249654  0.73962778  1
  O  O250  1  0.37258514  0.01483041  0.24878400  1
  O  O251  1  0.39706931  0.01464178  0.77463115  1
  O  O252  1  0.35629119  0.49374551  0.26318135  1
  O  O253  1  0.36119157  0.51147438  0.75782063  1
  O  O254  1  0.87372060  0.00270078  0.25783389  1
  O  O255  1  0.86741279  0.00776686  0.75781573  1
  O  O256  1  0.85946255  0.50733853  0.23951381  1
  O  O257  1  0.86487064  0.51106703  0.74795990  1
  O  O258  1  0.11917416  0.37323479  0.35981961  1
  O  O259  1  0.12845128  0.35629855  0.87214489  1
  O  O260  1  0.12845970  0.86583740  0.35899087  1
  O  O261  1  0.13512327  0.86270294  0.87287533  1
  O  O262  1  0.61299725  0.36328250  0.38233976  1
  O  O263  1  0.60554732  0.33938024  0.92924256  1
  O  O264  1  0.61524160  0.86655437  0.38410794  1
  O  O265  1  0.60790929  0.87144332  0.87698297  1
  O  O266  1  0.37307233  0.14187448  0.13013231  1
  O  O267  1  0.40495367  0.16100493  0.64966750  1
  O  O268  1  0.38904585  0.62617770  0.12896113  1
  O  O269  1  0.38248895  0.62511454  0.63397242  1
  O  O270  1  0.89219574  0.12579229  0.12022285  1
  O  O271  1  0.85706698  0.14015071  0.63798171  1
  O  O272  1  0.88830967  0.62525515  0.13396738  1
  O  O273  1  0.88883166  0.62427284  0.63549320  1
  O  O274  1  0.26462237  0.26466485  0.12103567  1
  O  O275  1  0.21046544  0.27523590  0.63635509  1
  O  O276  1  0.24811165  0.76417280  0.12869726  1
  O  O277  1  0.23564617  0.74875377  0.60775574  1
  O  O278  1  0.76349971  0.24254227  0.12067383  1
  O  O279  1  0.76101585  0.26352353  0.62304407  1
  O  O280  1  0.74290929  0.74666466  0.10626918  1
  O  O281  1  0.73596833  0.77050218  0.63713430  1
  O  O282  1  0.25407259  0.26473183  0.37283659  1
  O  O283  1  0.23753284  0.24143263  0.86226059  1
  O  O284  1  0.24079825  0.73769588  0.37585456  1
  O  O285  1  0.23841266  0.73888407  0.86753496  1
  O  O286  1  0.73503689  0.25764648  0.36244134  1
  O  O287  1  0.75215854  0.23552180  0.89099375  1
  O  O288  1  0.73935889  0.76037494  0.37483177  1
  O  O289  1  0.74568715  0.74382734  0.88046540  1
  O  O290  1  0.01009351  0.11470323  0.00619298  1
  O  O291  1  0.01607732  0.10218792  0.49346251  1
  O  O292  1  -0.00592669  0.61183269  0.00991049  1
  O  O293  1  0.01058797  0.62124288  0.51036261  1
  O  O294  1  0.49469309  0.11939910  -0.00916549  1
  O  O295  1  0.51430270  0.11362342  0.49280703  1
  O  O296  1  0.49845798  0.62045475  0.01047812  1
  O  O297  1  0.48770323  0.63688106  0.51619434  1
  O  O298  1  0.48547833  0.38089118  0.48116332  1
  O  O299  1  0.47931437  0.39226685  1.00973648  1
  O  O300  1  0.50115615  0.88939751  0.49403366  1
  O  O301  1  0.48667678  0.87932754  0.99296844  1
  O  O302  1  1.01629101  0.36881704  0.48585635  1
  O  O303  1  0.99216652  0.38098308  1.00408023  1
  O  O304  1  0.99906814  0.89371405  0.48907754  1
  O  O305  1  1.01019721  0.89103462  1.00367466  1
  O  O306  1  0.48664080  0.50561679  0.36920291  1
  O  O307  1  0.47926987  0.50693921  0.85820656  1
  O  O308  1  0.49852523  0.99325198  0.38114537  1
  O  O309  1  0.49432706  0.99486447  0.88729898  1
  O  O310  1  1.00633938  0.48595140  0.37155262  1
  O  O311  1  1.00453864  0.49563995  0.89696241  1
  O  O312  1  0.98394148  0.99954102  0.37975555  1
  O  O313  1  0.98992093  1.00201394  0.87709946  1
  O  O314  1  0.01425320  0.00490373  0.11919217  1
  O  O315  1  -0.00035946  -0.00317426  0.61544605  1
  O  O316  1  -0.00246270  0.49666275  0.10923982  1
  O  O317  1  0.00371512  0.51005265  0.63364125  1
  O  O318  1  0.49142633  0.00585819  0.10668575  1
  O  O319  1  0.51620722  0.00513588  0.62260044  1
  O  O320  1  0.50206890  0.51464028  0.12703704  1
  O  O321  1  0.50381400  0.52194608  0.63489597  1
  O  O322  1  0.24265403  0.38205121  0.23778053  1
  O  O323  1  0.24751046  0.39627962  0.74890876  1
  O  O324  1  0.24890789  0.88543441  0.23713379  1
  O  O325  1  0.28818484  0.89987473  0.74038509  1
  O  O326  1  0.75661837  0.38831104  0.23335537  1
  O  O327  1  0.75523395  0.38687032  0.76543576  1
  O  O328  1  0.75595082  0.89649830  0.24486886  1
  O  O329  1  0.74909790  0.88987981  0.75448486  1
  O  O330  1  0.24977996  0.11468155  0.25142626  1
  O  O331  1  0.25344022  0.08898447  0.73046177  1
  O  O332  1  0.24528311  0.61414405  0.25173794  1
  O  O333  1  0.25448890  0.62195998  0.75380797  1
  O  O334  1  0.74898228  0.10849339  0.25057772  1
  O  O335  1  0.75641663  0.11838845  0.76313695  1
  O  O336  1  0.76235301  0.61435853  0.24628533  1
  O  O337  1  0.76506788  0.62515464  0.74696629  1
  O  O338  1  0.38167655  0.12381881  0.35202482  1
  O  O339  1  0.35728879  0.11453947  0.88842334  1
  O  O340  1  0.36429223  0.61618359  0.36876624  1
  O  O341  1  0.36502181  0.61994140  0.86760601  1
  O  O342  1  0.86913408  0.10893080  0.38189156  1
  O  O343  1  0.86775238  0.11896379  0.86365214  1
  O  O344  1  0.88769110  0.61867245  0.35581867  1
  O  O345  1  0.86365717  0.62825813  0.86342379  1
  O  O346  1  0.13860911  0.36589370  0.13201005  1
  O  O347  1  0.14932619  0.32731640  0.63358664  1
  O  O348  1  0.13887013  0.88195075  0.13054435  1
  O  O349  1  0.09602976  0.87220383  0.61607507  1
  O  O350  1  0.64297299  0.36248637  0.11385156  1
  O  O351  1  0.64247270  0.38073430  0.61293374  1
  O  O352  1  0.60202179  0.90057736  0.13034054  1
  O  O353  1  0.63239723  0.89312539  0.62453889  1
  O  O354  1  0.11560537  0.25971665  0.25172709  1
  O  O355  1  0.11424556  0.23206208  0.76313190  1
  O  O356  1  0.13140230  0.76193003  0.25658508  1
  O  O357  1  0.11430359  0.74625540  0.76188240  1
  O  O358  1  0.62336727  0.24915978  0.25093692  1
  O  O359  1  0.62767128  0.25984514  0.73925299  1
  O  O360  1  0.62014399  0.74293162  0.27190310  1
  O  O361  1  0.60780602  0.75231473  0.75952388  1
  O  O362  1  0.38152362  0.24442600  0.23456936  1
  O  O363  1  0.36527830  0.21535343  0.67716517  1
  O  O364  1  0.38387249  0.75531924  0.26242295  1
  O  O365  1  0.37889337  0.74373087  0.75798100  1
  O  O366  1  0.89402830  0.25715641  0.23699904  1
  O  O367  1  0.88103900  0.24351320  0.74909223  1
  O  O368  1  0.86606153  0.73585875  0.25085832  1
  O  O369  1  0.88921333  0.73571446  0.75620109  1
  O  O370  1  0.36919505  0.50360917  0.48283959  1
  O  O371  1  0.37034969  0.49761940  0.98254464  1
  O  O372  1  0.38551936  1.03079009  0.47467129  1
  O  O373  1  0.38290595  0.99737123  0.99122228  1
  O  O374  1  0.89291292  0.49463422  0.51002944  1
  O  O375  1  0.86936647  0.48013022  1.00331718  1
  O  O376  1  0.88080101  1.00535696  0.50112299  1
  O  O377  1  0.88628235  1.00913004  0.97975293  1
  O  O378  1  0.12294726  0.00767991  0.00265530  1
  O  O379  1  0.11528194  -0.00767801  0.51055087  1
  O  O380  1  0.12098518  0.49519345  0.00598387  1
  O  O381  1  0.13225853  0.51210594  0.49177042  1
  O  O382  1  0.60916189  0.00222637  0.00642056  1
  O  O383  1  0.61661525  0.00872254  0.50920564  1
  O  O384  1  0.62024616  0.50584571  -0.04905033  1
  O  O385  1  0.62929800  0.52254674  0.50416347  1
  O  O386  1  0.36824826  0.37061661  0.11933197  1
  O  O387  1  0.38406004  0.37876774  0.60691863  1
  O  O388  1  0.36803824  0.87843894  0.11594290  1
  O  O389  1  0.38046117  0.94100153  0.59032201  1
  O  O390  1  0.86712796  0.36283625  0.11588085  1
  O  O391  1  0.86476472  0.36217672  0.62641217  1
  O  O392  1  0.86366019  0.92420279  0.10394551  1
  O  O393  1  0.85705545  0.87572277  0.62974321  1
  O  O394  1  0.13578850  0.10252691  0.38821505  1
  O  O395  1  0.12150383  0.12875298  0.88618487  1
  O  O396  1  0.12629252  0.63253810  0.37717230  1
  O  O397  1  0.13688544  0.62872606  0.87547643  1
  O  O398  1  0.62167644  0.14765763  0.38118160  1
  O  O399  1  0.64302414  0.12040214  0.87561579  1
  O  O400  1  0.62572530  0.63729320  0.39134023  1
  O  O401  1  0.64640003  0.63967340  0.86302935  1
