# generated using pymatgen
data_V73Zn73O256
_symmetry_space_group_name_H-M   'P 1'
_cell_length_a   16.87564699
_cell_length_b   16.87545143
_cell_length_c   16.92094284
_cell_angle_alpha   90.08082848
_cell_angle_beta   90.17016752
_cell_angle_gamma   89.86837979
_symmetry_Int_Tables_number   1
_chemical_formula_structural   V73Zn73O256
_chemical_formula_sum   'V73 Zn73 O256'
_cell_volume   4818.77779541
_cell_formula_units_Z   1
loop_
 _symmetry_equiv_pos_site_id
 _symmetry_equiv_pos_as_xyz
  1  'x, y, z'
loop_
 _atom_site_type_symbol
 _atom_site_label
 _atom_site_symmetry_multiplicity
 _atom_site_fract_x
 _atom_site_fract_y
 _atom_site_fract_z
 _atom_site_occupancy
  V  V0  1  0.13180172  0.74343695  0.37591931  1
  V  V1  1  0.13286787  0.61988091  0.50004782  1
  V  V2  1  -0.00151621  0.28740463  0.22331454  1
  V  V3  1  0.63563531  0.74515197  0.37985001  1
  V  V4  1  0.13703741  0.24855666  0.37313579  1
  V  V5  1  0.23234033  0.38061987  0.13130517  1
  V  V6  1  0.49067687  0.13321080  0.63042614  1
  V  V7  1  0.37444952  0.64250942  0.75552447  1
  V  V8  1  0.73743095  -0.00539543  0.75361923  1
  V  V9  1  0.36315495  0.11800584  0.26254125  1
  V  V10  1  0.13118967  -0.00077143  0.12740093  1
  V  V11  1  0.77488084  0.36700202  0.62962787  1
  V  V12  1  0.61777300  0.13829838  0.48766452  1
  V  V13  1  0.00183413  -0.00178496  -0.01061310  1
  V  V14  1  0.65450274  0.49135456  0.12328737  1
  V  V15  1  0.49710446  0.74055457  0.24747402  1
  V  V16  1  0.62425220  0.88390762  0.24750790  1
  V  V17  1  0.13201293  0.48571119  0.62346469  1
  V  V18  1  0.81880167  0.75362046  0.54831153  1
  V  V19  1  -0.00552399  0.36554911  0.39428188  1
  V  V20  1  0.24284799  0.00150138  0.76077819  1
  V  V21  1  0.37578591  0.87480434  0.49530883  1
  V  V22  1  0.61841300  0.23425742  0.87403534  1
  V  V23  1  0.49561394  0.88173096  0.37226744  1
  V  V24  1  0.37273335  0.13139731  0.75300381  1
  V  V25  1  0.87328742  0.48535840  0.85869790  1
  V  V26  1  0.74814475  0.11402821  0.88725593  1
  V  V27  1  -0.00192116  0.62038484  0.12308828  1
  V  V28  1  0.60984470  0.86111828  0.74952557  1
  V  V29  1  0.01313960  0.35612671  0.85851458  1
  V  V30  1  -0.00941767  0.48686313  -0.00353263  1
  V  V31  1  0.37574859  0.24705985  0.12741389  1
  V  V32  1  -0.00969055  0.11936444  0.12991023  1
  V  V33  1  0.25055369  0.14475239  0.88150266  1
  V  V34  1  0.37196124  0.38700993  0.51480948  1
  V  V35  1  0.76228963  0.25010852  0.49869854  1
  V  V36  1  0.23371536  0.62855562  0.87812304  1
  V  V37  1  0.26038261  0.24516507  0.52040199  1
  V  V38  1  0.37554151  0.73991290  0.12754732  1
  V  V39  1  0.36973775  0.50245270  0.87707780  1
  V  V40  1  0.61967690  0.01173444  0.11708340  1
  V  V41  1  0.10966801  0.62941904  -0.00412865  1
  V  V42  1  0.03904338  0.00360854  0.50476209  1
  V  V43  1  0.23842251  0.88672226  0.61976844  1
  V  V44  1  0.49639786  0.51494127  0.01849549  1
  V  V45  1  0.00082124  0.74497806  0.25160172  1
  V  V46  1  0.49227604  0.00253913  0.49498150  1
  V  V47  1  0.23399668  0.51057477  0.25385921  1
  V  V48  1  0.50356109  0.00972108  -0.00744727  1
  V  V49  1  0.87446797  0.88374750  -0.01472386  1
  V  V50  1  0.77494721  0.46209900  0.27866062  1
  V  V51  1  0.48420546  0.86239604  0.86677761  1
  V  V52  1  -0.00549079  0.88251900  0.37685874  1
  V  V53  1  0.24255814  0.48975675  0.74903877  1
  V  V54  1  -0.01394527  0.49633609  0.50335403  1
  V  V55  1  0.73350063  0.49985539  0.73980013  1
  V  V56  1  0.12707289  0.13619756  -0.00245320  1
  V  V57  1  0.74603787  0.28755617  -0.00178523  1
  V  V58  1  0.36345725  0.37431415  0.00467121  1
  V  V59  1  0.13060993  0.87481391  0.24925053  1
  V  V60  1  0.50820897  0.38625660  0.87471777  1
  V  V61  1  0.75138490  0.88399931  0.13110040  1
  V  V62  1  0.37219177  0.88218835  -0.00195918  1
  V  V63  1  0.85962833  0.62781980  0.26078213  1
  V  V64  1  0.25444627  0.74672091  0.50153759  1
  V  V65  1  0.86484296  0.12410634  0.73259714  1
  V  V66  1  0.53484034  0.62567409  0.59632271  1
  V  V67  1  0.86827257  0.11274229  0.26042687  1
  V  V68  1  0.88529349  0.63112882  0.74934657  1
  V  V69  1  0.50803470  0.25337159  0.25264879  1
  V  V70  1  0.86720110  0.75493379  0.12212147  1
  V  V71  1  0.61667548  -0.00304402  0.62482056  1
  V  V72  1  0.25249778  0.87786107  0.13130293  1
  Zn  Zn73  1  0.49704670  0.27170171  0.74450339  1
  Zn  Zn74  1  0.69473524  0.69269795  0.94456205  1
  Zn  Zn75  1  0.93512352  -0.03906474  0.80535831  1
  Zn  Zn76  1  0.05926946  0.80661989  0.82758331  1
  Zn  Zn77  1  0.36291532  0.51094254  0.37306578  1
  Zn  Zn78  1  0.48914659  0.36777288  0.37337007  1
  Zn  Zn79  1  0.00163745  0.63567116  0.62766482  1
  Zn  Zn80  1  0.23842370  0.75885646  0.00118412  1
  Zn  Zn81  1  0.38440934  0.75581225  0.63603510  1
  Zn  Zn82  1  0.18592120  0.20040310  0.19142907  1
  Zn  Zn83  1  0.18677181  0.19350602  0.69273976  1
  Zn  Zn84  1  0.18160694  0.68674572  0.17686756  1
  Zn  Zn85  1  0.19045795  0.68555725  0.68086884  1
  Zn  Zn86  1  0.69261119  0.20007367  0.17627516  1
  Zn  Zn87  1  0.68098620  0.18987373  0.68977745  1
  Zn  Zn88  1  0.66058424  0.69545533  0.13605302  1
  Zn  Zn89  1  0.70049653  0.68828881  0.68429297  1
  Zn  Zn90  1  0.31703992  0.32819656  0.30726102  1
  Zn  Zn91  1  0.31547728  0.31475651  0.81216480  1
  Zn  Zn92  1  0.31462315  0.68137652  0.30977700  1
  Zn  Zn93  1  0.27523787  0.82248373  0.82195226  1
  Zn  Zn94  1  0.82652117  0.28397466  0.32310549  1
  Zn  Zn95  1  0.80818655  0.30782095  0.80913312  1
  Zn  Zn96  1  0.81321680  0.81872816  0.30702315  1
  Zn  Zn97  1  0.79650133  0.80490884  0.81425855  1
  Zn  Zn98  1  0.19161172  0.42572136  0.43388084  1
  Zn  Zn99  1  0.17706497  0.43955026  0.94062766  1
  Zn  Zn100  1  0.19880838  0.93796610  0.42199080  1
  Zn  Zn101  1  0.17829965  0.93255095  0.93461387  1
  Zn  Zn102  1  0.69028293  0.43158297  0.45201089  1
  Zn  Zn103  1  0.67902388  0.48557383  0.92919270  1
  Zn  Zn104  1  0.70956664  0.90776850  0.44070477  1
  Zn  Zn105  1  0.68699999  0.90293609  0.92994752  1
  Zn  Zn106  1  0.31256908  0.06209806  0.06361406  1
  Zn  Zn107  1  0.31090280  0.06455397  0.55804365  1
  Zn  Zn108  1  0.30228580  0.55869760  0.06469499  1
  Zn  Zn109  1  0.31972578  0.56508739  0.56887468  1
  Zn  Zn110  1  0.80986393  0.05906760  0.06583972  1
  Zn  Zn111  1  0.79534930  0.05504937  0.55047794  1
  Zn  Zn112  1  0.81938143  0.57154896  0.04759990  1
  Zn  Zn113  1  0.80705232  0.56828855  0.57066803  1
  Zn  Zn114  1  0.42580636  0.44077819  0.19807172  1
  Zn  Zn115  1  0.44199421  0.45836392  0.68879794  1
  Zn  Zn116  1  0.43892414  0.93991375  0.18344578  1
  Zn  Zn117  1  0.42478381  0.94447410  0.68603875  1
  Zn  Zn118  1  0.94434953  0.44573558  0.19577566  1
  Zn  Zn119  1  0.95039923  0.42936229  0.68634177  1
  Zn  Zn120  1  0.94055398  0.94275086  0.19357303  1
  Zn  Zn121  1  1.06962779  0.94068397  0.69095210  1
  Zn  Zn122  1  0.07052629  0.06419656  0.31297207  1
  Zn  Zn123  1  0.06227098  0.09341813  0.80398815  1
  Zn  Zn124  1  0.06060857  0.55385145  0.31837055  1
  Zn  Zn125  1  0.05683632  0.55480926  0.81256479  1
  Zn  Zn126  1  0.54962439  0.07070336  0.30274023  1
  Zn  Zn127  1  0.55197248  0.05323657  0.81547936  1
  Zn  Zn128  1  0.61077471  0.57591395  0.27650940  1
  Zn  Zn129  1  0.56476678  0.58524945  0.82464739  1
  Zn  Zn130  1  0.42712563  0.19311350  0.43240291  1
  Zn  Zn131  1  0.43537013  0.19339447  0.93769293  1
  Zn  Zn132  1  0.44970009  0.68425874  0.43677896  1
  Zn  Zn133  1  0.42745475  0.69129029  0.94077750  1
  Zn  Zn134  1  0.94045724  0.17799519  0.43866380  1
  Zn  Zn135  1  0.91999821  0.19312931  0.93400075  1
  Zn  Zn136  1  0.93869389  0.68297529  0.44429819  1
  Zn  Zn137  1  0.90603074  0.68485278  0.93408292  1
  Zn  Zn138  1  0.04936015  0.31199780  0.05808668  1
  Zn  Zn139  1  0.07975975  0.30946902  0.55175150  1
  Zn  Zn140  1  0.05391746  0.81105544  0.05838779  1
  Zn  Zn141  1  0.04109888  0.80353176  0.55698272  1
  Zn  Zn142  1  0.56236364  0.32132538  0.06223436  1
  Zn  Zn143  1  0.54495552  0.31369113  0.55569531  1
  Zn  Zn144  1  0.55942753  0.81481783  0.05517418  1
  Zn  Zn145  1  0.56054394  0.80567828  0.56263431  1
  O  O146  1  0.12930121  0.11291875  0.11360580  1
  O  O147  1  0.07038509  0.21024205  0.61716901  1
  O  O148  1  0.10544052  0.62563412  0.11413968  1
  O  O149  1  0.12371553  0.61641683  0.61246056  1
  O  O150  1  0.62902374  0.10976913  0.12292929  1
  O  O151  1  0.60666827  0.11550241  0.62583416  1
  O  O152  1  0.62287893  0.58985024  0.15831798  1
  O  O153  1  0.63595640  0.63118639  0.61089300  1
  O  O154  1  0.37498699  0.39367612  0.37944186  1
  O  O155  1  0.37135244  0.38595215  0.88746189  1
  O  O156  1  0.38904932  0.87201473  0.38774361  1
  O  O157  1  0.37291278  0.87129151  0.88512430  1
  O  O158  1  0.89491290  0.35783274  0.39122783  1
  O  O159  1  0.88761286  0.37879167  0.86015166  1
  O  O160  1  0.89582853  0.86972823  0.36632118  1
  O  O161  1  0.86994432  0.88411642  0.88441213  1
  O  O162  1  0.26832973  -0.02854923  0.34413243  1
  O  O163  1  0.24562723  0.00328004  0.86191000  1
  O  O164  1  0.23644323  0.49955203  0.35842877  1
  O  O165  1  0.24844018  0.50644981  0.86736454  1
  O  O166  1  0.77764494  -0.00660059  0.45960315  1
  O  O167  1  0.72417211  0.00677897  0.86454867  1
  O  O168  1  0.76290461  0.47402867  0.37768671  1
  O  O169  1  0.76526505  0.48368095  0.84882534  1
  O  O170  1  0.24513060  0.48941853  0.13175889  1
  O  O171  1  0.24318586  0.50662426  0.64121349  1
  O  O172  1  0.24123505  0.98986603  0.11904937  1
  O  O173  1  0.24972692  0.99055976  0.62035943  1
  O  O174  1  0.75197537  0.49483168  0.09642015  1
  O  O175  1  0.75635868  0.48136754  0.63014024  1
  O  O176  1  0.73365841  0.99383628  0.12170367  1
  O  O177  1  0.72193968  1.00165939  0.63757052  1
  O  O178  1  -0.00229900  0.37925840  0.28136329  1
  O  O179  1  0.01165069  0.36535871  0.75743837  1
  O  O180  1  0.01011306  0.86482020  0.25361486  1
  O  O181  1  0.00708782  0.88692514  0.76368925  1
  O  O182  1  0.48858874  0.36112253  0.25215292  1
  O  O183  1  0.48343015  0.38537381  0.77020330  1
  O  O184  1  0.50318992  0.87626070  0.25812223  1
  O  O185  1  0.49127808  0.87701193  0.75749460  1
  O  O186  1  0.48130965  0.14326078  0.24575066  1
  O  O187  1  0.48907975  0.11971264  0.74145466  1
  O  O188  1  0.50417618  0.64346679  0.25218425  1
  O  O189  1  0.47361941  0.63362987  0.77558601  1
  O  O190  1  0.99035597  0.10505141  0.23447203  1
  O  O191  1  0.95916647  0.08403725  0.75723944  1
  O  O192  1  0.99778270  0.63037982  0.24331735  1
  O  O193  1  0.99124602  0.62023686  0.74797789  1
  O  O194  1  0.37682545  0.26905206  0.00479670  1
  O  O195  1  0.36654606  0.26481001  0.49927100  1
  O  O196  1  0.37228308  0.76411003  0.01388893  1
  O  O197  1  0.36717429  0.75750800  0.49891967  1
  O  O198  1  0.84376259  0.25545769  -0.01094650  1
  O  O199  1  0.85945850  0.23066128  0.50549213  1
  O  O200  1  0.89237137  0.78158449  0.01621656  1
  O  O201  1  0.92934524  0.75324189  0.53482974  1
  O  O202  1  0.15395270  0.25157706  0.48484948  1
  O  O203  1  0.12122869  0.23354279  1.00515981  1
  O  O204  1  0.13032929  0.74158391  0.49399438  1
  O  O205  1  0.12287295  0.73578594  1.00624111  1
  O  O206  1  0.60900960  0.23996229  0.49449977  1
  O  O207  1  0.62600216  0.26578529  0.97763929  1
  O  O208  1  0.62469742  0.76262601  0.47963119  1
  O  O209  1  0.62850557  0.73055960  1.03360629  1
  O  O210  1  0.48256886  0.26309103  0.12784045  1
  O  O211  1  0.50559357  0.23737631  0.63261995  1
  O  O212  1  0.48425615  0.76096611  0.13603938  1
  O  O213  1  0.49718834  0.72664898  0.61744556  1
  O  O214  1  1.01843164  0.21861560  0.12740841  1
  O  O215  1  1.03170588  0.21916892  0.68810521  1
  O  O216  1  0.99239332  0.74522370  0.13575633  1
  O  O217  1  1.03565879  0.75021560  0.66177298  1
  O  O218  1  0.01451933  0.25952911  0.40326890  1
  O  O219  1  -0.00507266  0.25755453  0.88272811  1
  O  O220  1  0.01061432  0.75631525  0.36660437  1
  O  O221  1  -0.00380904  0.73968921  0.89058318  1
  O  O222  1  0.49732136  0.24988100  0.35945129  1
  O  O223  1  0.50656788  0.26771048  0.87841304  1
  O  O224  1  0.50752180  0.76264112  0.36166248  1
  O  O225  1  0.49109297  0.76322937  0.87768638  1
  O  O226  1  0.26749280  0.14618400  0.49633351  1
  O  O227  1  0.24055206  0.12062879  0.98911303  1
  O  O228  1  0.24456441  0.63697375  0.50977254  1
  O  O229  1  0.22922907  0.61248473  0.98911803  1
  O  O230  1  0.72295752  0.14353989  0.51445720  1
  O  O231  1  0.74473708  0.11326892  0.98693748  1
  O  O232  1  0.79186539  0.66253533  0.50761417  1
  O  O233  1  0.80213601  0.66077702  0.98415339  1
  O  O234  1  0.25874843  0.38762661  0.00640489  1
  O  O235  1  0.26240625  0.36323373  0.50109114  1
  O  O236  1  0.25605624  0.87745236  0.01041851  1
  O  O237  1  0.25658733  0.86974019  0.50492805  1
  O  O238  1  0.73909480  0.38490317  -0.02428163  1
  O  O239  1  0.75264810  0.36203988  0.51856322  1
  O  O240  1  0.77162111  0.89136016  0.01410142  1
  O  O241  1  0.77855825  0.82882291  0.49464376  1
  O  O242  1  0.13063383  0.50645297  0.24286156  1
  O  O243  1  0.13411180  0.50395644  0.73825760  1
  O  O244  1  0.12002649  0.98796125  0.23663237  1
  O  O245  1  0.14060018  1.02062690  0.74194196  1
  O  O246  1  0.68085565  0.48410804  0.24082734  1
  O  O247  1  0.63609628  0.50951457  0.74943609  1
  O  O248  1  0.60858460  0.99318764  0.23262322  1
  O  O249  1  0.61590395  0.99427018  0.73998981  1
  O  O250  1  0.38221258  0.02217369  0.23333171  1
  O  O251  1  0.35533822  0.01917380  0.74406795  1
  O  O252  1  0.34913806  0.50284965  0.25237774  1
  O  O253  1  0.35823609  0.51418346  0.76109143  1
  O  O254  1  0.86403546  0.01153790  0.24457100  1
  O  O255  1  0.83858149  -0.00750870  0.74948744  1
  O  O256  1  0.86655508  0.51495742  0.24473531  1
  O  O257  1  0.88084292  0.49835727  0.75125490  1
  O  O258  1  0.11287725  0.36135459  0.38084666  1
  O  O259  1  0.11199993  0.36980316  0.88136102  1
  O  O260  1  0.12015135  0.86232563  0.36456776  1
  O  O261  1  0.16222429  0.85055697  0.86040332  1
  O  O262  1  0.59347311  0.43077840  0.37502336  1
  O  O263  1  0.60614169  0.39615047  0.87589040  1
  O  O264  1  0.61989646  0.87600214  0.36492060  1
  O  O265  1  0.59621109  0.87881931  0.85714432  1
  O  O266  1  0.36984403  0.14752378  0.11132880  1
  O  O267  1  0.38509424  0.12501094  0.63242248  1
  O  O268  1  0.36616766  0.64228153  0.11439090  1
  O  O269  1  0.36217501  0.63329019  0.65092024  1
  O  O270  1  0.88846112  0.12238900  0.12212754  1
  O  O271  1  0.85335335  0.11023299  0.63323964  1
  O  O272  1  0.88212741  0.63692106  0.13513696  1
  O  O273  1  0.88450607  0.62137180  0.64216444  1
  O  O274  1  0.26159002  0.26998904  0.12890107  1
  O  O275  1  0.25027906  0.24767760  0.62170076  1
  O  O276  1  0.25819740  0.75878817  0.12264104  1
  O  O277  1  0.25240994  0.76416058  0.61510761  1
  O  O278  1  0.72517333  0.27176243  0.09606749  1
  O  O279  1  0.73650506  0.26442702  0.62204039  1
  O  O280  1  0.76114685  0.76450342  0.13133143  1
  O  O281  1  0.77675029  0.76075620  0.64077972  1
  O  O282  1  0.23510339  0.26094451  0.35194346  1
  O  O283  1  0.24493696  0.24352084  0.87383161  1
  O  O284  1  0.23899679  0.74812543  0.38482587  1
  O  O285  1  0.25448537  0.72837286  0.88876576  1
  O  O286  1  0.74532550  0.26038963  0.39909080  1
  O  O287  1  0.73261395  0.23621769  0.87783267  1
  O  O288  1  0.73298987  0.76162324  0.35918551  1
  O  O289  1  0.72156499  0.79341872  0.89495047  1
  O  O290  1  0.01017476  0.11492832  0.00807341  1
  O  O291  1  -0.00917788  0.08969987  0.48387354  1
  O  O292  1  -0.00562192  0.62145971  0.00741770  1
  O  O293  1  0.01224525  0.60700830  0.50444193  1
  O  O294  1  0.49522275  0.10949121  -0.01078619  1
  O  O295  1  0.49914664  0.12205163  0.51081524  1
  O  O296  1  0.48670988  0.61269334  -0.00282936  1
  O  O297  1  0.51506763  0.61471208  0.49766473  1
  O  O298  1  0.47789980  0.37345775  0.48947148  1
  O  O299  1  0.48535815  0.39108471  0.99093604  1
  O  O300  1  0.49506353  0.88308769  0.49419339  1
  O  O301  1  0.49017140  0.87847449  0.98675938  1
  O  O302  1  1.00572434  0.38603947  0.50629476  1
  O  O303  1  0.99580246  0.38543287  0.98892404  1
  O  O304  1  1.01414160  0.89009091  0.48373221  1
  O  O305  1  0.99476733  0.89115205  0.99992779  1
  O  O306  1  0.55762576  0.50098775  0.35827369  1
  O  O307  1  0.48502628  0.49842459  0.88290429  1
  O  O308  1  0.50503663  0.99359332  0.38538068  1
  O  O309  1  0.49287163  0.98796650  0.88764264  1
  O  O310  1  1.00627020  0.48766816  0.39750858  1
  O  O311  1  0.99365295  0.48197643  0.87624253  1
  O  O312  1  1.01006526  0.98322065  0.36818829  1
  O  O313  1  1.00649413  1.01032656  0.88966904  1
  O  O314  1  0.01162292  0.00484528  0.11582998  1
  O  O315  1  0.02852934  -0.00061390  0.60443050  1
  O  O316  1  -0.01851659  0.50884985  0.10615617  1
  O  O317  1  0.01838816  0.49712644  0.61647943  1
  O  O318  1  0.51149948  -0.00722771  0.10758899  1
  O  O319  1  0.49836561  0.01097903  0.61867637  1
  O  O320  1  0.47854393  0.50444979  0.11586361  1
  O  O321  1  0.49983896  0.54248134  0.64372129  1
  O  O322  1  0.24191094  0.38696149  0.23602029  1
  O  O323  1  0.25221427  0.39098997  0.75512501  1
  O  O324  1  0.23734946  0.86800092  0.23821555  1
  O  O325  1  0.25536431  0.89440732  0.73159088  1
  O  O326  1  0.79292358  0.36737406  0.25158848  1
  O  O327  1  0.74781388  0.37982931  0.73458448  1
  O  O328  1  0.73701807  0.88089629  0.24213653  1
  O  O329  1  0.72026106  0.88634274  0.75796392  1
  O  O330  1  0.26422037  0.13178522  0.23742547  1
  O  O331  1  0.25116030  0.12465509  0.76394693  1
  O  O332  1  0.24226625  0.61969035  0.24462243  1
  O  O333  1  0.24745198  0.62209243  0.76594242  1
  O  O334  1  0.77733965  0.15343665  0.23571488  1
  O  O335  1  0.74387634  0.11218168  0.75700989  1
  O  O336  1  0.76262441  0.63343083  0.25415437  1
  O  O337  1  0.76428361  0.60305706  0.73776487  1
  O  O338  1  0.37061354  0.12177734  0.36333227  1
  O  O339  1  0.35815334  0.13062366  0.87324123  1
  O  O340  1  0.37562813  0.62268479  0.38140275  1
  O  O341  1  0.35658571  0.61696797  0.87624824  1
  O  O342  1  0.87367906  0.12614575  0.35966104  1
  O  O343  1  0.85029285  0.11820528  0.87111387  1
  O  O344  1  0.88335729  0.63422548  0.35870194  1
  O  O345  1  0.88125084  0.59730846  0.85618318  1
  O  O346  1  0.13545851  0.36939971  0.11166441  1
  O  O347  1  0.13294541  0.38686385  0.62271266  1
  O  O348  1  0.13018087  0.87810796  0.12815443  1
  O  O349  1  0.13821392  0.87501455  0.61608014  1
  O  O350  1  0.61519300  0.39763661  0.13031500  1
  O  O351  1  0.61247374  0.40487738  0.59758432  1
  O  O352  1  0.63365625  0.88145231  0.12959918  1
  O  O353  1  0.60216829  0.88744000  0.63644066  1
  O  O354  1  0.09911215  0.25619209  0.25175440  1
  O  O355  1  0.08643700  0.20283299  0.74945860  1
  O  O356  1  0.11808033  0.75263713  0.25403136  1
  O  O357  1  0.09767755  0.75143668  0.71763116  1
  O  O358  1  0.60648019  0.24350738  0.23781379  1
  O  O359  1  0.61558200  0.25130634  0.76878829  1
  O  O360  1  0.60794555  0.76522832  0.24261911  1
  O  O361  1  0.62285584  0.76338083  0.73980810  1
  O  O362  1  0.37681510  0.24556657  0.23696642  1
  O  O363  1  0.38009364  0.23789326  0.75696838  1
  O  O364  1  0.38213738  0.74880678  0.23854763  1
  O  O365  1  0.35357946  0.74439294  0.75971637  1
  O  O366  1  0.91572260  0.23743665  0.25922849  1
  O  O367  1  0.86312326  0.22360996  0.75096235  1
  O  O368  1  0.88363357  0.74449350  0.24329783  1
  O  O369  1  0.86703154  0.72916945  0.77023210  1
  O  O370  1  0.35961755  0.49137359  0.49581434  1
  O  O371  1  0.37531476  0.49541919  0.99375821  1
  O  O372  1  0.38484704  0.99198081  0.50424697  1
  O  O373  1  0.38750784  0.98940807  1.01126471  1
  O  O374  1  0.88838398  0.50227514  0.51083912  1
  O  O375  1  0.88521161  0.50093226  0.97542782  1
  O  O376  1  0.87886207  0.94621156  0.56765553  1
  O  O377  1  0.89130639  0.99426540  1.00677877  1
  O  O378  1  0.11647013  0.00106436  0.00660149  1
  O  O379  1  0.13779484  0.01141838  0.48293089  1
  O  O380  1  0.09873962  0.51330568  -0.00997182  1
  O  O381  1  0.13806435  0.50389401  0.51245393  1
  O  O382  1  0.61298652  -0.01089756  0.00525976  1
  O  O383  1  0.60961292  0.00715312  0.51592186  1
  O  O384  1  0.60506556  0.50429549  0.02066838  1
  O  O385  1  0.61568376  0.46059960  0.54294645  1
  O  O386  1  0.36603771  0.37413800  0.11265694  1
  O  O387  1  0.38498329  0.38902028  0.61573044  1
  O  O388  1  0.36590387  0.87101788  0.12056218  1
  O  O389  1  0.36983631  0.87194898  0.61208877  1
  O  O390  1  0.96611697  0.34635509  0.14281482  1
  O  O391  1  0.87404692  0.36086620  0.63140392  1
  O  O392  1  0.86703734  0.87206014  0.13565308  1
  O  O393  1  0.87232232  0.89280271  0.61713477  1
  O  O394  1  0.12265017  0.14802651  0.36137221  1
  O  O395  1  0.13541980  0.12331601  0.88890804  1
  O  O396  1  0.11656524  0.63237973  0.38808980  1
  O  O397  1  0.12787470  0.62272264  0.87744918  1
  O  O398  1  0.61449818  0.11637279  0.39100741  1
  O  O399  1  0.62030639  0.13119844  0.87531857  1
  O  O400  1  0.62579028  0.64634103  0.36482797  1
  O  O401  1  0.64937899  0.59729692  0.89491477  1
