# generated using pymatgen
data_V73Zn73O256
_symmetry_space_group_name_H-M   'P 1'
_cell_length_a   16.90522558
_cell_length_b   16.89064142
_cell_length_c   16.87578591
_cell_angle_alpha   89.91913074
_cell_angle_beta   89.96714244
_cell_angle_gamma   90.02806707
_symmetry_Int_Tables_number   1
_chemical_formula_structural   V73Zn73O256
_chemical_formula_sum   'V73 Zn73 O256'
_cell_volume   4818.70748211
_cell_formula_units_Z   1
loop_
 _symmetry_equiv_pos_site_id
 _symmetry_equiv_pos_as_xyz
  1  'x, y, z'
loop_
 _atom_site_type_symbol
 _atom_site_label
 _atom_site_symmetry_multiplicity
 _atom_site_fract_x
 _atom_site_fract_y
 _atom_site_fract_z
 _atom_site_occupancy
  V  V0  1  0.75288785  0.74781243  0.50375945  1
  V  V1  1  0.75012305  0.24754217  0.49235393  1
  V  V2  1  0.90012784  -0.00200092  0.89052936  1
  V  V3  1  0.62015926  0.25333053  0.35954303  1
  V  V4  1  0.74199868  0.11525316  0.87945262  1
  V  V5  1  0.25545503  0.00928930  0.24867713  1
  V  V6  1  0.11198455  0.14535012  0.00053188  1
  V  V7  1  0.24361989  0.62455127  0.39058439  1
  V  V8  1  0.37764034  0.75067909  0.12619002  1
  V  V9  1  0.10000860  0.25796108  0.85096087  1
  V  V10  1  0.38031855  0.87861940  0.00334247  1
  V  V11  1  0.75390121  -0.00586040  0.23892790  1
  V  V12  1  0.62059669  0.61352963  0.49636738  1
  V  V13  1  0.62558006  0.74948369  0.37236226  1
  V  V14  1  0.13048634  -0.00076197  0.62093593  1
  V  V15  1  0.12807710  0.87158596  0.25114689  1
  V  V16  1  0.12237749  0.37541390  0.23223431  1
  V  V17  1  0.11950329  -0.00666510  0.10344834  1
  V  V18  1  0.12836559  0.74741765  0.39229983  1
  V  V19  1  0.24509745  0.37746371  0.64319349  1
  V  V20  1  0.87717999  0.87144438  0.50341405  1
  V  V21  1  0.62315908  0.88235058  0.74893124  1
  V  V22  1  0.25684824  0.87591902  0.12796923  1
  V  V23  1  0.62947246  0.74582553  0.88575385  1
  V  V24  1  0.36747711  0.76011598  0.61488007  1
  V  V25  1  0.38171027  0.25141702  0.64247380  1
  V  V26  1  0.50196223  0.38916687  0.36644475  1
  V  V27  1  0.75171968  0.87351254  0.62562839  1
  V  V28  1  0.01341580  0.50738432  0.50590662  1
  V  V29  1  0.01970011  0.37066990  0.38198326  1
  V  V30  1  0.49939562  0.88535738  0.87876083  1
  V  V31  1  0.74615606  0.24317240  0.00581182  1
  V  V32  1  0.11551635  0.87663318  0.75408368  1
  V  V33  1  0.75656963  0.62480627  0.36564917  1
  V  V34  1  0.37391414  0.62495297  0.24671855  1
  V  V35  1  0.87657644  0.00156674  0.37592276  1
  V  V36  1  0.50764083  0.51205916  0.00792912  1
  V  V37  1  0.34178838  0.25638783  0.11037553  1
  V  V38  1  0.36580567  0.62143334  0.76284264  1
  V  V39  1  0.25344656  0.14388490  0.87378857  1
  V  V40  1  0.86542525  0.36103804  -0.04026212  1
  V  V41  1  0.49708290  0.75294310  0.75046614  1
  V  V42  1  0.37336048  0.00651929  0.87993813  1
  V  V43  1  0.88639752  0.12346333  0.23471610  1
  V  V44  1  0.14172377  0.51609947  0.63268196  1
  V  V45  1  0.87762863  0.24789545  0.63294162  1
  V  V46  1  0.24451671  0.49975994  0.23350247  1
  V  V47  1  0.49587963  0.74912829  0.25199224  1
  V  V48  1  0.37542569  0.50194172  0.38040148  1
  V  V49  1  0.73588355  0.37974745  0.62036452  1
  V  V50  1  0.48886200  0.38109015  0.87226366  1
  V  V51  1  0.50258815  0.88870623  0.38514781  1
  V  V52  1  0.49649644  0.12743643  0.64274699  1
  V  V53  1  0.00214043  0.86876864  0.37185654  1
  V  V54  1  0.61764432  0.24830791  0.85652002  1
  V  V55  1  0.75855065  0.00784548  0.74499076  1
  V  V56  1  0.25558270  0.25572322  0.49728393  1
  V  V57  1  0.61792163  0.00480901  0.11407621  1
  V  V58  1  0.63402661  0.46971316  0.13849433  1
  V  V59  1  0.49983318  0.62011035  0.62077511  1
  V  V60  1  0.87537832  0.50408640  0.36663462  1
  V  V61  1  0.87778170  0.37824592  0.50136651  1
  V  V62  1  0.61369381  0.12372744  0.49183428  1
  V  V63  1  0.25723503  -0.00370339  0.74691126  1
  V  V64  1  0.62886081  0.87512858  0.24281893  1
  V  V65  1  0.37933056  0.01193562  0.37765994  1
  V  V66  1  0.12752713  0.13827465  0.49690160  1
  V  V67  1  0.61698818  0.00056589  0.61448331  1
  V  V68  1  0.73393516  0.53913944  0.79134606  1
  V  V69  1  -0.01649232  0.62704110  0.63393637  1
  V  V70  1  -0.03759983  0.50038465  0.01740645  1
  V  V71  1  0.00039952  0.13130202  0.63420462  1
  V  V72  1  0.25014947  0.13666219  0.36858043  1
  Zn  Zn73  1  0.48235996  0.13097162  0.11639806  1
  Zn  Zn74  1  0.35592828  0.88319953  0.50814174  1
  Zn  Zn75  1  0.47290799  0.23677837  0.24527095  1
  Zn  Zn76  1  0.75159052  0.12454560  0.37023285  1
  Zn  Zn77  1  0.00353312  0.00334108  0.50113524  1
  Zn  Zn78  1  0.00798538  0.74280591  0.75966063  1
  Zn  Zn79  1  0.00746968  0.23491034  0.26283522  1
  Zn  Zn80  1  0.38136802  0.38258133  0.50658725  1
  Zn  Zn81  1  0.61743570  0.49187171  0.63632869  1
  Zn  Zn82  1  0.18066461  0.18719540  0.18111930  1
  Zn  Zn83  1  0.19107411  0.18677011  0.68866185  1
  Zn  Zn84  1  0.19631151  0.69408753  0.19782757  1
  Zn  Zn85  1  0.19259026  0.69435524  0.68244119  1
  Zn  Zn86  1  0.69425181  0.17943735  0.18753019  1
  Zn  Zn87  1  0.68606862  0.18655274  0.67879338  1
  Zn  Zn88  1  0.72379118  0.61807931  0.16186225  1
  Zn  Zn89  1  0.68161116  0.68906917  0.68764492  1
  Zn  Zn90  1  0.31401739  0.32020325  0.30081718  1
  Zn  Zn91  1  0.27540027  0.36059404  0.85972292  1
  Zn  Zn92  1  0.30241285  0.82633230  0.33899233  1
  Zn  Zn93  1  0.30776243  0.80762871  0.81259792  1
  Zn  Zn94  1  0.81901056  0.31378588  0.30846848  1
  Zn  Zn95  1  0.78504841  0.30649241  0.80171660  1
  Zn  Zn96  1  0.81175307  0.81221032  0.31299744  1
  Zn  Zn97  1  0.81986659  0.82118956  0.89050443  1
  Zn  Zn98  1  0.19743485  0.43788565  0.44516453  1
  Zn  Zn99  1  0.14396792  0.43383707  0.96397028  1
  Zn  Zn100  1  0.19124893  0.94484069  0.43858216  1
  Zn  Zn101  1  0.19800897  0.90717708  0.92738577  1
  Zn  Zn102  1  0.68979172  0.43522633  0.42890191  1
  Zn  Zn103  1  0.65110209  0.41809477  0.94692713  1
  Zn  Zn104  1  0.69141281  0.93815569  0.43357241  1
  Zn  Zn105  1  0.69554007  0.92318412  0.94345391  1
  Zn  Zn106  1  0.30292913  0.07103937  0.05410887  1
  Zn  Zn107  1  0.31668654  0.06939770  0.55949255  1
  Zn  Zn108  1  0.31871282  0.42662222  0.03841095  1
  Zn  Zn109  1  0.31969901  0.56801122  0.56838103  1
  Zn  Zn110  1  0.81815670  0.05448551  0.05828270  1
  Zn  Zn111  1  0.81174475  0.06420183  0.55955563  1
  Zn  Zn112  1  0.75577910  0.52398156  0.00401751  1
  Zn  Zn113  1  0.81208633  0.56091589  0.56120441  1
  Zn  Zn114  1  0.46338158  0.38651641  0.15594352  1
  Zn  Zn115  1  0.43231656  0.43815522  0.69967826  1
  Zn  Zn116  1  0.44256200  0.94198137  0.19521913  1
  Zn  Zn117  1  0.43834025  0.94276299  0.68694577  1
  Zn  Zn118  1  0.83880678  0.45052634  0.16727879  1
  Zn  Zn119  1  0.91426727  0.45598569  0.80394696  1
  Zn  Zn120  1  0.94502282  0.93925318  0.18765618  1
  Zn  Zn121  1  0.94107555  0.94005743  0.68621492  1
  Zn  Zn122  1  0.06810341  0.05652488  0.31547631  1
  Zn  Zn123  1  0.07375444  0.06787623  0.81108647  1
  Zn  Zn124  1  0.06342601  0.55945915  0.31143680  1
  Zn  Zn125  1  0.05852034  0.51821856  0.80107784  1
  Zn  Zn126  1  0.56302091  0.06917638  0.29970438  1
  Zn  Zn127  1  0.56008687  0.06410053  0.94293280  1
  Zn  Zn128  1  0.58016134  0.57187975  0.27325544  1
  Zn  Zn129  1  0.55575553  0.56189303  0.81342647  1
  Zn  Zn130  1  0.43485573  0.19353365  0.43723072  1
  Zn  Zn131  1  0.43259812  0.20313955  0.94538900  1
  Zn  Zn132  1  0.43686674  0.68762927  0.43443094  1
  Zn  Zn133  1  0.44541471  0.68769635  0.94496070  1
  Zn  Zn134  1  0.94159248  0.18924316  0.44255645  1
  Zn  Zn135  1  0.92989658  0.17555633  0.92317020  1
  Zn  Zn136  1  0.94199939  0.68684498  0.43989167  1
  Zn  Zn137  1  0.98632132  0.63225550  0.90926112  1
  Zn  Zn138  1  0.04737279  0.32963460  0.05745847  1
  Zn  Zn139  1  0.04678418  0.33699671  0.68989913  1
  Zn  Zn140  1  0.14537982  0.73007708  -0.12566206  1
  Zn  Zn141  1  0.06153428  0.81079372  0.56945983  1
  Zn  Zn142  1  0.56548036  0.29651360  0.05219745  1
  Zn  Zn143  1  0.55588699  0.30870630  0.54962620  1
  Zn  Zn144  1  0.56260154  0.81221671  0.06556976  1
  Zn  Zn145  1  0.56103832  0.80738626  0.56073798  1
  O  O146  1  0.13172105  0.10726687  0.10461736  1
  O  O147  1  0.12095426  0.12189025  0.61755594  1
  O  O148  1  0.13892240  0.63569546  0.10172248  1
  O  O149  1  0.14258817  0.61661361  0.61496580  1
  O  O150  1  0.63211133  0.10447245  0.12335844  1
  O  O151  1  0.61261259  0.12074178  0.61439679  1
  O  O152  1  0.61450221  0.60087447  0.16442020  1
  O  O153  1  0.61712135  0.62413944  0.61321077  1
  O  O154  1  0.37988755  0.38792520  0.37264508  1
  O  O155  1  0.39067355  0.37455005  0.87851088  1
  O  O156  1  0.39817013  0.88670894  0.36945209  1
  O  O157  1  0.38171572  0.88413442  0.88297845  1
  O  O158  1  0.88030793  0.38884787  0.38327864  1
  O  O159  1  0.86848047  0.35965362  0.85750574  1
  O  O160  1  0.88306539  0.87892005  0.37999941  1
  O  O161  1  0.88411435  0.90449161  0.85108562  1
  O  O162  1  0.25904689  0.01669737  0.36613424  1
  O  O163  1  0.25837775  -0.00057606  0.86414315  1
  O  O164  1  0.25358890  0.51239636  0.37451809  1
  O  O165  1  0.20398589  0.57207686  0.90945446  1
  O  O166  1  0.76224714  -0.00196147  0.36374171  1
  O  O167  1  0.74230213  0.00299649  0.85632254  1
  O  O168  1  0.76573583  0.50853649  0.37934797  1
  O  O169  1  0.72319999  0.52324357  0.89348249  1
  O  O170  1  0.25312345  0.50147149  0.13676459  1
  O  O171  1  0.24908657  0.48717629  0.61326787  1
  O  O172  1  0.24751740  0.99611412  0.13296368  1
  O  O173  1  0.24616113  1.01634467  0.63846260  1
  O  O174  1  0.74900382  0.51057115  0.12036723  1
  O  O175  1  0.74364189  0.48325186  0.61104847  1
  O  O176  1  0.74767682  0.99635505  0.13373871  1
  O  O177  1  0.74029058  0.99558332  0.62676307  1
  O  O178  1  0.02028735  0.38712506  0.27292346  1
  O  O179  1  0.00819108  0.41989897  0.75326913  1
  O  O180  1  0.01207862  0.88104236  0.26421213  1
  O  O181  1  0.01204952  0.86464970  0.73217477  1
  O  O182  1  0.49166041  0.36051708  0.26795122  1
  O  O183  1  0.50719853  0.39118517  0.77158680  1
  O  O184  1  0.51160609  0.86978848  0.26096420  1
  O  O185  1  0.50495158  0.87479372  0.75638874  1
  O  O186  1  0.50100627  0.12826307  0.23030612  1
  O  O187  1  0.49907530  0.12660884  0.73773564  1
  O  O188  1  0.48522741  0.63979202  0.26919476  1
  O  O189  1  0.49290828  0.63755373  0.74102636  1
  O  O190  1  0.99345784  0.11681599  0.25210930  1
  O  O191  1  1.00540967  0.12282986  0.73301683  1
  O  O192  1  1.00799799  0.64403494  0.25283685  1
  O  O193  1  1.00678040  0.61745596  0.73433991  1
  O  O194  1  0.36293087  0.26636647  0.00774631  1
  O  O195  1  0.36489096  0.25119539  0.50893218  1
  O  O196  1  0.38678252  0.76113125  0.01699613  1
  O  O197  1  0.38437358  0.75381485  0.51230874  1
  O  O198  1  0.85809184  0.24915286  -0.02107880  1
  O  O199  1  0.86643256  0.25861573  0.49720432  1
  O  O200  1  0.80780213  0.73125624  0.04481387  1
  O  O201  1  0.86414897  0.75961688  0.49301157  1
  O  O202  1  0.14404670  0.24088926  0.50815281  1
  O  O203  1  0.11129386  0.24626021  1.00715138  1
  O  O204  1  0.13017516  0.75523302  0.49071938  1
  O  O205  1  0.12185833  0.68160063  1.04536231  1
  O  O206  1  0.63182346  0.24076550  0.48569683  1
  O  O207  1  0.64282293  0.24407398  0.98174618  1
  O  O208  1  0.63322599  0.74511720  0.48778842  1
  O  O209  1  0.61944030  0.75820769  0.98653722  1
  O  O210  1  0.48783943  0.26796665  0.12764886  1
  O  O211  1  0.49153222  0.24170104  0.62162380  1
  O  O212  1  0.49197880  0.75894241  0.14280473  1
  O  O213  1  0.49711592  0.74383734  0.63363327  1
  O  O214  1  0.96805660  0.28057030  0.14043755  1
  O  O215  1  0.98442148  0.25298013  0.63093466  1
  O  O216  1  0.98766884  0.76801526  0.07249169  1
  O  O217  1  1.00524136  0.73079749  0.62893265  1
  O  O218  1  -0.00160193  0.26838245  0.37844169  1
  O  O219  1  0.00197305  0.24457696  0.86268012  1
  O  O220  1  0.01482331  0.75613966  0.38143628  1
  O  O221  1  0.03277606  0.72633371  0.87248529  1
  O  O222  1  0.51369533  0.24637550  0.36673339  1
  O  O223  1  0.51287331  0.26390490  0.87679552  1
  O  O224  1  0.50770650  0.76267010  0.37152697  1
  O  O225  1  0.50262503  0.76776222  0.86676402  1
  O  O226  1  0.24713463  0.13440687  0.49066474  1
  O  O227  1  0.22772863  0.11861460  0.97690394  1
  O  O228  1  0.25267973  0.62475256  0.48875388  1
  O  O229  1  0.24591429  0.62286143  0.94520001  1
  O  O230  1  0.74075189  0.13260839  0.49400868  1
  O  O231  1  0.75396400  0.12360586  0.98566501  1
  O  O232  1  0.74246357  0.63376257  0.49467548  1
  O  O233  1  0.76525289  0.67051765  1.05295409  1
  O  O234  1  0.25049126  0.42113832  -0.04770266  1
  O  O235  1  0.25851043  0.36745667  0.51105031  1
  O  O236  1  0.26830096  0.88122958  0.01951354  1
  O  O237  1  0.26482274  0.86390045  0.44690746  1
  O  O238  1  0.75825249  0.35310561  -0.00864582  1
  O  O239  1  0.75747635  0.36637058  0.49752830  1
  O  O240  1  0.77899214  0.86526196  -0.01428076  1
  O  O241  1  0.75561666  0.86805266  0.50467968  1
  O  O242  1  0.13569251  0.49645234  0.24894070  1
  O  O243  1  0.14829131  0.51265301  0.73175414  1
  O  O244  1  0.13794371  0.99030898  0.24945594  1
  O  O245  1  0.13221508  0.99527480  0.73932236  1
  O  O246  1  0.63496910  0.47381551  0.24330125  1
  O  O247  1  0.63973166  0.51008053  0.74951990  1
  O  O248  1  0.63535046  0.99323932  0.24084933  1
  O  O249  1  0.63097741  0.98971528  0.73092222  1
  O  O250  1  0.36441628  -0.00129189  0.26036306  1
  O  O251  1  0.36338619  -0.00160293  0.75753008  1
  O  O252  1  0.35866365  0.51093622  0.26285814  1
  O  O253  1  0.37057999  0.52148943  0.74894383  1
  O  O254  1  0.87388222  0.00365216  0.25550119  1
  O  O255  1  0.85825508  0.00420225  0.73339921  1
  O  O256  1  0.88391121  0.50399918  0.26957230  1
  O  O257  1  0.81727260  0.49093189  0.76144416  1
  O  O258  1  0.11997517  0.37463922  0.38615107  1
  O  O259  1  0.12151405  0.35244506  0.88056272  1
  O  O260  1  0.11945917  0.86641231  0.37269360  1
  O  O261  1  0.11012188  0.89206775  0.85211756  1
  O  O262  1  0.61440689  0.36382819  0.37604018  1
  O  O263  1  0.64885520  0.34684501  0.85840129  1
  O  O264  1  0.61889513  0.87121217  0.36973071  1
  O  O265  1  0.61566731  0.87654368  0.86579624  1
  O  O266  1  0.36393615  0.14584230  0.11188966  1
  O  O267  1  0.38755117  0.13606369  0.62157475  1
  O  O268  1  0.37057221  0.64009188  0.14320213  1
  O  O269  1  0.38261240  0.64057082  0.63261190  1
  O  O270  1  0.87884637  0.11895118  0.13533047  1
  O  O271  1  0.88512606  0.14014596  0.60817330  1
  O  O272  1  0.96974776  0.61644638  0.18417276  1
  O  O273  1  0.88375621  0.62036443  0.62780898  1
  O  O274  1  0.24073213  0.25355272  0.11192992  1
  O  O275  1  0.26175531  0.25986770  0.62434945  1
  O  O276  1  0.26561702  0.76560651  0.13767991  1
  O  O277  1  0.26863691  0.75633955  0.62141518  1
  O  O278  1  0.74922779  0.23315045  0.10402037  1
  O  O279  1  0.75217050  0.25143691  0.60626015  1
  O  O280  1  0.90366086  0.64842705  0.17034646  1
  O  O281  1  0.74008979  0.76116964  0.61327323  1
  O  O282  1  0.25946417  0.24538556  0.38213723  1
  O  O283  1  0.24712871  0.24369618  0.86417516  1
  O  O284  1  0.23818599  0.73230539  0.36631025  1
  O  O285  1  0.23273092  0.79491343  0.89393366  1
  O  O286  1  0.74229000  0.25316982  0.37905338  1
  O  O287  1  0.74281924  0.22343775  0.86815480  1
  O  O288  1  0.74540851  0.74679652  0.38362841  1
  O  O289  1  0.72755567  0.75776182  0.86664722  1
  O  O290  1  0.01472235  0.12506757  -0.00818227  1
  O  O291  1  0.01380566  0.12815856  0.50735445  1
  O  O292  1  -0.04795549  0.60185485  0.01548555  1
  O  O293  1  -0.00295222  0.61296922  0.51066337  1
  O  O294  1  0.50051278  0.13493758  0.00371877  1
  O  O295  1  0.51189322  0.12885227  0.49704908  1
  O  O296  1  0.50823944  0.61348038  0.00521520  1
  O  O297  1  0.50966801  0.63331772  0.50692638  1
  O  O298  1  0.49178122  0.36521578  0.47353616  1
  O  O299  1  0.53482226  0.38157995  0.97729602  1
  O  O300  1  0.50642369  0.87753086  0.48584722  1
  O  O301  1  0.49080658  0.87694965  0.99213538  1
  O  O302  1  0.99362847  0.38976835  0.49213588  1
  O  O303  1  0.96380665  0.36699924  0.99168392  1
  O  O304  1  0.99073790  0.87307354  0.49453224  1
  O  O305  1  0.95792588  0.80676526  1.01844463  1
  O  O306  1  0.49433119  0.49211050  0.36090385  1
  O  O307  1  0.51353366  0.49229219  0.89260376  1
  O  O308  1  0.49934743  0.99517286  0.36849921  1
  O  O309  1  0.48885657  0.99475038  0.87355013  1
  O  O310  1  0.99523472  0.49907921  0.38767670  1
  O  O311  1  0.97702082  0.51963865  0.88229112  1
  O  O312  1  0.99485120  0.98754913  0.38176011  1
  O  O313  1  0.99773103  1.01398472  0.87355721  1
  O  O314  1  0.02036105  -0.01396651  0.11911536  1
  O  O315  1  0.01009276  0.01141203  0.61974483  1
  O  O316  1  -0.06485647  0.47560855  0.11230173  1
  O  O317  1  0.02255986  0.51368375  0.61613275  1
  O  O318  1  0.51536964  -0.00135093  0.12557781  1
  O  O319  1  0.50640445  0.01371956  0.62544134  1
  O  O320  1  0.52250583  0.47844129  0.11819816  1
  O  O321  1  0.49853433  0.51557398  0.63212938  1
  O  O322  1  0.23127519  0.38948079  0.25678824  1
  O  O323  1  0.25931122  0.37720391  0.74168966  1
  O  O324  1  0.24826634  0.88698445  0.24860267  1
  O  O325  1  0.23983172  0.89299270  0.74706911  1
  O  O326  1  0.79451760  0.35936169  0.21156583  1
  O  O327  1  0.73522699  0.36114967  0.71774666  1
  O  O328  1  0.73826846  0.88217286  0.25843903  1
  O  O329  1  0.74064255  0.88565515  0.73539843  1
  O  O330  1  0.23636085  0.11951152  0.25703052  1
  O  O331  1  0.23692326  0.11253284  0.76810916  1
  O  O332  1  0.25209677  0.61378672  0.25705697  1
  O  O333  1  0.26758599  0.64615227  0.75510374  1
  O  O334  1  0.76742958  0.11166127  0.25244278  1
  O  O335  1  0.74150576  0.11021273  0.74895961  1
  O  O336  1  0.76115779  0.64119391  0.26703372  1
  O  O337  1  0.74781408  0.63488165  0.75886191  1
  O  O338  1  0.36613684  0.12240362  0.37499449  1
  O  O339  1  0.35874864  0.12257210  0.88290983  1
  O  O340  1  0.36109058  0.62453483  0.36945484  1
  O  O341  1  0.38696461  0.63881781  0.86061962  1
  O  O342  1  0.87960274  0.10801381  0.37971509  1
  O  O343  1  0.85753561  0.10131623  0.86999212  1
  O  O344  1  0.87031050  0.61310920  0.38799565  1
  O  O345  1  0.87447707  0.66795789  0.85790932  1
  O  O346  1  0.11390380  0.38300630  0.13352430  1
  O  O347  1  0.14177073  0.38517780  0.63149064  1
  O  O348  1  0.14238141  0.88503362  0.13531615  1
  O  O349  1  0.12500996  0.89406427  0.62214883  1
  O  O350  1  0.64008522  0.37178597  0.11911538  1
  O  O351  1  0.63136958  0.37714592  0.60070506  1
  O  O352  1  0.62364651  0.88150219  0.13654125  1
  O  O353  1  0.62930837  0.88189275  0.62448625  1
  O  O354  1  0.11661197  0.26675328  0.23906684  1
  O  O355  1  0.11717425  0.25682304  0.74745951  1
  O  O356  1  0.13121937  0.76663288  0.25726187  1
  O  O357  1  0.13457817  0.77133615  0.74453973  1
  O  O358  1  0.63726091  0.24684250  0.26131791  1
  O  O359  1  0.62061014  0.23419965  0.75721545  1
  O  O360  1  0.61763507  0.75761724  0.26333511  1
  O  O361  1  0.61257567  0.76664948  0.74858437  1
  O  O362  1  0.35943189  0.25052366  0.22714956  1
  O  O363  1  0.37665272  0.24781148  0.73780323  1
  O  O364  1  0.38105643  0.74870617  0.25105125  1
  O  O365  1  0.38497768  0.75675433  0.74028017  1
  O  O366  1  0.88207278  0.22234648  0.26628833  1
  O  O367  1  0.85619893  0.24424377  0.72870648  1
  O  O368  1  0.87181926  0.79156025  0.20934730  1
  O  O369  1  0.88313654  0.73536502  0.82235618  1
  O  O370  1  0.37545618  0.50496780  0.48544278  1
  O  O371  1  0.40992547  0.49225439  1.01432019  1
  O  O372  1  0.37066357  1.00016689  0.48372004  1
  O  O373  1  0.36908662  0.99406034  0.98922579  1
  O  O374  1  0.88696403  0.49176381  0.50126105  1
  O  O375  1  0.85671001  0.46834089  0.97735002  1
  O  O376  1  0.87302570  0.98745575  0.49228326  1
  O  O377  1  0.88485709  0.99262950  0.99128383  1
  O  O378  1  0.13355828  -0.01898827  0.00521562  1
  O  O379  1  0.13083614  0.01407295  0.50607989  1
  O  O380  1  0.06593314  0.48544723  0.01655514  1
  O  O381  1  0.11613804  0.49836908  0.50264586  1
  O  O382  1  0.62841226  -0.00941631  0.00888163  1
  O  O383  1  0.63365544  0.00911680  0.50626965  1
  O  O384  1  0.63210952  0.50337811  0.02269379  1
  O  O385  1  0.62805322  0.51318468  0.49117687  1
  O  O386  1  0.35522944  0.36822347  0.12713413  1
  O  O387  1  0.37386996  0.36581445  0.62719386  1
  O  O388  1  0.37588194  0.87375285  0.12404305  1
  O  O389  1  0.38535765  0.86714534  0.61943267  1
  O  O390  1  0.89559810  0.29962217  0.12934826  1
  O  O391  1  0.85941425  0.35945897  0.61114238  1
  O  O392  1  0.86830941  0.85067443  0.15880636  1
  O  O393  1  0.86412726  0.88054353  0.61417895  1
  O  O394  1  0.13646181  0.12318945  0.38479276  1
  O  O395  1  0.12749150  0.14822633  0.87995362  1
  O  O396  1  0.13118366  0.63553019  0.37651811  1
  O  O397  1  0.13496972  0.60678814  0.87058221  1
  O  O398  1  0.62914567  0.13382760  0.37555217  1
  O  O399  1  0.63496945  0.12505492  0.87607782  1
  O  O400  1  0.63410559  0.63308041  0.37560561  1
  O  O401  1  0.60943160  0.64928080  0.86723149  1
