# generated using pymatgen
data_V73Zn73O256
_symmetry_space_group_name_H-M   'P 1'
_cell_length_a   16.91145357
_cell_length_b   16.93315657
_cell_length_c   16.93236258
_cell_angle_alpha   90.13766800
_cell_angle_beta   89.93962498
_cell_angle_gamma   89.95514111
_symmetry_Int_Tables_number   1
_chemical_formula_structural   V73Zn73O256
_chemical_formula_sum   'V73 Zn73 O256'
_cell_volume   4848.80582238
_cell_formula_units_Z   1
loop_
 _symmetry_equiv_pos_site_id
 _symmetry_equiv_pos_as_xyz
  1  'x, y, z'
loop_
 _atom_site_type_symbol
 _atom_site_label
 _atom_site_symmetry_multiplicity
 _atom_site_fract_x
 _atom_site_fract_y
 _atom_site_fract_z
 _atom_site_occupancy
  V  V0  1  0.63165583  0.74500502  0.38066944  1
  V  V1  1  0.62822589  0.12596979  0.49125110  1
  V  V2  1  0.37708343  -0.01014058  0.36896572  1
  V  V3  1  0.49980874  0.12146860  0.11166214  1
  V  V4  1  0.88144739  0.87570045  -0.00017749  1
  V  V5  1  0.11732280  0.74747459  0.37583792  1
  V  V6  1  0.87297888  0.50156921  0.88579974  1
  V  V7  1  0.50393243  0.75082251  0.25701060  1
  V  V8  1  -0.00588672  0.61732364  0.62284579  1
  V  V9  1  0.63526028  0.00343842  0.62514878  1
  V  V10  1  0.12322502  0.38849999  0.73780831  1
  V  V11  1  0.76428164  0.49985796  0.25128460  1
  V  V12  1  0.62636390  0.88464368  0.75299610  1
  V  V13  1  0.85428275  0.25005734  0.11174651  1
  V  V14  1  0.13398569  -0.01719752  0.63162684  1
  V  V15  1  0.75281657  0.87395288  0.12708480  1
  V  V16  1  0.63865961  0.24978329  0.37014093  1
  V  V17  1  0.75204288  0.75182278  -0.01038685  1
  V  V18  1  0.01237084  0.23821421  0.23192071  1
  V  V19  1  0.62375471  0.87542793  0.25852452  1
  V  V20  1  0.61556261  0.75834155  0.87758741  1
  V  V21  1  0.50926201  0.25383638  0.76649418  1
  V  V22  1  0.25010549  0.74904592  0.00223188  1
  V  V23  1  0.10752666  0.86800074  0.25461438  1
  V  V24  1  0.50537757  0.62200493  0.12169556  1
  V  V25  1  0.88884004  0.50101938  0.37964244  1
  V  V26  1  0.37194560  0.61616467  0.25072989  1
  V  V27  1  0.35498021  0.14002964  0.74174206  1
  V  V28  1  0.37400567  0.74118060  0.61751286  1
  V  V29  1  0.62645763  0.61549812  0.51325775  1
  V  V30  1  0.86943641  0.63505014  0.75586190  1
  V  V31  1  0.63175862  0.49930554  0.12411239  1
  V  V32  1  0.87422425  0.12586151  0.25513738  1
  V  V33  1  0.37173967  0.00093992  0.85402689  1
  V  V34  1  0.36567869  0.37305511  0.50267071  1
  V  V35  1  0.88783898  0.73920046  0.13726540  1
  V  V36  1  0.49815097  0.74684605  0.73673163  1
  V  V37  1  0.00148270  0.75691219  0.74185765  1
  V  V38  1  0.12615949  0.00322276  0.12903608  1
  V  V39  1  0.75031325  0.61882879  0.37598813  1
  V  V40  1  -0.00861294  -0.00789045  0.48291892  1
  V  V41  1  0.36621650  0.87351332  0.50652484  1
  V  V42  1  0.49945662  0.24636228  0.24761911  1
  V  V43  1  0.12461029  0.75204937  0.87710227  1
  V  V44  1  0.00080930  0.34494488  0.37162404  1
  V  V45  1  0.75205233  0.49531196  0.73285882  1
  V  V46  1  0.00761941  0.00654176  0.00437174  1
  V  V47  1  0.25814846  0.63067694  0.38692807  1
  V  V48  1  0.24758009  0.12505960  0.36869328  1
  V  V49  1  0.49681262  0.49998336  0.50870134  1
  V  V50  1  0.37734222  0.74971941  0.12748251  1
  V  V51  1  0.11823032  0.23696381  0.87327045  1
  V  V52  1  0.25205105  0.22608707  -0.00543317  1
  V  V53  1  0.12431197  0.12152213  0.49994638  1
  V  V54  1  0.37830324  0.12170836  0.24790252  1
  V  V55  1  0.49427265  0.38191369  0.36669761  1
  V  V56  1  0.11627549  0.61348076  0.00913954  1
  V  V57  1  0.39046199  0.87998081  -0.00519105  1
  V  V58  1  0.24996409  0.24934111  0.50965923  1
  V  V59  1  0.00385368  0.38499359  0.88901063  1
  V  V60  1  0.00483577  0.87441856  0.87838795  1
  V  V61  1  0.75208388  0.00749218  0.26237935  1
  V  V62  1  0.87565990  0.37192653  0.51049604  1
  V  V63  1  0.62296673  0.00143973  0.11203283  1
  V  V64  1  0.63048490  0.37605947  0.24662305  1
  V  V65  1  0.87023080  0.85685485  0.48998034  1
  V  V66  1  0.75501379  0.24620006  0.51526058  1
  V  V67  1  0.25206401  0.87417297  0.13767543  1
  V  V68  1  0.26114552  0.62867642  0.86031582  1
  V  V69  1  0.12891920  0.62979534  0.51635808  1
  V  V70  1  0.50295542  -0.00711035  0.49693836  1
  V  V71  1  -0.01260049  0.12417341  0.62961040  1
  V  V72  1  0.63057456  0.62807782  -0.00198412  1
  Zn  Zn73  1  0.49241197  0.12814948  0.62297782  1
  Zn  Zn74  1  0.76116712  0.86442740  0.62235083  1
  Zn  Zn75  1  0.60841886  0.39411095  0.74195196  1
  Zn  Zn76  1  0.36174607  0.37738692  -0.00214510  1
  Zn  Zn77  1  0.26296768  0.49951200  0.73884376  1
  Zn  Zn78  1  -0.00957834  0.25247670  0.74658956  1
  Zn  Zn79  1  0.30794928  0.45709468  0.31787817  1
  Zn  Zn80  1  0.13551927  0.38293636  0.24532641  1
  Zn  Zn81  1  0.39771771  0.48172474  0.86963241  1
  Zn  Zn82  1  0.19481409  0.18679590  0.18195469  1
  Zn  Zn83  1  0.17255722  0.19038916  0.68595072  1
  Zn  Zn84  1  0.18321867  0.68288543  0.19246559  1
  Zn  Zn85  1  0.20202763  0.74495239  0.70068735  1
  Zn  Zn86  1  0.68615784  0.18623942  0.17938777  1
  Zn  Zn87  1  0.64579970  0.24636394  0.65981412  1
  Zn  Zn88  1  0.69666224  0.68639787  0.18982977  1
  Zn  Zn89  1  0.68602319  0.69295786  0.69404524  1
  Zn  Zn90  1  0.30992040  0.29671086  0.31135310  1
  Zn  Zn91  1  0.30260393  0.31301235  0.81531459  1
  Zn  Zn92  1  0.31198037  0.80672527  0.31703673  1
  Zn  Zn93  1  0.31610682  0.82074674  0.81158710  1
  Zn  Zn94  1  0.82100682  0.31743126  0.30280723  1
  Zn  Zn95  1  0.81351249  0.32951831  0.81325749  1
  Zn  Zn96  1  0.81439462  0.81256175  0.31550873  1
  Zn  Zn97  1  0.83424653  0.85566501  0.78816589  1
  Zn  Zn98  1  0.18248918  0.44518438  0.56565838  1
  Zn  Zn99  1  0.19458248  0.44215079  0.92392727  1
  Zn  Zn100  1  0.18794473  0.93867818  0.43539026  1
  Zn  Zn101  1  0.19315340  0.93692343  0.94139739  1
  Zn  Zn102  1  0.69126704  0.43459015  0.56169549  1
  Zn  Zn103  1  0.67603196  0.45228256  0.92144422  1
  Zn  Zn104  1  0.69269324  0.93451538  0.43895562  1
  Zn  Zn105  1  0.69241337  0.93661398  0.93608433  1
  Zn  Zn106  1  0.31048449  0.05565336  0.06238009  1
  Zn  Zn107  1  0.31157144  0.05912638  0.56356578  1
  Zn  Zn108  1  0.32721424  0.56993076  0.04070140  1
  Zn  Zn109  1  0.32128662  0.56463099  0.56281995  1
  Zn  Zn110  1  0.82360026  0.06055103  0.06965575  1
  Zn  Zn111  1  0.81069513  0.06029399  0.55305260  1
  Zn  Zn112  1  0.81247443  0.56446526  0.06603516  1
  Zn  Zn113  1  0.80894054  0.68520090  0.56104761  1
  Zn  Zn114  1  0.43694425  0.43493523  0.17214727  1
  Zn  Zn115  1  0.42475053  0.43396015  0.68941274  1
  Zn  Zn116  1  0.44124216  0.93601271  0.18521023  1
  Zn  Zn117  1  0.44641684  0.93418020  0.68142608  1
  Zn  Zn118  1  0.98565824  0.37872816  0.11426845  1
  Zn  Zn119  1  0.94002810  0.44354566  0.69351589  1
  Zn  Zn120  1  0.93683814  0.93790555  0.18815947  1
  Zn  Zn121  1  0.93554684  0.94830261  0.66860035  1
  Zn  Zn122  1  0.06466970  0.05951387  0.30515898  1
  Zn  Zn123  1  0.05566912  0.05177064  0.80668791  1
  Zn  Zn124  1  0.11341137  0.50813302  0.37961746  1
  Zn  Zn125  1  0.06414344  0.56800258  0.81518906  1
  Zn  Zn126  1  0.56265214  0.06045392  0.31247820  1
  Zn  Zn127  1  0.53651148  0.05483895  0.80659603  1
  Zn  Zn128  1  0.56477965  0.56151204  0.31143504  1
  Zn  Zn129  1  0.57203086  0.57445449  0.80550409  1
  Zn  Zn130  1  0.43990629  0.18635985  0.43406035  1
  Zn  Zn131  1  0.42689541  0.17836802  0.92712092  1
  Zn  Zn132  1  0.44369478  0.68624503  0.43976362  1
  Zn  Zn133  1  0.44246939  0.69174670  0.93682868  1
  Zn  Zn134  1  0.93254460  0.17811739  0.43779400  1
  Zn  Zn135  1  0.99966288  0.22232819  1.00171710  1
  Zn  Zn136  1  0.94492362  0.68044309  0.42990070  1
  Zn  Zn137  1  0.93785678  0.68706478  0.94274504  1
  Zn  Zn138  1  0.15487381  0.34093557  0.06384829  1
  Zn  Zn139  1  0.05907487  0.30344984  0.55899115  1
  Zn  Zn140  1  0.06529909  0.80769351  0.06700376  1
  Zn  Zn141  1  0.05795471  0.81362890  0.55389708  1
  Zn  Zn142  1  0.53745472  0.32589224  0.06892994  1
  Zn  Zn143  1  0.53620374  0.32467085  0.57216043  1
  Zn  Zn144  1  0.56682699  0.81141131  0.07090729  1
  Zn  Zn145  1  0.56818381  0.81482797  0.55980184  1
  O  O146  1  0.13026062  0.10111820  0.13600170  1
  O  O147  1  0.11832125  0.11601779  0.61107877  1
  O  O148  1  0.13585577  0.62699897  0.10851452  1
  O  O149  1  0.11974814  0.63911322  0.61664915  1
  O  O150  1  0.61678572  0.10943758  0.12306363  1
  O  O151  1  0.62799920  0.11025280  0.60832051  1
  O  O152  1  0.62297864  0.62311363  0.12083344  1
  O  O153  1  0.62641183  0.62894491  0.61041612  1
  O  O154  1  0.38110389  0.37456963  0.37505362  1
  O  O155  1  0.37099668  0.37011531  0.88234843  1
  O  O156  1  0.37474481  0.88561583  0.37915788  1
  O  O157  1  0.37937426  0.87212462  0.89075609  1
  O  O158  1  0.89014632  0.38027582  0.37284348  1
  O  O159  1  0.88936444  0.39127747  0.87206408  1
  O  O160  1  0.87411967  0.87232374  0.38827042  1
  O  O161  1  0.88799963  0.86587615  0.89285210  1
  O  O162  1  0.26899710  0.01072906  0.38185200  1
  O  O163  1  0.27289676  -0.01377967  0.88252502  1
  O  O164  1  0.23747649  0.52754677  0.37139474  1
  O  O165  1  0.24576848  0.52419271  0.85887821  1
  O  O166  1  0.74790280  -0.00044001  0.36057604  1
  O  O167  1  0.76785454  0.02826649  0.91121101  1
  O  O168  1  0.75719687  0.50699947  0.36299268  1
  O  O169  1  0.76739689  0.49557396  0.86689297  1
  O  O170  1  0.24817102  0.50321013  0.12178057  1
  O  O171  1  0.25662219  0.50263398  0.62639981  1
  O  O172  1  0.23663463  0.98448245  0.11876327  1
  O  O173  1  0.23295698  0.99801283  0.61484794  1
  O  O174  1  0.74420390  0.50704087  0.14063241  1
  O  O175  1  0.75852574  0.49923141  0.63306468  1
  O  O176  1  0.73923977  0.99148825  0.12857331  1
  O  O177  1  0.73717363  0.99731196  0.61709574  1
  O  O178  1  -0.01012349  0.34132512  0.25996130  1
  O  O179  1  0.00750610  0.37261152  0.75203248  1
  O  O180  1  0.00884052  0.87248197  0.25200694  1
  O  O181  1  -0.00295216  0.85951479  0.76363308  1
  O  O182  1  0.50253730  0.36411463  0.24954120  1
  O  O183  1  0.49127343  0.35517107  0.73882488  1
  O  O184  1  0.51354216  0.86436580  0.24400400  1
  O  O185  1  0.51872267  0.86590793  0.74384929  1
  O  O186  1  0.49555058  0.12931876  0.24678236  1
  O  O187  1  0.49185130  0.14044728  0.74740691  1
  O  O188  1  0.49547454  0.63239745  0.24320837  1
  O  O189  1  0.50613690  0.64770392  0.75175011  1
  O  O190  1  0.98753918  0.12938869  0.25237735  1
  O  O191  1  0.99697682  0.11877759  0.73240741  1
  O  O192  1  1.01949584  0.60041385  0.22693334  1
  O  O193  1  0.99261681  0.63396572  0.74104769  1
  O  O194  1  0.35292336  0.24191870  -0.01102937  1
  O  O195  1  0.36424480  0.26029271  0.48852547  1
  O  O196  1  0.37192837  0.75443332  0.01266985  1
  O  O197  1  0.39289857  0.76632893  0.50505832  1
  O  O198  1  0.88570753  0.23375798  0.01614791  1
  O  O199  1  0.86028784  0.25329347  0.49078171  1
  O  O200  1  0.86819587  0.75607482  0.01070306  1
  O  O201  1  0.87858959  0.75140366  0.49367195  1
  O  O202  1  0.13873199  0.23654768  0.49784373  1
  O  O203  1  0.11391626  0.25066449  0.98310059  1
  O  O204  1  0.12304885  0.74421892  0.48718143  1
  O  O205  1  0.13479018  0.74497743  0.99647541  1
  O  O206  1  0.64018605  0.24423648  0.48982886  1
  O  O207  1  0.61391181  0.29989505  0.97858252  1
  O  O208  1  0.61174470  0.73431772  0.48655772  1
  O  O209  1  0.63232559  0.75138127  0.99649392  1
  O  O210  1  0.51400541  0.22748704  0.13567400  1
  O  O211  1  0.52634345  0.23654271  0.63841060  1
  O  O212  1  0.49650308  0.74212849  0.13696933  1
  O  O213  1  0.50280687  0.75365767  0.63275283  1
  O  O214  1  0.99909425  0.24093332  0.13146000  1
  O  O215  1  1.00261669  0.22900608  0.62457807  1
  O  O216  1  0.98718589  0.75248473  0.12742909  1
  O  O217  1  1.00427528  0.75094206  0.64002010  1
  O  O218  1  0.00402476  0.24262303  0.36834195  1
  O  O219  1  0.00579635  0.27027592  0.87409502  1
  O  O220  1  0.01796521  0.74015853  0.36765428  1
  O  O221  1  0.00786766  0.75589414  0.87519487  1
  O  O222  1  0.50734125  0.25624569  0.36318640  1
  O  O223  1  0.49264274  0.24665416  0.86585606  1
  O  O224  1  0.51201368  0.74151921  0.36188202  1
  O  O225  1  0.51128765  0.75692821  0.86846680  1
  O  O226  1  0.24792702  0.13062592  0.49112178  1
  O  O227  1  0.24807766  0.12537221  0.99866110  1
  O  O228  1  0.24648071  0.63109835  0.49340470  1
  O  O229  1  0.24744204  0.63809334  0.99108941  1
  O  O230  1  0.74235006  0.13530732  0.49498798  1
  O  O231  1  0.76598547  0.08369488  0.96467182  1
  O  O232  1  0.73415413  0.62105531  0.49077616  1
  O  O233  1  0.74010641  0.64115645  1.00889219  1
  O  O234  1  0.24169740  0.36617199  -0.00637377  1
  O  O235  1  0.25605712  0.36371502  0.49748717  1
  O  O236  1  0.25938231  0.86086894  0.01323576  1
  O  O237  1  0.26788977  0.87560372  0.49355721  1
  O  O238  1  0.68138098  0.33692276  -0.02695592  1
  O  O239  1  0.76293973  0.35870680  0.50550881  1
  O  O240  1  0.76038655  0.87245865  0.00800690  1
  O  O241  1  0.76452530  0.87383957  0.49913574  1
  O  O242  1  0.11487401  0.51040480  0.25680921  1
  O  O243  1  0.12077374  0.49085248  0.74633952  1
  O  O244  1  0.12196097  0.98085021  0.23963278  1
  O  O245  1  0.11833309  0.99658634  0.73081724  1
  O  O246  1  0.63206314  0.49324467  0.24326058  1
  O  O247  1  0.64831464  0.51234472  0.74795114  1
  O  O248  1  0.63434261  0.99286379  0.24760333  1
  O  O249  1  0.61781074  0.99506889  0.73768362  1
  O  O250  1  0.38411253  0.00318731  0.26277967  1
  O  O251  1  0.37517168  -0.00718221  0.75159996  1
  O  O252  1  0.38372524  0.50934731  0.24419030  1
  O  O253  1  0.37680785  0.50172715  0.76076944  1
  O  O254  1  0.86133509  0.00978337  0.24051639  1
  O  O255  1  0.87209814  -0.04261526  0.75678025  1
  O  O256  1  0.86494821  0.49400534  0.26208381  1
  O  O257  1  0.86718920  0.51403244  0.75347222  1
  O  O258  1  0.09528357  0.38615908  0.36638654  1
  O  O259  1  0.11099707  0.38134044  0.86266015  1
  O  O260  1  0.13379131  0.86388588  0.36268844  1
  O  O261  1  0.11778986  0.86246569  0.88645969  1
  O  O262  1  0.61195449  0.36365890  0.35580117  1
  O  O263  1  0.57797254  0.42215467  0.86389483  1
  O  O264  1  0.63499831  0.86246262  0.36515543  1
  O  O265  1  0.63002928  0.87714680  0.86175754  1
  O  O266  1  0.38944430  0.10723672  0.13674962  1
  O  O267  1  0.37619805  0.11565805  0.63839514  1
  O  O268  1  0.38485348  0.63232294  0.12878626  1
  O  O269  1  0.39131001  0.64301820  0.60679295  1
  O  O270  1  0.86811211  0.13516880  0.13871978  1
  O  O271  1  0.88870252  0.11541670  0.61553857  1
  O  O272  1  0.87092554  0.64073539  0.12429013  1
  O  O273  1  0.88844572  0.63282560  0.63571215  1
  O  O274  1  0.23026573  0.25027859  0.09736732  1
  O  O275  1  0.24931475  0.24278513  0.60774723  1
  O  O276  1  0.26211754  0.75278401  0.12263743  1
  O  O277  1  0.27438137  0.74458705  0.61471474  1
  O  O278  1  0.75200204  0.24830303  0.11280143  1
  O  O279  1  0.75117909  0.23908036  0.61405299  1
  O  O280  1  0.74919305  0.76396564  0.11839445  1
  O  O281  1  0.74238374  0.75182242  0.61979504  1
  O  O282  1  0.25229406  0.22878513  0.38350483  1
  O  O283  1  0.22671374  0.24660267  0.88360484  1
  O  O284  1  0.24122009  0.73727315  0.37120861  1
  O  O285  1  0.24382015  0.74861982  0.88650402  1
  O  O286  1  0.73944831  0.25872115  0.36853079  1
  O  O287  1  0.80674885  0.22051422  0.87079603  1
  O  O288  1  0.74053294  0.73439153  0.36672731  1
  O  O289  1  0.73928228  0.76141894  0.88887461  1
  O  O290  1  0.00315646  0.10383307  -0.00017840  1
  O  O291  1  0.00852049  0.11726918  0.50056422  1
  O  O292  1  0.01625618  0.62731597  -0.00178639  1
  O  O293  1  0.01128515  0.63487473  0.51621157  1
  O  O294  1  0.48944603  0.12810064  0.01415562  1
  O  O295  1  0.51006154  0.11838825  0.49901451  1
  O  O296  1  0.51429091  0.63857780  0.01341870  1
  O  O297  1  0.51072659  0.60616178  0.48911349  1
  O  O298  1  0.49035627  0.38119536  0.48618263  1
  O  O299  1  0.43441864  0.36616748  1.08439876  1
  O  O300  1  0.49926636  0.88864153  0.49744262  1
  O  O301  1  0.48868814  0.86547900  1.01011861  1
  O  O302  1  0.98571066  0.35268988  0.48301150  1
  O  O303  1  1.00440363  0.38370957  0.98831816  1
  O  O304  1  0.98967328  0.88523749  0.49442380  1
  O  O305  1  0.99692198  0.87296788  0.99621087  1
  O  O306  1  0.50699442  0.48518731  0.37711030  1
  O  O307  1  0.52564009  0.48877900  0.86790199  1
  O  O308  1  0.48696585  1.00631118  0.38323017  1
  O  O309  1  0.47366448  0.99926062  0.88042481  1
  O  O310  1  0.98729966  0.50824937  0.37555896  1
  O  O311  1  0.98919473  0.49437197  0.86747833  1
  O  O312  1  1.00664617  1.00270003  0.38443833  1
  O  O313  1  1.01282695  0.98513910  0.89237877  1
  O  O314  1  0.01487878  -0.01132776  0.11743639  1
  O  O315  1  0.01119119  0.00883920  0.60728308  1
  O  O316  1  0.04101607  0.52948456  0.21893060  1
  O  O317  1  0.00092998  0.51937870  0.62762575  1
  O  O318  1  0.51446612  0.00723492  0.13110874  1
  O  O319  1  0.51170711  0.00488325  0.61207311  1
  O  O320  1  0.51686612  0.51608122  0.13096480  1
  O  O321  1  0.49461878  0.49094193  0.60686469  1
  O  O322  1  0.24773913  0.37590070  0.26361085  1
  O  O323  1  0.22658177  0.37605430  0.75302636  1
  O  O324  1  0.25394305  0.87029841  0.23983415  1
  O  O325  1  0.23274781  0.84430624  0.74544011  1
  O  O326  1  0.74126811  0.38883718  0.25387601  1
  O  O327  1  0.74594631  0.39131390  0.74978903  1
  O  O328  1  0.74481428  0.88568871  0.24343436  1
  O  O329  1  0.72931229  0.86915381  0.74039536  1
  O  O330  1  0.26210701  0.12934396  0.25936293  1
  O  O331  1  0.25563534  0.13275846  0.74074248  1
  O  O332  1  0.26797872  0.63190804  0.25379660  1
  O  O333  1  0.24670378  0.64896133  0.76290297  1
  O  O334  1  0.75104940  0.11195491  0.24645516  1
  O  O335  1  0.68423454  0.14124613  0.83725490  1
  O  O336  1  0.74634865  0.61071689  0.26040890  1
  O  O337  1  0.76635806  0.62354191  0.74653292  1
  O  O338  1  0.37012627  0.11535007  0.36658593  1
  O  O339  1  0.36864830  0.11119370  0.85190915  1
  O  O340  1  0.36612176  0.63148983  0.36990639  1
  O  O341  1  0.36231536  0.63733074  0.87721873  1
  O  O342  1  0.86830138  0.12940830  0.35518377  1
  O  O343  1  0.84929938  0.18326148  0.81778427  1
  O  O344  1  0.86562526  0.60875949  0.38786355  1
  O  O345  1  0.88473671  0.61664005  0.86247905  1
  O  O346  1  0.09241016  0.39107297  0.13918978  1
  O  O347  1  0.11668961  0.37471387  0.62978932  1
  O  O348  1  0.13345131  0.86935476  0.14096673  1
  O  O349  1  0.12082130  0.88338105  0.61562335  1
  O  O350  1  0.61632073  0.38769370  0.13521415  1
  O  O351  1  0.62748401  0.36636856  0.62787183  1
  O  O352  1  0.63248609  0.88370032  0.13643323  1
  O  O353  1  0.62613467  0.89059257  0.62707331  1
  O  O354  1  0.11347271  0.24063952  0.24413744  1
  O  O355  1  0.11685882  0.26064528  0.75990975  1
  O  O356  1  0.12811122  0.75962529  0.25883230  1
  O  O357  1  0.10571473  0.74013125  0.76400712  1
  O  O358  1  0.62056935  0.25421207  0.25098367  1
  O  O359  1  0.61436707  0.26407450  0.77007174  1
  O  O360  1  0.62251116  0.75546920  0.25521871  1
  O  O361  1  0.61771548  0.75984029  0.75967381  1
  O  O362  1  0.38822116  0.23455391  0.25159449  1
  O  O363  1  0.37237104  0.24081562  0.75080160  1
  O  O364  1  0.38561113  0.74432654  0.24371881  1
  O  O365  1  0.39102284  0.76243894  0.73238624  1
  O  O366  1  0.87372791  0.23598576  0.23885388  1
  O  O367  1  0.86893546  0.23844816  0.75430439  1
  O  O368  1  0.86609106  0.75418775  0.23492812  1
  O  O369  1  0.88654477  0.74196725  0.76159504  1
  O  O370  1  0.38547776  0.48790498  0.49271721  1
  O  O371  1  0.38302414  0.49594397  0.98291640  1
  O  O372  1  0.38305511  0.99022460  0.49287770  1
  O  O373  1  0.37650186  0.97946058  1.00909800  1
  O  O374  1  0.87121776  0.47578539  0.48313732  1
  O  O375  1  0.87148164  0.51095870  0.98517655  1
  O  O376  1  0.88912961  1.00206602  0.49125357  1
  O  O377  1  0.89591035  0.98520955  1.01558460  1
  O  O378  1  0.11744423  -0.01382728  0.01579423  1
  O  O379  1  0.11756789  0.00553866  0.50042857  1
  O  O380  1  0.13341999  0.51599460  -0.00817320  1
  O  O381  1  0.12711939  0.52521998  0.49776726  1
  O  O382  1  0.62484674  -0.01052553  0.01405640  1
  O  O383  1  0.62203061  0.00508033  0.50026780  1
  O  O384  1  0.64035941  0.51523843  0.01274413  1
  O  O385  1  0.61553604  0.50624488  0.50467358  1
  O  O386  1  0.26986398  0.43264528  0.12984749  1
  O  O387  1  0.38104760  0.37008828  0.60028355  1
  O  O388  1  0.37245910  0.86507939  0.12320886  1
  O  O389  1  0.37972286  0.87184407  0.60938854  1
  O  O390  1  0.87907860  0.35056809  0.12679310  1
  O  O391  1  0.89043662  0.37843116  0.60803272  1
  O  O392  1  0.86783831  0.86814052  0.12003238  1
  O  O393  1  0.87736271  0.87729707  0.59913806  1
  O  O394  1  0.14337895  0.11032459  0.37804582  1
  O  O395  1  0.10522018  0.13942120  0.86478563  1
  O  O396  1  0.13679282  0.63771270  0.38545770  1
  O  O397  1  0.13344397  0.63781726  0.88439889  1
  O  O398  1  0.61960250  0.13566083  0.38152263  1
  O  O399  1  0.62811714  0.11279931  0.87578488  1
  O  O400  1  0.63275255  0.62750070  0.37901683  1
  O  O401  1  0.62245051  0.64190517  0.88984014  1
