# generated using pymatgen
data_V73Zn73O256
_symmetry_space_group_name_H-M   'P 1'
_cell_length_a   16.94349740
_cell_length_b   16.93620227
_cell_length_c   16.90214676
_cell_angle_alpha   90.04873300
_cell_angle_beta   90.01708262
_cell_angle_gamma   89.92586665
_symmetry_Int_Tables_number   1
_chemical_formula_structural   V73Zn73O256
_chemical_formula_sum   'V73 Zn73 O256'
_cell_volume   4850.20863868
_cell_formula_units_Z   1
loop_
 _symmetry_equiv_pos_site_id
 _symmetry_equiv_pos_as_xyz
  1  'x, y, z'
loop_
 _atom_site_type_symbol
 _atom_site_label
 _atom_site_symmetry_multiplicity
 _atom_site_fract_x
 _atom_site_fract_y
 _atom_site_fract_z
 _atom_site_occupancy
  V  V0  1  0.62599732  -0.00590873  0.12593596  1
  V  V1  1  0.37134374  0.74280987  0.13060770  1
  V  V2  1  0.37999038  0.75038733  0.62637229  1
  V  V3  1  0.75554481  0.86691237  0.12706934  1
  V  V4  1  0.37241480  0.11382919  0.25327584  1
  V  V5  1  0.62553526  0.50307040  0.63015205  1
  V  V6  1  -0.00094569  0.00934863  0.50587189  1
  V  V7  1  0.37083766  0.37322036  0.00134734  1
  V  V8  1  0.37645410  0.25342845  0.12405712  1
  V  V9  1  0.75427114  0.11786122  0.35826470  1
  V  V10  1  0.88289309  0.49971373  0.38526374  1
  V  V11  1  0.62799361  0.36247003  0.74198562  1
  V  V12  1  0.62979599  0.49786525  0.12778927  1
  V  V13  1  0.63979641  0.12175323  0.49383767  1
  V  V14  1  0.88808838  0.37222311  -0.00699795  1
  V  V15  1  0.24616946  0.89521560  0.62901166  1
  V  V16  1  0.34564706  0.50539962  0.86857590  1
  V  V17  1  0.50419972  -0.00151817  -0.00140067  1
  V  V18  1  0.24838749  0.88558973  0.13218141  1
  V  V19  1  0.36190531  -0.00414892  0.87625619  1
  V  V20  1  0.37126184  0.87056200  -0.00151768  1
  V  V21  1  0.11516871  0.74647109  0.36467726  1
  V  V22  1  0.62285326  0.62375510  0.00164641  1
  V  V23  1  0.49415586  0.87245993  0.86776959  1
  V  V24  1  0.63368675  0.62861475  0.49708278  1
  V  V25  1  0.24718629  0.75633053  0.49783332  1
  V  V26  1  0.76027993  0.75236487  0.00131964  1
  V  V27  1  0.62946719  0.74482301  0.37488565  1
  V  V28  1  0.76118796  0.86273833  0.61344608  1
  V  V29  1  0.11859325  0.61924943  -0.00257685  1
  V  V30  1  0.17943244  0.30036322  0.42783139  1
  V  V31  1  0.49659126  0.73532060  0.74517287  1
  V  V32  1  0.27611700  0.63130860  0.37034390  1
  V  V33  1  0.25314800  0.14963518  0.89869469  1
  V  V34  1  0.14950874  0.52280362  0.62891708  1
  V  V35  1  0.50775196  0.25212580  0.25624348  1
  V  V36  1  0.49579685  0.87744080  0.37005964  1
  V  V37  1  0.75708626  0.50302763  0.25248966  1
  V  V38  1  0.01005718  0.22346078  0.75671106  1
  V  V39  1  0.49268045  0.62388981  0.13119067  1
  V  V40  1  0.48483281  0.37760130  0.38304512  1
  V  V41  1  0.37601411  0.88563857  0.49473348  1
  V  V42  1  0.68525079  0.29708998  0.43276487  1
  V  V43  1  0.50613986  0.12506610  0.12098448  1
  V  V44  1  0.48912891  0.50769561  0.50041903  1
  V  V45  1  -0.00891970  0.36540290  0.38879479  1
  V  V46  1  -0.00994823  0.25131723  0.23293201  1
  V  V47  1  -0.00147726  0.64491329  0.13075870  1
  V  V48  1  0.50339032  0.37085400  0.87321089  1
  V  V49  1  0.49559393  0.49926908  -0.00241465  1
  V  V50  1  0.61986740  0.74874476  0.87417156  1
  V  V51  1  0.62360786  0.86963271  0.24622719  1
  V  V52  1  0.12565599  0.36627219  0.25187633  1
  V  V53  1  0.50227305  0.00174600  0.48974679  1
  V  V54  1  0.11930476  0.50183120  0.13128570  1
  V  V55  1  0.00265629  0.88461369  0.36993384  1
  V  V56  1  0.87845519  0.63670553  0.25050025  1
  V  V57  1  0.24122821  0.74743994  -0.00108617  1
  V  V58  1  0.75413616  0.60816829  0.87370894  1
  V  V59  1  0.46932596  0.13849790  0.59330800  1
  V  V60  1  0.49867146  0.24008622  0.75671232  1
  V  V61  1  0.63474932  0.37538808  0.25133834  1
  V  V62  1  0.12444576  0.89435067  0.24521218  1
  V  V63  1  0.13090699  0.12196044  0.50550378  1
  V  V64  1  0.24138354  0.11150239  0.36262201  1
  V  V65  1  0.62394426  0.00141821  0.62675315  1
  V  V66  1  0.10660120  0.76121926  0.87445918  1
  V  V67  1  0.76458272  0.00320807  0.75555146  1
  V  V68  1  0.25334590  0.37843983  0.12668903  1
  V  V69  1  0.87919946  0.00537444  0.35635900  1
  V  V70  1  0.88099507  0.62277342  0.73897879  1
  V  V71  1  0.26140569  0.50525538  0.25818223  1
  V  V72  1  0.36540372  0.12300400  0.75626372  1
  Zn  Zn73  1  0.11513451  0.89682266  0.74768967  1
  Zn  Zn74  1  0.89606021  0.11748922  0.19186409  1
  Zn  Zn75  1  0.80093522  0.45435633  0.70864314  1
  Zn  Zn76  1  0.49153951  0.73921120  0.25651530  1
  Zn  Zn77  1  -0.00707744  0.74480556  0.71924970  1
  Zn  Zn78  1  0.62616476  0.87363886  0.74393567  1
  Zn  Zn79  1  0.11286393  0.11835560  0.01588494  1
  Zn  Zn80  1  -0.01448438  0.01441144  0.01495571  1
  Zn  Zn81  1  0.10154249  0.63200504  0.50185966  1
  Zn  Zn82  1  0.18219098  0.18695219  0.16728738  1
  Zn  Zn83  1  0.16547304  0.09144892  0.71271862  1
  Zn  Zn84  1  0.18839242  0.68900229  0.18872429  1
  Zn  Zn85  1  0.19144095  0.67556724  0.70227189  1
  Zn  Zn86  1  0.68441823  0.18440279  0.18966229  1
  Zn  Zn87  1  0.68987539  0.17896419  0.68623662  1
  Zn  Zn88  1  0.68777342  0.68693764  0.19291576  1
  Zn  Zn89  1  0.68950315  0.68317388  0.68708142  1
  Zn  Zn90  1  0.31683010  0.31044813  0.30508860  1
  Zn  Zn91  1  0.32204847  0.31383982  0.81266436  1
  Zn  Zn92  1  0.31058795  0.81585845  0.31147337  1
  Zn  Zn93  1  0.29180135  0.79505276  0.79866985  1
  Zn  Zn94  1  0.82068122  0.31072993  0.30923156  1
  Zn  Zn95  1  0.82073591  0.28864572  0.75582384  1
  Zn  Zn96  1  0.83088549  0.79798426  0.35731996  1
  Zn  Zn97  1  0.79984568  0.80097357  0.79580720  1
  Zn  Zn98  1  0.20585202  0.47608908  0.47119257  1
  Zn  Zn99  1  0.14017000  0.44244764  0.90877081  1
  Zn  Zn100  1  0.18550281  0.94067788  0.43444047  1
  Zn  Zn101  1  0.17740493  0.93342016  0.94657554  1
  Zn  Zn102  1  0.69224321  0.45870298  0.43853448  1
  Zn  Zn103  1  0.67997972  0.41930794  0.94124100  1
  Zn  Zn104  1  0.68659001  0.93457510  0.42724337  1
  Zn  Zn105  1  0.68791769  0.93286218  0.93775097  1
  Zn  Zn106  1  0.32094786  0.06170780  0.06692443  1
  Zn  Zn107  1  0.31303911  0.07704785  0.55111507  1
  Zn  Zn108  1  0.30548660  0.56127907  0.05899702  1
  Zn  Zn109  1  0.31490823  0.57313341  0.56296051  1
  Zn  Zn110  1  0.81212529  0.04548040  0.05138513  1
  Zn  Zn111  1  0.79713410  0.01294739  0.53692493  1
  Zn  Zn112  1  0.81401866  0.56634994  0.06582226  1
  Zn  Zn113  1  0.80647284  0.56217693  0.56097942  1
  Zn  Zn114  1  0.44439834  0.43818898  0.19260644  1
  Zn  Zn115  1  0.41864106  0.44821784  0.68561409  1
  Zn  Zn116  1  0.43699627  0.93302741  0.18443748  1
  Zn  Zn117  1  0.43541106  0.94779177  0.68265988  1
  Zn  Zn118  1  0.93861868  0.43187193  0.19079033  1
  Zn  Zn119  1  0.96057170  0.43150167  0.79141494  1
  Zn  Zn120  1  0.94448141  0.93699804  0.16520960  1
  Zn  Zn121  1  0.93805616  0.92890236  0.68571251  1
  Zn  Zn122  1  0.06184498  0.07245565  0.30128928  1
  Zn  Zn123  1  0.06861730  0.04750063  0.86112902  1
  Zn  Zn124  1  0.05990800  0.55704398  0.31189499  1
  Zn  Zn125  1  0.07288244  0.57497019  0.79610949  1
  Zn  Zn126  1  0.56724990  0.06204061  0.30696088  1
  Zn  Zn127  1  0.56458560  0.05651813  0.81475357  1
  Zn  Zn128  1  0.56016808  0.55937368  0.31644787  1
  Zn  Zn129  1  0.56066227  0.55904963  0.81433805  1
  Zn  Zn130  1  0.43796659  0.18654143  0.42770194  1
  Zn  Zn131  1  0.43720231  0.18584290  0.93908874  1
  Zn  Zn132  1  0.44520474  0.69416983  0.44647256  1
  Zn  Zn133  1  0.42817440  0.68409153  0.93520890  1
  Zn  Zn134  1  0.93430841  0.18573774  0.44271959  1
  Zn  Zn135  1  0.89850749  0.15989014  0.92045510  1
  Zn  Zn136  1  0.92839220  0.69004322  0.44204650  1
  Zn  Zn137  1  0.93668380  0.68179703  0.94051516  1
  Zn  Zn138  1  0.07894270  0.30922542  0.04931410  1
  Zn  Zn139  1  0.06470440  0.31773894  0.56971107  1
  Zn  Zn140  1  0.05641704  0.82266245  0.05987727  1
  Zn  Zn141  1  0.05329687  0.82986559  0.56918694  1
  Zn  Zn142  1  0.56724433  0.31129359  0.06199675  1
  Zn  Zn143  1  0.50621065  0.33738552  0.59242369  1
  Zn  Zn144  1  0.55713884  0.80892144  0.06024569  1
  Zn  Zn145  1  0.56466942  0.81246515  0.56000181  1
  O  O146  1  0.13404198  0.09444600  0.12705998  1
  O  O147  1  0.14731339  0.12187439  0.60375802  1
  O  O148  1  0.11265998  0.62234066  0.12749357  1
  O  O149  1  0.14558690  0.63153373  0.61068133  1
  O  O150  1  0.61368966  0.11144528  0.13330600  1
  O  O151  1  0.63321279  0.11295447  0.60884881  1
  O  O152  1  0.61591719  0.61808199  0.11872401  1
  O  O153  1  0.62688245  0.61311317  0.61461154  1
  O  O154  1  0.38628444  0.37341025  0.37452407  1
  O  O155  1  0.38206835  0.38611431  0.88309673  1
  O  O156  1  0.38586285  0.87052376  0.38028865  1
  O  O157  1  0.37975507  0.87747789  0.87811175  1
  O  O158  1  0.88277375  0.38558941  0.37462831  1
  O  O159  1  0.91385867  0.38772804  0.89363526  1
  O  O160  1  0.88977759  0.89619822  0.35927312  1
  O  O161  1  0.89731580  0.87292119  0.86593632  1
  O  O162  1  0.24872263  0.01239800  0.36568735  1
  O  O163  1  0.26228378  -0.00505701  0.88865798  1
  O  O164  1  0.25144287  0.52496402  0.37543768  1
  O  O165  1  0.24845464  0.48153288  0.88012962  1
  O  O166  1  0.76653673  0.00590059  0.36913500  1
  O  O167  1  0.73999590  -0.01866502  0.85329514  1
  O  O168  1  0.76817824  0.49932857  0.36371944  1
  O  O169  1  0.73313430  0.51054418  0.88496712  1
  O  O170  1  0.24238607  0.49729215  0.13704229  1
  O  O171  1  0.24535630  0.49242032  0.59784507  1
  O  O172  1  0.25962852  0.98343640  0.12166735  1
  O  O173  1  0.26042364  0.99543730  0.61784106  1
  O  O174  1  0.73681723  0.50568134  0.13192054  1
  O  O175  1  0.73312280  0.49205163  0.62358089  1
  O  O176  1  0.73604066  0.97950933  0.11076663  1
  O  O177  1  0.74144656  0.98857839  0.63592552  1
  O  O178  1  0.00785255  0.36684553  0.25910540  1
  O  O179  1  0.02315686  0.32382521  0.77996439  1
  O  O180  1  0.01595354  0.88596705  0.25200989  1
  O  O181  1  0.02205939  0.85243539  0.69270998  1
  O  O182  1  0.51149143  0.37319365  0.26523849  1
  O  O183  1  0.50044028  0.35717930  0.75770454  1
  O  O184  1  0.50447883  0.87149115  0.25564046  1
  O  O185  1  0.50200137  0.87537906  0.76061394  1
  O  O186  1  0.49468218  0.13300241  0.24611073  1
  O  O187  1  0.49435895  0.13315456  0.76737852  1
  O  O188  1  0.50200024  0.61901617  0.23537351  1
  O  O189  1  0.49740240  0.63628583  0.75466631  1
  O  O190  1  0.99892869  0.14539172  0.24260450  1
  O  O191  1  1.00099896  0.11798791  0.74534180  1
  O  O192  1  0.99115380  0.62237833  0.23973484  1
  O  O193  1  0.98733893  0.62791772  0.74196415  1
  O  O194  1  0.38760200  0.26210419  0.01374579  1
  O  O195  1  0.39013208  0.17223195  0.52938355  1
  O  O196  1  0.36273858  0.75227612  0.00633051  1
  O  O197  1  0.37454184  0.76627591  0.50654217  1
  O  O198  1  0.89816144  0.27017359  -0.00787165  1
  O  O199  1  0.86989619  0.24394753  0.53670424  1
  O  O200  1  0.85814605  0.74713785  -0.00008528  1
  O  O201  1  0.85423739  0.76707547  0.46198893  1
  O  O202  1  0.12503400  0.24264059  0.49786302  1
  O  O203  1  0.14174611  0.21856539  1.05836808  1
  O  O204  1  0.13996965  0.76039440  0.48225266  1
  O  O205  1  0.12311754  0.74840731  0.99890264  1
  O  O206  1  0.63085642  0.23602707  0.49356874  1
  O  O207  1  0.64910209  0.32263720  0.99069958  1
  O  O208  1  0.61440168  0.73536351  0.49223810  1
  O  O209  1  0.62081490  0.73794962  0.99173820  1
  O  O210  1  0.50028235  0.24394436  0.13046640  1
  O  O211  1  0.50732628  0.22574956  0.63591519  1
  O  O212  1  0.48826798  0.73895863  0.12185555  1
  O  O213  1  0.49014897  0.75798094  0.62926142  1
  O  O214  1  1.00542527  0.26618440  0.13548115  1
  O  O215  1  1.02966424  0.25092521  0.65544664  1
  O  O216  1  1.00290917  0.74264663  0.13150871  1
  O  O217  1  0.99251768  0.73394622  0.58807373  1
  O  O218  1  -0.01654358  0.26217579  0.36749294  1
  O  O219  1  -0.01007255  0.21568250  0.85871706  1
  O  O220  1  0.01285643  0.76814379  0.37885562  1
  O  O221  1  0.00691881  0.75404764  0.89032571  1
  O  O222  1  0.49882078  0.26188441  0.36753076  1
  O  O223  1  0.49621147  0.26096590  0.87339336  1
  O  O224  1  0.50675909  0.76202908  0.37402361  1
  O  O225  1  0.49863617  0.75315609  0.86795103  1
  O  O226  1  0.23805225  0.12365884  0.47613382  1
  O  O227  1  0.27226776  0.13367443  0.99767315  1
  O  O228  1  0.25991997  0.64298548  0.48181212  1
  O  O229  1  0.22807424  0.63631359  1.01504164  1
  O  O230  1  0.74392815  0.10817877  0.48666305  1
  O  O231  1  0.67132827  0.13647171  0.94101693  1
  O  O232  1  0.73276546  0.62219732  0.49510985  1
  O  O233  1  0.73982238  0.63298389  0.99774443  1
  O  O234  1  0.26376993  0.38106362  0.01992574  1
  O  O235  1  0.23310209  0.36523497  0.48005657  1
  O  O236  1  0.24922000  0.86737155  0.01488148  1
  O  O237  1  0.26294664  0.87495393  0.49199573  1
  O  O238  1  0.78827037  0.35922358  -0.03528546  1
  O  O239  1  0.73791797  0.36079767  0.48772595  1
  O  O240  1  0.74357468  0.85972997  0.00958840  1
  O  O241  1  0.75091170  0.89877335  0.51300267  1
  O  O242  1  0.13590717  0.49042292  0.25033693  1
  O  O243  1  0.16248754  0.54536401  0.72998693  1
  O  O244  1  0.12916235  0.99262961  0.24734919  1
  O  O245  1  0.11143439  1.00931098  0.76533494  1
  O  O246  1  0.63600622  0.49607056  0.24931866  1
  O  O247  1  0.61505842  0.49735237  0.73360284  1
  O  O248  1  0.61861556  0.98555226  0.23590736  1
  O  O249  1  0.62312188  0.99886069  0.73709147  1
  O  O250  1  0.38213363  0.01542126  0.24385886  1
  O  O251  1  0.38543038  0.01012607  0.76795421  1
  O  O252  1  0.36065533  0.49463864  0.24808186  1
  O  O253  1  0.37114874  0.50015314  0.76993459  1
  O  O254  1  0.88614043  0.01305558  0.25627663  1
  O  O255  1  0.86488818  -0.01026786  0.74661324  1
  O  O256  1  0.86822777  0.50040924  0.25084995  1
  O  O257  1  0.87554127  0.52052308  0.76853463  1
  O  O258  1  0.11333774  0.36391600  0.37101405  1
  O  O259  1  0.11369499  0.34052967  0.94654558  1
  O  O260  1  0.12440067  0.87246434  0.35940351  1
  O  O261  1  0.12019849  0.86434940  0.86821379  1
  O  O262  1  0.62818320  0.36639125  0.37156989  1
  O  O263  1  0.60854761  0.39103300  0.85009114  1
  O  O264  1  0.61563404  0.86860787  0.36550525  1
  O  O265  1  0.61126105  0.85982084  0.87830191  1
  O  O266  1  0.38691033  0.13396623  0.13540291  1
  O  O267  1  0.37588751  0.10701483  0.65399710  1
  O  O268  1  0.38134607  0.63080856  0.11524048  1
  O  O269  1  0.37109670  0.65156827  0.62074002  1
  O  O270  1  0.81798520  0.17104756  0.10015833  1
  O  O271  1  0.82870330  0.20130898  0.58841267  1
  O  O272  1  0.88908698  0.62211192  0.13420174  1
  O  O273  1  0.85725589  0.62152999  0.64136206  1
  O  O274  1  0.27123995  0.26537391  0.14277811  1
  O  O275  1  0.23732333  0.31192744  0.66729343  1
  O  O276  1  0.25543482  0.75552804  0.12003443  1
  O  O277  1  0.26568459  0.77173428  0.60959557  1
  O  O278  1  0.75845339  0.22010222  0.10470614  1
  O  O279  1  0.78077334  0.24650293  0.64001674  1
  O  O280  1  0.73823094  0.75463419  0.11106323  1
  O  O281  1  0.73002240  0.76638186  0.61997211  1
  O  O282  1  0.24625686  0.24658755  0.37027942  1
  O  O283  1  0.26417188  0.24889395  0.88591184  1
  O  O284  1  0.24377743  0.74303654  0.37491247  1
  O  O285  1  0.23229204  0.76010518  0.89591209  1
  O  O286  1  0.75291692  0.23864429  0.37545687  1
  O  O287  1  0.82837813  0.23121798  0.85250308  1
  O  O288  1  0.72683111  0.75541983  0.36409989  1
  O  O289  1  0.73719851  0.74710358  0.88774942  1
  O  O290  1  -0.01107366  0.13640912  0.00061405  1
  O  O291  1  0.01709434  0.12162142  0.49349928  1
  O  O292  1  0.00790282  0.62806041  0.01940197  1
  O  O293  1  -0.00657679  0.66723240  0.53531688  1
  O  O294  1  0.49465486  0.11410946  0.01117394  1
  O  O295  1  0.52074240  0.11765131  0.48772902  1
  O  O296  1  0.50546889  0.61705797  0.00564840  1
  O  O297  1  0.50816691  0.61213108  0.49467168  1
  O  O298  1  0.50603607  0.38301411  0.48600931  1
  O  O299  1  0.49067869  0.38338626  0.99534818  1
  O  O300  1  0.49546346  0.88373237  0.49012519  1
  O  O301  1  0.49177344  0.87719952  0.98979090  1
  O  O302  1  1.00046670  0.36424479  0.48870589  1
  O  O303  1  0.98945448  0.38648725  1.01587656  1
  O  O304  1  1.01496426  0.89872395  0.47967849  1
  O  O305  1  0.98992919  0.90962872  1.06151169  1
  O  O306  1  0.50442994  0.48594035  0.38394233  1
  O  O307  1  0.49724858  0.49409666  0.88790542  1
  O  O308  1  0.50945955  0.98997136  0.37912334  1
  O  O309  1  0.49762014  0.99051827  0.88406319  1
  O  O310  1  0.99079619  0.48254949  0.36979290  1
  O  O311  1  1.05169545  0.47391393  0.84037475  1
  O  O312  1  0.99469982  1.00391364  0.37098925  1
  O  O313  1  0.95999039  1.05572204  0.89773152  1
  O  O314  1  -0.08870893  0.03804166  0.10743115  1
  O  O315  1  -0.00713836  -0.00004823  0.60388733  1
  O  O316  1  0.01706993  0.49989854  0.13823540  1
  O  O317  1  0.04979320  0.46483131  0.65496863  1
  O  O318  1  0.50409911  0.00394082  0.11691170  1
  O  O319  1  0.50267408  0.01989732  0.60997927  1
  O  O320  1  0.50474750  0.50562392  0.11676947  1
  O  O321  1  0.51070668  0.49624646  0.60789941  1
  O  O322  1  0.24474750  0.38366984  0.24764635  1
  O  O323  1  0.24237119  0.35495161  0.72812731  1
  O  O324  1  0.24324902  0.87508079  0.24023918  1
  O  O325  1  0.23868158  0.87745542  0.73248272  1
  O  O326  1  0.74162787  0.38235410  0.25357909  1
  O  O327  1  0.73016933  0.36583430  0.75299971  1
  O  O328  1  0.72930820  0.86345168  0.23437172  1
  O  O329  1  0.74292699  0.87774977  0.73317068  1
  O  O330  1  0.26550104  0.13257694  0.25069729  1
  O  O331  1  0.26261271  0.12511935  0.77046943  1
  O  O332  1  0.24660821  0.62138200  0.26414862  1
  O  O333  1  0.27622495  0.68526695  0.76854045  1
  O  O334  1  0.75753542  0.12774303  0.25704077  1
  O  O335  1  0.74940276  0.10412787  0.74799789  1
  O  O336  1  0.76712880  0.61599593  0.24162722  1
  O  O337  1  0.75374146  0.62877702  0.76856120  1
  O  O338  1  0.36592097  0.12950938  0.35835935  1
  O  O339  1  0.36887058  0.11558692  0.87491745  1
  O  O340  1  0.37414857  0.63989911  0.36784904  1
  O  O341  1  0.36162396  0.60285187  0.89489853  1
  O  O342  1  0.86401297  0.11958468  0.37631738  1
  O  O343  1  0.81367822  0.09404751  0.95287896  1
  O  O344  1  0.89396354  0.60881570  0.35938888  1
  O  O345  1  0.85525931  0.61988662  0.88999388  1
  O  O346  1  0.13668301  0.38429381  0.13301214  1
  O  O347  1  0.10594698  0.40961724  0.63428669  1
  O  O348  1  0.13937445  0.87023905  0.13712405  1
  O  O349  1  0.14975391  0.88469186  0.60196497  1
  O  O350  1  0.61213467  0.38996613  0.14244065  1
  O  O351  1  0.61074193  0.38276008  0.63747932  1
  O  O352  1  0.61942914  0.87704749  0.12929537  1
  O  O353  1  0.61783296  0.89196020  0.62146094  1
  O  O354  1  0.12160334  0.26358804  0.24239188  1
  O  O355  1  0.11240159  0.20000228  0.75994658  1
  O  O356  1  0.12852648  0.75708948  0.26289652  1
  O  O357  1  0.11273912  0.73544325  0.77329751  1
  O  O358  1  0.61699972  0.26024944  0.24258970  1
  O  O359  1  0.61771871  0.25617054  0.74269949  1
  O  O360  1  0.61309430  0.75193016  0.25444590  1
  O  O361  1  0.61457899  0.74907657  0.75943535  1
  O  O362  1  0.39373697  0.24836391  0.24137505  1
  O  O363  1  0.38382985  0.23188859  0.75705882  1
  O  O364  1  0.37453069  0.75358268  0.23529072  1
  O  O365  1  0.38792240  0.77044942  0.73208941  1
  O  O366  1  0.88546970  0.25315196  0.23674125  1
  O  O367  1  0.91199237  0.22188025  0.72233855  1
  O  O368  1  0.86950843  0.73396187  0.26271517  1
  O  O369  1  0.87996054  0.73072446  0.76433845  1
  O  O370  1  0.39020556  0.50844295  0.50167090  1
  O  O371  1  0.37943225  0.49035944  0.99866626  1
  O  O372  1  0.39070449  0.99676930  0.49746200  1
  O  O373  1  0.38695603  0.99075167  0.99518637  1
  O  O374  1  0.87371039  0.51016438  0.48384667  1
  O  O375  1  0.86699217  0.47699347  1.00242579  1
  O  O376  1  0.89487249  1.01115917  0.48104992  1
  O  O377  1  0.88807349  0.92019873  0.92175901  1
  O  O378  1  0.09712745  0.00850589  -0.02830979  1
  O  O379  1  0.11635202  0.01608383  0.48826662  1
  O  O380  1  0.12730599  0.51585272  0.01149817  1
  O  O381  1  0.11194589  0.51857084  0.51669185  1
  O  O382  1  0.61158055  -0.01020803  0.00784642  1
  O  O383  1  0.61779873  0.00310376  0.50191446  1
  O  O384  1  0.61674477  0.50580562  0.00880874  1
  O  O385  1  0.61869085  0.51161025  0.50559141  1
  O  O386  1  0.37627147  0.37234287  0.12206417  1
  O  O387  1  0.40144486  0.36254699  0.62231849  1
  O  O388  1  0.36620219  0.86470477  0.11982536  1
  O  O389  1  0.37030364  0.87903453  0.61187036  1
  O  O390  1  0.86940671  0.37306261  0.09797947  1
  O  O391  1  0.88559638  0.37759149  0.72242112  1
  O  O392  1  0.85138814  0.86771849  0.14047317  1
  O  O393  1  0.85990899  0.86553614  0.62367920  1
  O  O394  1  0.13913024  0.12950490  0.36590602  1
  O  O395  1  0.15186571  0.13058643  0.89726176  1
  O  O396  1  0.11078675  0.64140271  0.37859472  1
  O  O397  1  0.11377569  0.63240557  0.89620592  1
  O  O398  1  0.64500122  0.11575654  0.37391236  1
  O  O399  1  0.63882590  0.14382563  0.87484223  1
  O  O400  1  0.61890826  0.63009392  0.38491141  1
  O  O401  1  0.62869704  0.63088832  0.88327494  1
