# generated using pymatgen
data_V73Zn73O256
_symmetry_space_group_name_H-M   'P 1'
_cell_length_a   16.86104138
_cell_length_b   16.87036785
_cell_length_c   16.87441257
_cell_angle_alpha   90.08683369
_cell_angle_beta   89.87454698
_cell_angle_gamma   90.08949146
_symmetry_Int_Tables_number   1
_chemical_formula_structural   V73Zn73O256
_chemical_formula_sum   'V73 Zn73 O256'
_cell_volume   4799.93705856
_cell_formula_units_Z   1
loop_
 _symmetry_equiv_pos_site_id
 _symmetry_equiv_pos_as_xyz
  1  'x, y, z'
loop_
 _atom_site_type_symbol
 _atom_site_label
 _atom_site_symmetry_multiplicity
 _atom_site_fract_x
 _atom_site_fract_y
 _atom_site_fract_z
 _atom_site_occupancy
  V  V0  1  0.25201479  0.38926962  0.62316455  1
  V  V1  1  0.32300068  0.79284390  0.06856812  1
  V  V2  1  0.75342714  0.13159397  0.87237796  1
  V  V3  1  0.26127130  0.37263636  0.11607488  1
  V  V4  1  0.62795602  0.88084668  0.76023345  1
  V  V5  1  0.25879901  0.51513803  0.74987082  1
  V  V6  1  0.50264125  0.73165130  0.24777965  1
  V  V7  1  0.12664380  0.38004861  0.24903373  1
  V  V8  1  0.88228597  0.62310105  0.26292155  1
  V  V9  1  -0.00473314  0.24403946  0.25060221  1
  V  V10  1  0.61601123  0.50105333  0.12142047  1
  V  V11  1  0.61935789  0.87764281  0.26487857  1
  V  V12  1  0.88480097  0.12460873  0.74010426  1
  V  V13  1  0.01210257  0.87364878  0.87491899  1
  V  V14  1  0.00753107  0.75217035  0.74522380  1
  V  V15  1  0.12149734  0.49919422  0.10421962  1
  V  V16  1  0.87529233  0.24179684  0.12606147  1
  V  V17  1  0.23064025  0.75166393  0.49758805  1
  V  V18  1  0.75858775  0.25553749  -0.00321447  1
  V  V19  1  0.25267722  0.24973105  0.50741357  1
  V  V20  1  0.49742482  -0.00116135  0.49896506  1
  V  V21  1  0.11393803  0.38965975  0.73759418  1
  V  V22  1  0.87023950  0.37334824  0.49001748  1
  V  V23  1  0.00451767  0.00378584  0.00817359  1
  V  V24  1  0.25718949  0.12560256  0.36901259  1
  V  V25  1  0.37821968  0.86615573  0.50482999  1
  V  V26  1  0.35685459  0.12971917  0.74882238  1
  V  V27  1  0.75736571  0.49857325  0.26414523  1
  V  V28  1  0.50032739  0.37708189  0.88862404  1
  V  V29  1  0.50624539  -0.01058720  -0.01686165  1
  V  V30  1  0.75753960  0.12216321  0.36137956  1
  V  V31  1  0.62162803  0.13473750  0.00040407  1
  V  V32  1  0.89619292  -0.02569626  0.37921505  1
  V  V33  1  0.00895495  0.25099585  0.74439258  1
  V  V34  1  0.85980238  0.75039317  0.61680314  1
  V  V35  1  0.37978904  -0.00338260  0.36678585  1
  V  V36  1  0.00052682  0.38616672  0.88514105  1
  V  V37  1  0.12426466  0.72778461  0.89548129  1
  V  V38  1  0.63108276  0.12526181  0.49888661  1
  V  V39  1  0.62826294  0.64059989  0.02094651  1
  V  V40  1  0.37114665  0.50736684  0.89448378  1
  V  V41  1  0.12580130  0.24537642  0.37592751  1
  V  V42  1  0.49168185  0.23075528  0.24711174  1
  V  V43  1  0.85514957  0.62220375  0.75302054  1
  V  V44  1  0.86924814  0.25214927  0.61461516  1
  V  V45  1  0.24956216  -0.01068856  0.24650832  1
  V  V46  1  0.37991296  0.37426132  0.49161725  1
  V  V47  1  0.24144421  0.88273109  0.63600360  1
  V  V48  1  -0.00096195  0.61533960  0.10792918  1
  V  V49  1  0.36169683  0.00535365  0.87601447  1
  V  V50  1  0.11836590  0.10844900  0.50918080  1
  V  V51  1  0.48549509  0.62765249  0.63686015  1
  V  V52  1  0.37528551  0.22181512  0.11312839  1
  V  V53  1  0.45429457  0.82426910  0.82240160  1
  V  V54  1  0.88045806  0.00224179  0.87499860  1
  V  V55  1  0.61587040  0.37312929  0.25273008  1
  V  V56  1  0.63737626  0.74756454  0.87813660  1
  V  V57  1  0.11761512  0.61014821  0.49776523  1
  V  V58  1  0.11953151  -0.06020304  0.14169658  1
  V  V59  1  0.50515992  0.25547049  0.74503401  1
  V  V60  1  0.86877602  0.73875379  0.12465172  1
  V  V61  1  -0.00122017  0.61291673  0.62349465  1
  V  V62  1  0.50877046  0.51342787  0.49632203  1
  V  V63  1  0.00101497  0.38561521  0.38016490  1
  V  V64  1  0.61764525  -0.00457551  0.12331673  1
  V  V65  1  0.11814578  0.76060834  0.35408277  1
  V  V66  1  0.75723501  0.37598386  0.12327691  1
  V  V67  1  0.62596710  0.00564459  0.62675955  1
  V  V68  1  0.86994328  0.86474406  0.00198284  1
  V  V69  1  0.36640167  0.51221929  0.37197625  1
  V  V70  1  0.86034603  0.49869994  0.88494195  1
  V  V71  1  0.01613758  0.12964727  0.12185907  1
  V  V72  1  0.62224868  0.25336067  0.37760895  1
  Zn  Zn73  1  0.48912732  0.12867861  0.62642829  1
  Zn  Zn74  1  0.25151167  0.50262543  0.25113753  1
  Zn  Zn75  1  0.76268873  -0.00061476  0.23800007  1
  Zn  Zn76  1  0.74780345  0.87302092  0.61715660  1
  Zn  Zn77  1  0.69443378  0.44686122  0.70636504  1
  Zn  Zn78  1  0.74051470  0.86603586  0.12114636  1
  Zn  Zn79  1  0.75818997  0.00392158  0.74118217  1
  Zn  Zn80  1  0.81918084  0.55853322  0.44090384  1
  Zn  Zn81  1  0.69692261  0.70554562  0.43068202  1
  Zn  Zn82  1  0.19516394  0.18926142  0.18836176  1
  Zn  Zn83  1  0.18619664  0.19068686  0.68605958  1
  Zn  Zn84  1  0.19501133  0.70436712  0.15982649  1
  Zn  Zn85  1  0.18573547  0.69404628  0.67745180  1
  Zn  Zn86  1  0.68391751  0.18610140  0.18445407  1
  Zn  Zn87  1  0.68596116  0.28063323  0.68680243  1
  Zn  Zn88  1  0.70548101  0.70394526  0.23287667  1
  Zn  Zn89  1  0.66378205  0.69525011  0.68455149  1
  Zn  Zn90  1  0.31395102  0.31436466  0.30873067  1
  Zn  Zn91  1  0.32470796  0.31669933  0.81013200  1
  Zn  Zn92  1  0.30701870  0.78859390  0.29251056  1
  Zn  Zn93  1  0.29112467  0.80759234  0.81948478  1
  Zn  Zn94  1  0.80815705  0.31020534  0.31511834  1
  Zn  Zn95  1  0.82430223  0.31638033  0.80958373  1
  Zn  Zn96  1  0.81042243  0.82250128  0.31539791  1
  Zn  Zn97  1  0.81514304  0.81319547  0.80747556  1
  Zn  Zn98  1  0.18919762  0.43741940  0.43500778  1
  Zn  Zn99  1  0.20950527  0.39466850  0.91025506  1
  Zn  Zn100  1  0.19000762  0.93134222  0.43179577  1
  Zn  Zn101  1  0.19303329  0.91922040  0.96044769  1
  Zn  Zn102  1  0.69361272  0.40974658  0.53548264  1
  Zn  Zn103  1  0.68232337  0.43648518  0.93229748  1
  Zn  Zn104  1  0.69615819  0.94499257  0.43803221  1
  Zn  Zn105  1  0.69242398  0.94318859  0.93746316  1
  Zn  Zn106  1  0.34555532  0.00813515  0.08643756  1
  Zn  Zn107  1  0.30507638  0.06117703  0.56199983  1
  Zn  Zn108  1  0.29528559  0.58069177  0.06154919  1
  Zn  Zn109  1  0.31482831  0.57255745  0.55820906  1
  Zn  Zn110  1  0.81196610  0.06276357  0.06136987  1
  Zn  Zn111  1  0.81589755  0.06259316  0.55550869  1
  Zn  Zn112  1  0.79948544  0.56429399  0.06147943  1
  Zn  Zn113  1  0.68636153  0.56867070  0.56549729  1
  Zn  Zn114  1  0.43722153  0.43577802  0.19074495  1
  Zn  Zn115  1  0.43995188  0.43894683  0.68111818  1
  Zn  Zn116  1  0.45509086  0.89477134  0.16855333  1
  Zn  Zn117  1  0.42807061  0.94735178  0.68516815  1
  Zn  Zn118  1  0.93966434  0.43570755  0.18796492  1
  Zn  Zn119  1  0.86498365  0.47560836  0.63555893  1
  Zn  Zn120  1  0.93629473  0.93709663  0.19031667  1
  Zn  Zn121  1  0.94453288  0.93213041  0.67886847  1
  Zn  Zn122  1  0.06641740  0.05835251  0.31054097  1
  Zn  Zn123  1  0.06364892  0.08654738  0.84307516  1
  Zn  Zn124  1  0.06425564  0.57103177  0.31268836  1
  Zn  Zn125  1  0.05772832  0.55990966  0.80987287  1
  Zn  Zn126  1  0.56327275  0.06068468  0.31081393  1
  Zn  Zn127  1  0.56368048  0.07640059  0.80859750  1
  Zn  Zn128  1  0.55772007  0.55626864  0.31291973  1
  Zn  Zn129  1  0.54876614  0.56724065  0.81770070  1
  Zn  Zn130  1  0.44034504  0.18602614  0.43686141  1
  Zn  Zn131  1  0.43425936  0.18884067  0.92559683  1
  Zn  Zn132  1  0.43961326  0.69499607  0.41855278  1
  Zn  Zn133  1  0.44484507  0.67236455  0.93742811  1
  Zn  Zn134  1  0.94188622  0.17776225  0.43653444  1
  Zn  Zn135  1  0.94396621  0.19806646  0.93525964  1
  Zn  Zn136  1  0.94590468  0.70305468  0.43720819  1
  Zn  Zn137  1  0.93651743  0.68190944  0.93021338  1
  Zn  Zn138  1  0.06990028  0.30865806  0.05947754  1
  Zn  Zn139  1  0.06177081  0.30962870  0.56291287  1
  Zn  Zn140  1  0.04733513  0.80628136  0.07064304  1
  Zn  Zn141  1  0.05422756  0.83490080  0.56563958  1
  Zn  Zn142  1  0.56056271  0.31101479  0.06812042  1
  Zn  Zn143  1  0.55097010  0.30981530  0.56472201  1
  Zn  Zn144  1  0.51782065  0.78650400  0.04226255  1
  Zn  Zn145  1  0.56363490  0.81452554  0.56644679  1
  O  O146  1  0.11638197  0.14064006  0.11872322  1
  O  O147  1  0.13301612  0.12666827  0.60830088  1
  O  O148  1  0.10990347  0.60939983  0.12640769  1
  O  O149  1  0.10768279  0.62720549  0.61506300  1
  O  O150  1  0.63131033  0.11574093  0.10692532  1
  O  O151  1  0.62434959  0.11349186  0.61256605  1
  O  O152  1  0.63066085  0.61293922  0.12457390  1
  O  O153  1  0.61527376  0.58862259  0.66094716  1
  O  O154  1  0.36670462  0.38194045  0.38825669  1
  O  O155  1  0.38427006  0.39405605  0.87180115  1
  O  O156  1  0.36855381  0.89587122  0.39194301  1
  O  O157  1  0.38526159  0.88776371  0.87037642  1
  O  O158  1  0.89344446  0.36015910  0.37840980  1
  O  O159  1  0.88707483  0.39076500  0.86903821  1
  O  O160  1  0.88496472  0.87249672  0.38226637  1
  O  O161  1  0.88389601  0.88333484  0.88371500  1
  O  O162  1  0.25815947  0.00883801  0.36943642  1
  O  O163  1  0.26515555  -0.01189344  0.89767136  1
  O  O164  1  0.25851612  0.50003266  0.37042880  1
  O  O165  1  0.26019277  0.49214774  0.85779340  1
  O  O166  1  0.75552398  0.01330444  0.36779027  1
  O  O167  1  0.76868772  0.01017592  0.87616375  1
  O  O168  1  0.75143519  0.49535764  0.36308521  1
  O  O169  1  0.76078116  0.48841053  0.86696898  1
  O  O170  1  0.23500721  0.49272264  0.12968658  1
  O  O171  1  0.24914289  0.49408886  0.62523914  1
  O  O172  1  0.24550510  1.00213915  0.14283603  1
  O  O173  1  0.24791080  0.98302361  0.61935511  1
  O  O174  1  0.74286868  0.48786867  0.13329738  1
  O  O175  1  0.75162195  0.48474755  0.61031350  1
  O  O176  1  0.73851895  0.99765782  0.12010520  1
  O  O177  1  0.74154356  0.99706977  0.62098261  1
  O  O178  1  0.00812699  0.36502251  0.25863045  1
  O  O179  1  0.01162348  0.37332401  0.73942293  1
  O  O180  1  0.03437919  0.88186697  0.16574836  1
  O  O181  1  -0.00507491  0.86124726  0.76261739  1
  O  O182  1  0.51295832  0.36732351  0.24913312  1
  O  O183  1  0.49155195  0.36103089  0.74440111  1
  O  O184  1  0.51567534  0.88887004  0.25912625  1
  O  O185  1  0.50870973  0.88243449  0.75120827  1
  O  O186  1  0.50129151  0.13194406  0.24319566  1
  O  O187  1  0.48645061  0.13668550  0.75239131  1
  O  O188  1  0.50731820  0.63208659  0.23839334  1
  O  O189  1  0.48361342  0.62140159  0.73675579  1
  O  O190  1  1.01076202  0.13788364  0.24032269  1
  O  O191  1  0.99932339  0.14241285  0.76423140  1
  O  O192  1  0.98325609  0.60705771  0.23826237  1
  O  O193  1  0.99848540  0.63429318  0.73895591  1
  O  O194  1  0.38075281  0.23710651  0.01500717  1
  O  O195  1  0.36656552  0.26277517  0.49032874  1
  O  O196  1  0.40477494  0.74920755  0.01581874  1
  O  O197  1  0.37704507  0.76522036  0.48802696  1
  O  O198  1  0.86873091  0.24983452  0.01067967  1
  O  O199  1  0.89035414  0.24975860  0.51082149  1
  O  O200  1  0.87951184  0.75926444  0.00131085  1
  O  O201  1  0.87956242  0.74902474  0.51826835  1
  O  O202  1  0.13378203  0.24740390  0.48888246  1
  O  O203  1  0.09817567  0.23654031  0.96549762  1
  O  O204  1  0.12602364  0.76165951  0.49395057  1
  O  O205  1  0.10937311  0.74793881  0.99462123  1
  O  O206  1  0.61160903  0.24092007  0.48368941  1
  O  O207  1  0.63786733  0.23982728  1.00732582  1
  O  O208  1  0.65795273  0.79674002  0.49470005  1
  O  O209  1  0.62180511  0.74738974  0.99666265  1
  O  O210  1  0.48515998  0.25085062  0.13559238  1
  O  O211  1  0.49200426  0.24478078  0.63657587  1
  O  O212  1  0.48354950  0.76934523  0.15208504  1
  O  O213  1  0.54869663  0.71466420  0.61727476  1
  O  O214  1  0.99457390  0.24810732  0.12948480  1
  O  O215  1  0.99421948  0.25160548  0.63806414  1
  O  O216  1  0.98613632  0.72343072  0.12386499  1
  O  O217  1  0.99261101  0.75299340  0.63909906  1
  O  O218  1  0.01158137  0.24842135  0.36608592  1
  O  O219  1  -0.01669325  0.27363499  0.85274908  1
  O  O220  1  0.01650905  0.75092420  0.36379409  1
  O  O221  1  0.00656029  0.75471216  0.86862024  1
  O  O222  1  0.51089975  0.24035679  0.35953243  1
  O  O223  1  0.48816621  0.26839432  0.86225919  1
  O  O224  1  0.54463846  0.71517293  0.36716331  1
  O  O225  1  0.51218117  0.76173870  0.88336030  1
  O  O226  1  0.24462343  0.13449396  0.49058564  1
  O  O227  1  0.15351433  0.17758225  0.96755822  1
  O  O228  1  0.22752688  0.63950929  0.51092613  1
  O  O229  1  0.25905193  0.68690858  1.06354660  1
  O  O230  1  0.73646119  0.12154663  0.48567275  1
  O  O231  1  0.74890351  0.13534829  0.99172552  1
  O  O232  1  0.74607228  0.62624815  0.49286591  1
  O  O233  1  0.72294619  0.61579669  0.99096028  1
  O  O234  1  0.23823594  0.37225163  0.01959959  1
  O  O235  1  0.25193565  0.37024393  0.50635009  1
  O  O236  1  0.26371214  0.84054855  0.00254311  1
  O  O237  1  0.25926290  0.86650863  0.50449145  1
  O  O238  1  0.74054741  0.36300407  0.00916805  1
  O  O239  1  0.77222947  0.35667779  0.47278866  1
  O  O240  1  0.76745277  0.87958652  -0.00035433  1
  O  O241  1  0.72448102  0.85236813  0.50148280  1
  O  O242  1  0.12601264  0.48815284  0.25269327  1
  O  O243  1  0.13345779  0.49267863  0.74559390  1
  O  O244  1  0.13465223  0.99319332  0.23948365  1
  O  O245  1  0.12959558  1.01596113  0.75784852  1
  O  O246  1  0.63546609  0.49245331  0.24768238  1
  O  O247  1  0.61897105  0.53103720  0.72626519  1
  O  O248  1  0.62343615  0.99750836  0.23375933  1
  O  O249  1  0.62737175  0.99900148  0.74381964  1
  O  O250  1  0.36775149  0.00028278  0.26410411  1
  O  O251  1  0.37501852  0.00952977  0.76776844  1
  O  O252  1  0.37650771  0.49083277  0.26897676  1
  O  O253  1  0.35904971  0.50188825  0.73981205  1
  O  O254  1  0.87518339  -0.01206017  0.26779082  1
  O  O255  1  0.88751828  0.00552221  0.75684397  1
  O  O256  1  0.86499168  0.50050747  0.24967059  1
  O  O257  1  0.86697693  0.51879736  0.74467616  1
  O  O258  1  0.11791733  0.36617657  0.36976984  1
  O  O259  1  0.10704244  0.38441900  0.85350179  1
  O  O260  1  0.12979199  0.86135453  0.36446364  1
  O  O261  1  0.11369430  0.87250202  0.88535761  1
  O  O262  1  0.62829417  0.35497910  0.36663087  1
  O  O263  1  0.59982267  0.39487686  0.86626594  1
  O  O264  1  0.62879591  0.88799934  0.36260650  1
  O  O265  1  0.62664068  0.87953193  0.86556695  1
  O  O266  1  0.36679784  0.12338019  0.12273607  1
  O  O267  1  0.37156017  0.10937283  0.64378776  1
  O  O268  1  0.34652328  0.61522083  0.18082900  1
  O  O269  1  0.38852940  0.64340659  0.61060417  1
  O  O270  1  0.88281714  0.13741385  0.12290784  1
  O  O271  1  0.88021416  0.12623489  0.63336897  1
  O  O272  1  0.88001918  0.62074271  0.12623025  1
  O  O273  1  0.88544003  0.63989069  0.63834054  1
  O  O274  1  0.26902871  0.25899958  0.13282678  1
  O  O275  1  0.24600585  0.26133337  0.61128505  1
  O  O276  1  0.29814883  0.77458660  0.17279586  1
  O  O277  1  0.24914612  0.75990281  0.60547502  1
  O  O278  1  0.75761507  0.25477861  0.12040716  1
  O  O279  1  0.77044323  0.23826578  0.61853123  1
  O  O280  1  0.76407136  0.74521397  0.13174760  1
  O  O281  1  0.75581777  0.74357340  0.62776166  1
  O  O282  1  0.24331895  0.24561973  0.37844781  1
  O  O283  1  0.24124285  0.29010358  0.87764537  1
  O  O284  1  0.24192583  0.75125911  0.39017064  1
  O  O285  1  0.22347937  0.74363552  0.87720783  1
  O  O286  1  0.73047901  0.23619696  0.36234589  1
  O  O287  1  0.76841463  0.24112267  0.88482506  1
  O  O288  1  0.74660920  0.73562094  0.33604645  1
  O  O289  1  0.73689687  0.76159804  0.87846713  1
  O  O290  1  -0.00187337  0.11230582  0.00244314  1
  O  O291  1  0.01923995  0.12393451  0.49597446  1
  O  O292  1  -0.00887848  0.61494048  0.00925989  1
  O  O293  1  0.00605736  0.63162748  0.51256410  1
  O  O294  1  0.52111970  0.12765688  -0.01472637  1
  O  O295  1  0.50804850  0.11618468  0.50238816  1
  O  O296  1  0.53407178  0.61626225  -0.01211093  1
  O  O297  1  0.50088677  0.61473439  0.49914245  1
  O  O298  1  0.48221722  0.38332444  0.50460138  1
  O  O299  1  0.50102620  0.36656135  0.98875626  1
  O  O300  1  0.48967398  0.88393117  0.50542331  1
  O  O301  1  0.51156490  0.89104685  0.99103198  1
  O  O302  1  1.00007008  0.36795737  0.48366163  1
  O  O303  1  1.00802903  0.36979898  0.98328741  1
  O  O304  1  0.99349566  0.92820082  0.57803463  1
  O  O305  1  0.98805977  0.88285536  0.99454840  1
  O  O306  1  0.48649096  0.50168055  0.38797492  1
  O  O307  1  0.48263726  0.49374321  0.87580191  1
  O  O308  1  0.48789883  1.00812932  0.38357236  1
  O  O309  1  0.50302375  1.00513999  0.88090529  1
  O  O310  1  1.00325004  0.48374408  0.37048464  1
  O  O311  1  0.98812828  0.49111947  0.87052725  1
  O  O312  1  0.99549052  0.99604119  0.37143635  1
  O  O313  1  0.99973167  0.99665337  0.88656845  1
  O  O314  1  -0.00302415  0.01861852  0.12210853  1
  O  O315  1  0.08975421  -0.00245814  0.69785237  1
  O  O316  1  0.01016538  0.49967488  0.12225493  1
  O  O317  1  -0.01718876  0.51588623  0.62562987  1
  O  O318  1  0.51280358  0.00212925  0.10563846  1
  O  O319  1  0.50780619  0.00343873  0.61606059  1
  O  O320  1  0.51720006  0.49391337  0.13434674  1
  O  O321  1  0.48622098  0.51403623  0.60730192  1
  O  O322  1  0.23976055  0.37385904  0.23959537  1
  O  O323  1  0.24262683  0.38347594  0.73195811  1
  O  O324  1  0.25672324  0.89255576  0.26452476  1
  O  O325  1  0.26115016  0.87265545  0.73502824  1
  O  O326  1  0.74315260  0.38046109  0.24451981  1
  O  O327  1  0.74149498  0.35783589  0.75041009  1
  O  O328  1  0.73412372  0.88011007  0.24069165  1
  O  O329  1  0.73798592  0.88481317  0.75082273  1
  O  O330  1  0.24394942  0.11634739  0.26338238  1
  O  O331  1  0.25582887  0.13129427  0.75228026  1
  O  O332  1  0.28612788  0.62224461  0.22796287  1
  O  O333  1  0.24106102  0.61297724  0.73874724  1
  O  O334  1  0.74432820  0.12048545  0.25685694  1
  O  O335  1  0.77257552  0.12253710  0.76213059  1
  O  O336  1  0.76550195  0.60440240  0.24462123  1
  O  O337  1  0.75803761  0.63800923  0.74765643  1
  O  O338  1  0.36518359  0.11426709  0.38337338  1
  O  O339  1  0.36805195  0.11398803  0.86735801  1
  O  O340  1  0.36909519  0.61172911  0.38175266  1
  O  O341  1  0.37784521  0.60772184  0.87326795  1
  O  O342  1  0.85696327  0.13819715  0.37248669  1
  O  O343  1  0.87877752  0.11718238  0.87090134  1
  O  O344  1  0.88682111  0.62335318  0.36688522  1
  O  O345  1  0.87760804  0.61127864  0.86211418  1
  O  O346  1  0.12689108  0.38123975  0.13135177  1
  O  O347  1  0.13460765  0.37471612  0.62904602  1
  O  O348  1  0.17141670  0.85867511  0.12615017  1
  O  O349  1  0.14127240  0.86535728  0.63242238  1
  O  O350  1  0.63386379  0.37876592  0.13535864  1
  O  O351  1  0.63466536  0.36138557  0.61881526  1
  O  O352  1  0.62286389  0.89147255  0.12044519  1
  O  O353  1  0.62403820  0.88783747  0.64017100  1
  O  O354  1  0.12067069  0.25910780  0.25683668  1
  O  O355  1  0.11382460  0.26144571  0.74544547  1
  O  O356  1  0.14269254  0.73304583  0.25799283  1
  O  O357  1  0.10972975  0.74318477  0.75799434  1
  O  O358  1  0.61265385  0.25262396  0.25086263  1
  O  O359  1  0.60435297  0.23705310  0.75318779  1
  O  O360  1  0.61154660  0.77041694  0.23979213  1
  O  O361  1  0.62449604  0.77251696  0.76352607  1
  O  O362  1  0.38796144  0.24887016  0.24914478  1
  O  O363  1  0.37713858  0.23484849  0.75174520  1
  O  O364  1  0.41663716  0.75465986  0.30507048  1
  O  O365  1  0.39236116  0.76365851  0.77379700  1
  O  O366  1  0.88716665  0.25585174  0.24189501  1
  O  O367  1  0.88494759  0.24330015  0.73398638  1
  O  O368  1  0.87644322  0.72675869  0.24017872  1
  O  O369  1  0.88629323  0.73805699  0.75474935  1
  O  O370  1  0.37355780  0.49193977  0.49008971  1
  O  O371  1  0.35497898  0.51059547  0.99496662  1
  O  O372  1  0.38430699  0.99813776  0.49633654  1
  O  O373  1  0.39778782  1.01315557  0.98491582  1
  O  O374  1  0.87622878  0.47571905  0.49802965  1
  O  O375  1  0.86420919  0.50470054  0.98482565  1
  O  O376  1  0.86997135  1.00515621  0.47461971  1
  O  O377  1  0.88536426  0.99221934  0.99504814  1
  O  O378  1  0.11309517  -0.02645117  0.03340991  1
  O  O379  1  0.13428650  0.01018890  0.49246168  1
  O  O380  1  0.12975877  0.49521814  0.00856164  1
  O  O381  1  0.12388976  0.51132557  0.49574947  1
  O  O382  1  0.62181869  0.01075416  0.00146654  1
  O  O383  1  0.61674562  0.00513640  0.50446529  1
  O  O384  1  0.62897120  0.49250709  0.02132928  1
  O  O385  1  0.61046422  0.49433391  0.49774556  1
  O  O386  1  0.36149811  0.38343011  0.12307213  1
  O  O387  1  0.35799026  0.37979480  0.60943999  1
  O  O388  1  0.37050694  0.89147291  0.10038756  1
  O  O389  1  0.36959082  0.87848961  0.60951237  1
  O  O390  1  0.86364061  0.36560350  0.13022456  1
  O  O391  1  0.87754485  0.36052301  0.60505929  1
  O  O392  1  0.87731568  0.86259913  0.11235549  1
  O  O393  1  0.86190659  0.85388495  0.64357866  1
  O  O394  1  0.13431209  0.13193801  0.38007298  1
  O  O395  1  0.15453089  0.12925556  0.90360481  1
  O  O396  1  0.11588159  0.63538276  0.39363110  1
  O  O397  1  0.11043495  0.62892329  0.88379654  1
  O  O398  1  0.63065389  0.12786653  0.37956093  1
  O  O399  1  0.64539808  0.11938316  0.88484455  1
  O  O400  1  0.60113926  0.65232766  0.37349822  1
  O  O401  1  0.62405459  0.64900147  0.86155007  1
