# generated using pymatgen
data_V73Zn73O256
_symmetry_space_group_name_H-M   'P 1'
_cell_length_a   16.95107997
_cell_length_b   16.88895400
_cell_length_c   16.90974128
_cell_angle_alpha   90.19432337
_cell_angle_beta   89.40537076
_cell_angle_gamma   90.05984558
_symmetry_Int_Tables_number   1
_chemical_formula_structural   V73Zn73O256
_chemical_formula_sum   'V73 Zn73 O256'
_cell_volume   4840.73134577
_cell_formula_units_Z   1
loop_
 _symmetry_equiv_pos_site_id
 _symmetry_equiv_pos_as_xyz
  1  'x, y, z'
loop_
 _atom_site_type_symbol
 _atom_site_label
 _atom_site_symmetry_multiplicity
 _atom_site_fract_x
 _atom_site_fract_y
 _atom_site_fract_z
 _atom_site_occupancy
  V  V0  1  0.73064401  0.87264887  0.12560102  1
  V  V1  1  0.88893019  0.23593586  0.63201263  1
  V  V2  1  0.37579904  0.50922272  0.87786399  1
  V  V3  1  0.50542637  0.87462277  0.35651709  1
  V  V4  1  0.63546703  0.11362309  0.00334186  1
  V  V5  1  0.87419119  -0.01276166  0.37607067  1
  V  V6  1  0.73626982  0.62493487  0.86736607  1
  V  V7  1  0.38268453  0.12781860  0.24294165  1
  V  V8  1  0.65406715  0.24839711  0.87838329  1
  V  V9  1  0.50675725  0.25701458  0.24356910  1
  V  V10  1  0.37492142  0.24792536  0.61290324  1
  V  V11  1  0.63461921  0.62351952  0.49911491  1
  V  V12  1  0.34407626  0.11718819  0.80291749  1
  V  V13  1  0.49130033  0.74702724  0.75523979  1
  V  V14  1  0.01070485  0.75422026  0.76844267  1
  V  V15  1  0.12195421  0.23917126  0.36928644  1
  V  V16  1  0.11484773  0.11993330  0.50825175  1
  V  V17  1  0.38191861  -0.00354986  0.37370790  1
  V  V18  1  0.62231742  0.74862592  0.36791046  1
  V  V19  1  0.22448877  -0.02758562  0.74524464  1
  V  V20  1  0.23573629  0.87761033  0.12339581  1
  V  V21  1  0.24380692  0.78378656  0.49376073  1
  V  V22  1  0.49635809  0.37292064  0.38150555  1
  V  V23  1  0.01109315  0.87865111  0.36702173  1
  V  V24  1  0.62744163  0.50647632  0.10418922  1
  V  V25  1  0.75578006  0.10891796  0.86366058  1
  V  V26  1  0.50448338  0.88963669  0.88133146  1
  V  V27  1  0.90194323  0.11114203  0.74384551  1
  V  V28  1  0.63033180  0.49354995  0.62856008  1
  V  V29  1  0.25512648  0.74523996  0.00420423  1
  V  V30  1  0.50193853  0.13189761  0.63671019  1
  V  V31  1  0.73431753  0.73604399  -0.00570880  1
  V  V32  1  0.10504618  0.25856047  0.86699660  1
  V  V33  1  0.25198206  0.13141103  0.37552186  1
  V  V34  1  0.24506956  0.00060115  0.23761698  1
  V  V35  1  0.61826430  0.11870753  0.49749039  1
  V  V36  1  0.63125246  0.24990930  0.37475727  1
  V  V37  1  0.25013714  0.27579382  -0.00793797  1
  V  V38  1  0.49794821  0.49265084  0.50796142  1
  V  V39  1  0.00281075  0.49902053  0.01600564  1
  V  V40  1  -0.00816006  0.37741631  0.37876292  1
  V  V41  1  0.63247427  0.37929857  0.24295231  1
  V  V42  1  -0.00170376  0.51014356  0.50921745  1
  V  V43  1  0.50687006  0.10807415  0.11914224  1
  V  V44  1  0.75426438  0.50299696  0.26238897  1
  V  V45  1  0.00397406  0.74592591  0.23858537  1
  V  V46  1  0.86907445  0.73548040  0.12079281  1
  V  V47  1  0.38647351  0.88430322  0.01075809  1
  V  V48  1  0.74921896  0.48753239  0.74564195  1
  V  V49  1  0.87521433  0.87135764  -0.00165205  1
  V  V50  1  0.48735389  0.36114966  0.87756138  1
  V  V51  1  0.86618488  0.36869767  0.50522383  1
  V  V52  1  0.77218609  0.36384832  0.11343720  1
  V  V53  1  0.74952868  0.77288557  0.50657669  1
  V  V54  1  0.63457420  0.87214160  0.74907739  1
  V  V55  1  0.11169089  0.63710981  0.00234762  1
  V  V56  1  -0.00170043  0.24660346  0.23494913  1
  V  V57  1  0.63980722  -0.00535981  0.62524687  1
  V  V58  1  0.24749257  0.47535827  0.74484217  1
  V  V59  1  0.36224993  0.49708803  0.38850759  1
  V  V60  1  0.86721632  0.62613771  0.26967790  1
  V  V61  1  0.44502603  -0.04818815  0.55099668  1
  V  V62  1  0.73950292  -0.00522300  0.24219306  1
  V  V63  1  0.12658989  0.38710583  0.24659291  1
  V  V64  1  0.89253701  0.50182190  0.87073718  1
  V  V65  1  0.88440213  0.75412135  0.61955115  1
  V  V66  1  0.87876730  0.12482162  0.23402898  1
  V  V67  1  0.24538034  0.64168114  0.85247826  1
  V  V68  1  0.87833060  -0.01894407  0.86460984  1
  V  V69  1  0.75355726  0.12320349  0.37264563  1
  V  V70  1  0.12589066  0.73420549  0.37029113  1
  V  V71  1  0.37720111  0.29564675  0.12833739  1
  V  V72  1  0.48739981  0.63285406  0.62268790  1
  Zn  Zn73  1  0.25146304  0.50529043  0.24385348  1
  Zn  Zn74  1  0.62523865  0.35345702  0.74567282  1
  Zn  Zn75  1  0.38661818  0.64540537  0.23299939  1
  Zn  Zn76  1  0.24199067  0.35370179  0.63066233  1
  Zn  Zn77  1  0.06967715  0.81905058  0.93167767  1
  Zn  Zn78  1  -0.00324416  -0.00175352  0.50494758  1
  Zn  Zn79  1  0.88232378  0.62418471  0.73767908  1
  Zn  Zn80  1  0.13566471  0.13236498  0.00683563  1
  Zn  Zn81  1  0.74987145  0.24725886  0.51563484  1
  Zn  Zn82  1  0.21441060  0.18366530  0.15732491  1
  Zn  Zn83  1  0.18880796  0.17273454  0.69934490  1
  Zn  Zn84  1  0.20130220  0.66300407  0.17231341  1
  Zn  Zn85  1  0.20871878  0.76041430  0.70013319  1
  Zn  Zn86  1  0.69349616  0.18678981  0.18253757  1
  Zn  Zn87  1  0.69481401  0.18316773  0.69102988  1
  Zn  Zn88  1  0.68418973  0.68110919  0.18504401  1
  Zn  Zn89  1  0.68314693  0.68804891  0.68404178  1
  Zn  Zn90  1  0.30985092  0.31847925  0.30612752  1
  Zn  Zn91  1  0.32326448  0.30721214  0.80443511  1
  Zn  Zn92  1  0.30879848  0.81379631  0.30293356  1
  Zn  Zn93  1  0.31097901  0.83901074  0.81979315  1
  Zn  Zn94  1  0.81556837  0.31133357  0.30610102  1
  Zn  Zn95  1  0.91678960  0.32217032  0.94398652  1
  Zn  Zn96  1  0.80053205  0.80741913  0.31068842  1
  Zn  Zn97  1  0.81253898  0.80103244  0.80569191  1
  Zn  Zn98  1  0.17325121  0.42266464  0.45895361  1
  Zn  Zn99  1  0.18174049  0.44465249  0.93106069  1
  Zn  Zn100  1  0.18316553  0.94875031  0.42019576  1
  Zn  Zn101  1  0.21054354  0.94931690  0.93301434  1
  Zn  Zn102  1  0.68766361  0.43522533  0.43959041  1
  Zn  Zn103  1  0.70690112  0.43099404  0.93511606  1
  Zn  Zn104  1  0.68181061  0.94000139  0.43158414  1
  Zn  Zn105  1  0.68526602  0.93126101  0.93997486  1
  Zn  Zn106  1  0.30745274  0.07824306  0.00039947  1
  Zn  Zn107  1  0.30153022  0.06717386  0.56917857  1
  Zn  Zn108  1  0.31007268  0.55187407  0.05653151  1
  Zn  Zn109  1  0.31840304  0.54687631  0.57167327  1
  Zn  Zn110  1  0.81266621  0.05348982  0.05745611  1
  Zn  Zn111  1  0.81494465  0.06394177  0.56066679  1
  Zn  Zn112  1  0.80871270  0.55012422  0.05898528  1
  Zn  Zn113  1  0.81915092  0.56464898  0.55764938  1
  Zn  Zn114  1  0.45137511  0.47523893  0.20041165  1
  Zn  Zn115  1  0.44136136  0.43495501  0.70270384  1
  Zn  Zn116  1  0.43853248  0.93527125  0.18769333  1
  Zn  Zn117  1  0.43648001  0.94628143  0.71727919  1
  Zn  Zn118  1  0.94122860  0.44306239  0.19319856  1
  Zn  Zn119  1  0.92249369  0.43959043  0.67386539  1
  Zn  Zn120  1  0.92859474  0.92656851  0.18402743  1
  Zn  Zn121  1  0.92934062  0.92209297  0.68771862  1
  Zn  Zn122  1  0.06391815  0.06206705  0.17742613  1
  Zn  Zn123  1  0.07579095  0.05058832  0.85582271  1
  Zn  Zn124  1  0.04945474  0.56252299  0.32070594  1
  Zn  Zn125  1  0.07373280  0.57838106  0.79508907  1
  Zn  Zn126  1  0.56111345  0.06373235  0.31037810  1
  Zn  Zn127  1  0.56993932  0.06141118  0.81309349  1
  Zn  Zn128  1  0.55619859  0.56467399  0.31617536  1
  Zn  Zn129  1  0.55971853  0.56343791  0.80902913  1
  Zn  Zn130  1  0.43753348  0.19009485  0.43721229  1
  Zn  Zn131  1  0.43629752  0.19896970  0.95560259  1
  Zn  Zn132  1  0.40726261  0.70738976  0.40023664  1
  Zn  Zn133  1  0.41313272  0.71181331  0.90893582  1
  Zn  Zn134  1  0.93858009  0.18391374  0.43399949  1
  Zn  Zn135  1  0.95636254  0.15775352  0.95545745  1
  Zn  Zn136  1  0.93461119  0.69785026  0.43759549  1
  Zn  Zn137  1  0.92468717  0.68194299  0.93130506  1
  Zn  Zn138  1  0.07028476  0.32156202  0.05907278  1
  Zn  Zn139  1  0.06596043  0.30888736  0.55927005  1
  Zn  Zn140  1  0.04051228  0.97312577  0.02110061  1
  Zn  Zn141  1  0.06010678  0.81615510  0.55113564  1
  Zn  Zn142  1  0.57072327  0.32002255  0.05071775  1
  Zn  Zn143  1  0.56701523  0.30851044  0.56386988  1
  Zn  Zn144  1  0.55475591  0.79806192  0.06358458  1
  Zn  Zn145  1  0.56311072  0.81004170  0.56167908  1
  O  O146  1  0.11852564  0.14318369  0.12299077  1
  O  O147  1  0.13299654  0.13212053  0.60524648  1
  O  O148  1  0.11448771  0.64253866  0.10153291  1
  O  O149  1  0.16043569  0.61058413  0.58041193  1
  O  O150  1  0.61717509  0.13274747  0.11435102  1
  O  O151  1  0.61911236  0.11603118  0.61762020  1
  O  O152  1  0.62939655  0.60628267  0.12408679  1
  O  O153  1  0.62057416  0.61560427  0.61349755  1
  O  O154  1  0.39409284  0.36422776  0.37850356  1
  O  O155  1  0.38509439  0.38456889  0.86886114  1
  O  O156  1  0.38851321  0.88973720  0.36897836  1
  O  O157  1  0.39892779  0.86300256  0.89060107  1
  O  O158  1  0.88545318  0.35462589  0.38799691  1
  O  O159  1  0.87646693  0.40185709  0.87603378  1
  O  O160  1  0.86421804  0.88589682  0.36887473  1
  O  O161  1  0.85537865  0.87483272  0.88482355  1
  O  O162  1  0.26408544  0.00994075  0.35731560  1
  O  O163  1  0.27571821  -0.03949321  0.84040855  1
  O  O164  1  0.26725365  0.47163719  0.41633654  1
  O  O165  1  0.25339389  0.51427122  0.85940433  1
  O  O166  1  0.75549942  0.00468838  0.36452558  1
  O  O167  1  0.75442639  0.00447296  0.88032981  1
  O  O168  1  0.74895698  0.49583163  0.36161998  1
  O  O169  1  0.75519770  0.50894085  0.86007103  1
  O  O170  1  0.23810772  0.54675716  0.13929582  1
  O  O171  1  0.26526376  0.47579278  0.63984541  1
  O  O172  1  0.26635645  0.99001158  0.13585733  1
  O  O173  1  0.25311060  1.00840020  0.65163419  1
  O  O174  1  0.74516092  0.48583743  0.13354090  1
  O  O175  1  0.74412128  0.50779625  0.63680528  1
  O  O176  1  0.74900703  0.98015541  0.12588299  1
  O  O177  1  0.73799616  1.00481924  0.62480955  1
  O  O178  1  -0.00230666  0.36587446  0.26263712  1
  O  O179  1  0.00531907  0.37771969  0.74613409  1
  O  O180  1  -0.02065067  0.85190662  0.25893857  1
  O  O181  1  -0.00703033  0.85251549  0.74782109  1
  O  O182  1  0.51626213  0.37244961  0.26209893  1
  O  O183  1  0.52103271  0.39276404  0.77884721  1
  O  O184  1  0.50483297  0.87118019  0.25764641  1
  O  O185  1  0.50497712  0.86881275  0.76573007  1
  O  O186  1  0.50418759  0.13739207  0.23948868  1
  O  O187  1  0.51712254  0.12612370  0.73375684  1
  O  O188  1  0.47922796  0.57988422  0.23998793  1
  O  O189  1  0.50757312  0.63748641  0.73400470  1
  O  O190  1  0.98723446  0.13322844  0.24164449  1
  O  O191  1  0.99700233  0.10413835  0.75780230  1
  O  O192  1  0.97838518  0.63620208  0.25988343  1
  O  O193  1  0.99687413  0.64565753  0.74749853  1
  O  O194  1  0.37328490  0.27721286  0.02427708  1
  O  O195  1  0.37874456  0.25453296  0.51218368  1
  O  O196  1  0.36113683  0.75707495  0.00011789  1
  O  O197  1  0.33663939  0.74462092  0.48181714  1
  O  O198  1  0.88974104  0.23169028  0.00074878  1
  O  O199  1  0.87407594  0.24949706  0.50681793  1
  O  O200  1  0.85925225  0.75301315  0.00306440  1
  O  O201  1  0.85444872  0.75029721  0.50205045  1
  O  O202  1  0.11408583  0.23092367  0.47585088  1
  O  O203  1  0.13698835  0.25692104  0.99223794  1
  O  O204  1  0.12631232  0.75922180  0.47500369  1
  O  O205  1  0.13981029  0.74550116  0.98649767  1
  O  O206  1  0.63238135  0.24105903  0.49007679  1
  O  O207  1  0.61969070  0.23304903  0.98228374  1
  O  O208  1  0.63271834  0.73846911  0.49868160  1
  O  O209  1  0.63577371  0.74128910  1.00205175  1
  O  O210  1  0.49513698  0.26497672  0.13440214  1
  O  O211  1  0.49903828  0.23743454  0.62354629  1
  O  O212  1  0.48896753  0.71911183  0.12345224  1
  O  O213  1  0.49890312  0.73776816  0.62547222  1
  O  O214  1  1.00003892  0.26326843  0.13844266  1
  O  O215  1  0.98877956  0.24698385  0.61645078  1
  O  O216  1  0.98255523  0.74912567  0.13959311  1
  O  O217  1  0.98525441  0.74951238  0.60590195  1
  O  O218  1  0.00672384  0.24900945  0.36324381  1
  O  O219  1  0.00306275  0.25224016  0.88456894  1
  O  O220  1  0.00783162  0.75903879  0.36770499  1
  O  O221  1  -0.00306810  0.75341969  0.87399355  1
  O  O222  1  0.51460568  0.25204710  0.36654288  1
  O  O223  1  0.49337840  0.25920759  0.87544201  1
  O  O224  1  0.51148685  0.76755884  0.38828030  1
  O  O225  1  0.50930017  0.74233607  0.85826261  1
  O  O226  1  0.24130412  0.11907884  0.48013956  1
  O  O227  1  0.25908010  0.17772065  1.04173368  1
  O  O228  1  0.21752262  0.61058896  0.53291401  1
  O  O229  1  0.24376792  0.64055215  0.99965198  1
  O  O230  1  0.74253850  0.12269711  0.48402135  1
  O  O231  1  0.73917589  0.11833360  0.99737627  1
  O  O232  1  0.73446591  0.61778080  0.49494004  1
  O  O233  1  0.75397161  0.63109945  0.98842302  1
  O  O234  1  0.23968131  0.37595983  0.00929238  1
  O  O235  1  0.16301987  0.36337254  0.55480474  1
  O  O236  1  0.26666543  0.87068884  0.01132636  1
  O  O237  1  0.24983534  0.88410945  0.48445028  1
  O  O238  1  0.76849814  0.37473074  0.01244523  1
  O  O239  1  0.76231468  0.36621744  0.49290784  1
  O  O240  1  0.74744289  0.85950687  0.00825208  1
  O  O241  1  0.74166265  0.87181255  0.50153343  1
  O  O242  1  0.11476408  0.48937067  0.26201180  1
  O  O243  1  0.15213650  0.51117516  0.74617785  1
  O  O244  1  0.14753349  1.01081902  0.24406961  1
  O  O245  1  0.12875582  0.99126576  0.76896204  1
  O  O246  1  0.63821990  0.49178522  0.25083426  1
  O  O247  1  0.63838694  0.50670470  0.74218987  1
  O  O248  1  0.64070607  1.00546233  0.25219119  1
  O  O249  1  0.61945390  0.98837847  0.73463689  1
  O  O250  1  0.38011002  0.01138287  0.25676459  1
  O  O251  1  0.39385478  0.03889428  0.76069305  1
  O  O252  1  0.36055554  0.48105668  0.28478277  1
  O  O253  1  0.35872222  0.49526044  0.76142803  1
  O  O254  1  0.86319606  0.00807778  0.25391511  1
  O  O255  1  0.87116400  -0.00184739  0.75469416  1
  O  O256  1  0.86569636  0.51520679  0.24939072  1
  O  O257  1  0.86296166  0.50321190  0.75012335  1
  O  O258  1  0.10752889  0.36114986  0.37309486  1
  O  O259  1  0.12737633  0.35943064  0.87621156  1
  O  O260  1  0.11076812  0.88171259  0.35449622  1
  O  O261  1  0.10200765  0.92484932  0.93582821  1
  O  O262  1  0.62509441  0.36503216  0.36696055  1
  O  O263  1  0.64876365  0.35195242  0.87586048  1
  O  O264  1  0.61347578  0.86705510  0.37432996  1
  O  O265  1  0.61584352  0.87783572  0.86258649  1
  O  O266  1  0.39701517  0.12930838  0.13665671  1
  O  O267  1  0.39463843  0.13233366  0.61704955  1
  O  O268  1  0.39418421  0.62662934  0.10994258  1
  O  O269  1  0.38906738  0.62087960  0.62156616  1
  O  O270  1  0.86566246  0.11735507  0.13627690  1
  O  O271  1  0.88894563  0.11499777  0.63389246  1
  O  O272  1  0.86335152  0.63370345  0.12348171  1
  O  O273  1  0.85962977  0.64496968  0.62384722  1
  O  O274  1  0.28103147  0.27713467  0.15867060  1
  O  O275  1  0.27185324  0.23644225  0.63484225  1
  O  O276  1  0.24398939  0.76330976  0.11390331  1
  O  O277  1  0.22011020  0.76446684  0.59055499  1
  O  O278  1  0.75598146  0.26486200  0.13264460  1
  O  O279  1  0.77414072  0.22624761  0.62446473  1
  O  O280  1  0.74946729  0.75241693  0.11510370  1
  O  O281  1  0.74210603  0.75204595  0.60743897  1
  O  O282  1  0.23663205  0.24309358  0.36074887  1
  O  O283  1  0.26465895  0.26089275  0.89442203  1
  O  O284  1  0.22603464  0.76346312  0.36913249  1
  O  O285  1  0.25993403  0.74738282  0.88447709  1
  O  O286  1  0.74135261  0.23897271  0.36538907  1
  O  O287  1  0.75262018  0.22354107  0.88160472  1
  O  O288  1  0.72975015  0.75760096  0.38899668  1
  O  O289  1  0.74969954  0.73732301  0.88464887  1
  O  O290  1  0.03271027  0.07948744  -0.03037491  1
  O  O291  1  0.00904927  0.11766184  0.49716964  1
  O  O292  1  0.00928549  0.62743501  -0.01101384  1
  O  O293  1  -0.02535842  0.60622620  0.48796905  1
  O  O294  1  0.50556298  0.12704297  0.01667189  1
  O  O295  1  0.51514551  0.12915478  0.50084372  1
  O  O296  1  0.46050591  0.66161906  0.07551810  1
  O  O297  1  0.51089345  0.60940212  0.51534208  1
  O  O298  1  0.51860790  0.38153953  0.49124767  1
  O  O299  1  0.52094073  0.38478264  0.97023525  1
  O  O300  1  0.50116778  0.88522048  0.49718477  1
  O  O301  1  0.49946267  0.86723004  0.99157874  1
  O  O302  1  0.98946997  0.37490561  0.49008401  1
  O  O303  1  1.00042738  0.39587768  1.00129036  1
  O  O304  1  0.99974213  0.88106764  0.47103755  1
  O  O305  1  0.97312331  0.86037328  1.00174129  1
  O  O306  1  0.49357722  0.48857374  0.38950488  1
  O  O307  1  0.47695016  0.51898048  0.87126762  1
  O  O308  1  0.49707289  0.98963744  0.37005093  1
  O  O309  1  0.50321938  0.98858225  0.87667130  1
  O  O310  1  0.98555920  0.47948801  0.37540811  1
  O  O311  1  0.99129997  0.51221660  0.85666855  1
  O  O312  1  0.98002970  0.98432280  0.35593322  1
  O  O313  1  0.97506644  0.97972645  0.86612317  1
  O  O314  1  -0.00137848  -0.01057202  0.12411197  1
  O  O315  1  0.02111594  -0.03675111  0.61787441  1
  O  O316  1  -0.00451616  0.50868240  0.11462979  1
  O  O317  1  -0.00376517  0.49829081  0.61075584  1
  O  O318  1  0.50846081  0.01030190  0.13110954  1
  O  O319  1  0.50533130  0.01277779  0.61588958  1
  O  O320  1  0.53099006  0.47764338  0.11596484  1
  O  O321  1  0.50943660  0.50471691  0.62685667  1
  O  O322  1  0.22924006  0.38778433  0.26466826  1
  O  O323  1  0.24345277  0.37157494  0.75157597  1
  O  O324  1  0.25635541  0.88718552  0.23563803  1
  O  O325  1  0.24265506  0.86571180  0.73104950  1
  O  O326  1  0.74939941  0.38507280  0.24753935  1
  O  O327  1  0.74563848  0.38998476  0.74718421  1
  O  O328  1  0.75081654  0.87740119  0.23266552  1
  O  O329  1  0.73259624  0.86635420  0.75389946  1
  O  O330  1  0.26740343  0.11876608  0.24815955  1
  O  O331  1  0.24616832  0.10289074  0.77452310  1
  O  O332  1  0.27146473  0.62413793  0.25038025  1
  O  O333  1  0.24755120  0.65717879  0.75460934  1
  O  O334  1  0.75732877  0.11821876  0.25375767  1
  O  O335  1  0.75272799  0.11201730  0.76331541  1
  O  O336  1  0.75546387  0.61170196  0.24849588  1
  O  O337  1  0.74707323  0.62969244  0.76064253  1
  O  O338  1  0.37429259  0.12356080  0.36417088  1
  O  O339  1  0.36433946  0.12274648  0.90661611  1
  O  O340  1  0.37013708  0.59633199  0.39909999  1
  O  O341  1  0.35501708  0.61983568  0.87512153  1
  O  O342  1  0.86588573  0.11567406  0.36368804  1
  O  O343  1  0.86948629  0.10228086  0.86395782  1
  O  O344  1  0.86053334  0.63537302  0.36681253  1
  O  O345  1  0.86094948  0.61480025  0.86415503  1
  O  O346  1  0.11850632  0.37723619  0.14770075  1
  O  O347  1  0.06785135  0.36633416  0.70804733  1
  O  O348  1  0.14139645  0.88689751  0.11763408  1
  O  O349  1  0.08395606  0.91300153  0.61676678  1
  O  O350  1  0.64170614  0.37363117  0.13372582  1
  O  O351  1  0.62203475  0.38721227  0.62913521  1
  O  O352  1  0.63191087  0.86178727  0.12339633  1
  O  O353  1  0.61936633  0.88842250  0.63029909  1
  O  O354  1  0.10910157  0.26105683  0.25657772  1
  O  O355  1  0.12622588  0.24088467  0.76617214  1
  O  O356  1  0.10646899  0.73962399  0.25089460  1
  O  O357  1  0.10995727  0.75078161  0.75362455  1
  O  O358  1  0.62266521  0.25697789  0.25435892  1
  O  O359  1  0.63378499  0.23949365  0.77087376  1
  O  O360  1  0.62719615  0.73657603  0.26938168  1
  O  O361  1  0.61009925  0.76831418  0.73353985  1
  O  O362  1  0.39358470  0.24876903  0.24927683  1
  O  O363  1  0.36974547  0.20883024  0.76253325  1
  O  O364  1  0.38920843  0.74031280  0.29198240  1
  O  O365  1  0.39302648  0.76221422  0.75354845  1
  O  O366  1  0.88500585  0.23463026  0.25296630  1
  O  O367  1  0.88582557  0.22025588  0.73773487  1
  O  O368  1  0.86416749  0.73539174  0.24210816  1
  O  O369  1  0.88319928  0.74750230  0.73518913  1
  O  O370  1  0.39335405  0.48465362  0.50734775  1
  O  O371  1  0.35947909  0.49411771  0.97712931  1
  O  O372  1  0.37862010  1.00883794  0.49123065  1
  O  O373  1  0.37835075  0.98272815  1.00392005  1
  O  O374  1  0.87718894  0.47512923  0.50827093  1
  O  O375  1  0.89615657  0.51759764  0.98423753  1
  O  O376  1  0.87773717  1.00675605  0.47962280  1
  O  O377  1  0.86780506  0.97940310  0.98774951  1
  O  O378  1  0.20255188  0.03772709  0.00111693  1
  O  O379  1  0.12001733  0.01705813  0.48540928  1
  O  O380  1  0.10912574  0.51895502  -0.00894664  1
  O  O381  1  0.09484971  0.50385923  0.48093196  1
  O  O382  1  0.62229490  0.01421984  -0.00354522  1
  O  O383  1  0.62923621  0.00790723  0.51067553  1
  O  O384  1  0.64608492  0.49831821  0.00537028  1
  O  O385  1  0.62221478  0.50559906  0.50653008  1
  O  O386  1  0.38669556  0.39302179  0.14395195  1
  O  O387  1  0.38615262  0.34451576  0.65048357  1
  O  O388  1  0.38739264  0.86746292  0.11317792  1
  O  O389  1  0.39340643  0.90026625  0.61952052  1
  O  O390  1  0.86930785  0.37873310  0.13493795  1
  O  O391  1  0.87504970  0.35275090  0.61406638  1
  O  O392  1  0.85845589  0.86027410  0.11179302  1
  O  O393  1  0.86554188  0.85543488  0.62179713  1
  O  O394  1  0.13553223  0.13476850  0.36332019  1
  O  O395  1  0.13309772  0.15136097  0.88563420  1
  O  O396  1  0.12240496  0.63511333  0.37163681  1
  O  O397  1  0.14424507  0.62801069  0.87993407  1
  O  O398  1  0.63193008  0.13013304  0.37737093  1
  O  O399  1  0.63878522  0.12273861  0.88278651  1
  O  O400  1  0.60993347  0.63580507  0.39070313  1
  O  O401  1  0.63792148  0.61607630  0.87534103  1
