# generated using pymatgen
data_V73Zn73O256
_symmetry_space_group_name_H-M   'P 1'
_cell_length_a   16.83952833
_cell_length_b   16.85828208
_cell_length_c   16.83228356
_cell_angle_alpha   90.02854490
_cell_angle_beta   90.01807935
_cell_angle_gamma   90.04400705
_symmetry_Int_Tables_number   1
_chemical_formula_structural   V73Zn73O256
_chemical_formula_sum   'V73 Zn73 O256'
_cell_volume   4778.43930861
_cell_formula_units_Z   1
loop_
 _symmetry_equiv_pos_site_id
 _symmetry_equiv_pos_as_xyz
  1  'x, y, z'
loop_
 _atom_site_type_symbol
 _atom_site_label
 _atom_site_symmetry_multiplicity
 _atom_site_fract_x
 _atom_site_fract_y
 _atom_site_fract_z
 _atom_site_occupancy
  V  V0  1  0.86985546  0.75171594  0.12346722  1
  V  V1  1  0.00581163  -0.00145642  0.49643812  1
  V  V2  1  0.88212572  0.87702363  0.00424279  1
  V  V3  1  0.86909926  -0.00360180  0.36770129  1
  V  V4  1  0.39006281  0.00774928  0.37387611  1
  V  V5  1  -0.00056432  0.36676717  0.36623968  1
  V  V6  1  0.12177229  0.37366160  0.76768386  1
  V  V7  1  0.25028293  0.61496436  0.36861094  1
  V  V8  1  0.50349561  0.87234400  0.37415491  1
  V  V9  1  0.49712518  0.37388285  0.87737997  1
  V  V10  1  0.12428981  0.63069712  0.50145339  1
  V  V11  1  0.61447415  0.50548439  0.62245467  1
  V  V12  1  0.76333877  0.51577160  0.75000017  1
  V  V13  1  0.75343370  0.37444289  0.61863807  1
  V  V14  1  0.86852875  0.24909563  0.15437895  1
  V  V15  1  0.61158368  0.62546819  0.50503610  1
  V  V16  1  0.01018086  0.76080337  0.26937070  1
  V  V17  1  0.75388468  0.74710999  0.50416082  1
  V  V18  1  0.74988443  0.24448965  0.49856137  1
  V  V19  1  0.24993945  0.74995531  0.00411235  1
  V  V20  1  0.38810383  0.75078632  0.13313317  1
  V  V21  1  0.61564909  0.00010592  0.61723308  1
  V  V22  1  0.37103750  0.23752972  0.11341272  1
  V  V23  1  0.25248337  0.62400526  0.87802352  1
  V  V24  1  0.38622224  0.87982864  -0.00776433  1
  V  V25  1  0.38431368  0.62661428  0.25472574  1
  V  V26  1  0.87800105  0.12514036  0.74716835  1
  V  V27  1  0.62144892  0.37028187  0.74780919  1
  V  V28  1  0.23197480  0.24689971  -0.00917130  1
  V  V29  1  0.11201858  -0.00603243  0.11023985  1
  V  V30  1  0.00107242  0.87129001  0.86325531  1
  V  V31  1  0.49145043  0.24011136  0.24455160  1
  V  V32  1  -0.00456324  0.13057660  0.12811779  1
  V  V33  1  0.12222261  0.49201275  0.62366145  1
  V  V34  1  0.11805149  0.62183538  0.00379542  1
  V  V35  1  0.24578485  0.49495574  0.74979719  1
  V  V36  1  0.26546944  0.74899025  0.50046563  1
  V  V37  1  0.86557607  0.62930512  0.26358676  1
  V  V38  1  0.25063310  0.29438326  0.52168166  1
  V  V39  1  0.24764423  0.11128836  0.86085499  1
  V  V40  1  -0.00347173  0.62580088  0.12574123  1
  V  V41  1  0.24459228  0.88109152  0.12611078  1
  V  V42  1  0.22762914  0.12808212  0.37711611  1
  V  V43  1  0.20375416  -0.03535838  0.29342549  1
  V  V44  1  0.75431186  0.12928127  0.88557908  1
  V  V45  1  -0.00250974  0.49605760  0.50034418  1
  V  V46  1  0.24412870  0.37057461  0.13016166  1
  V  V47  1  0.37608961  0.49366687  0.88706621  1
  V  V48  1  0.74859155  0.12029527  0.36188616  1
  V  V49  1  0.00602949  0.25336580  0.75970233  1
  V  V50  1  0.62637234  0.37539032  0.23214801  1
  V  V51  1  0.61484936  0.25605917  0.37419566  1
  V  V52  1  0.88554259  0.00219013  0.88384186  1
  V  V53  1  0.60906645  0.00551503  0.12443486  1
  V  V54  1  0.38805221  0.87861810  0.50974424  1
  V  V55  1  0.39485110  0.13344919  0.73599026  1
  V  V56  1  0.62860508  0.88075912  0.25028944  1
  V  V57  1  0.11903673  0.34714790  0.25108913  1
  V  V58  1  0.12364210  0.50239071  0.13829731  1
  V  V59  1  0.24006164  0.87936645  0.63135776  1
  V  V60  1  0.01599086  0.12989064  0.61118998  1
  V  V61  1  0.75289560  0.88595862  0.12540919  1
  V  V62  1  0.62642981  0.74189402  0.36838594  1
  V  V63  1  0.38336123  0.62388553  0.73722316  1
  V  V64  1  0.62459747  0.24770042  0.87357897  1
  V  V65  1  0.12160240  0.75124101  0.86097540  1
  V  V66  1  0.63896010  0.62713930  -0.00715693  1
  V  V67  1  0.87635591  0.25353772  0.61606636  1
  V  V68  1  0.76348487  0.87575950  0.62706486  1
  V  V69  1  0.74776906  -0.00193699  0.74956936  1
  V  V70  1  0.49984680  0.76806828  0.74681400  1
  V  V71  1  0.86791909  0.49833471  0.37164068  1
  V  V72  1  0.60415434  0.12182349  -0.00182400  1
  Zn  Zn73  1  0.88345279  0.87414847  0.49985046  1
  Zn  Zn74  1  0.11349384  0.11602107  -0.01754079  1
  Zn  Zn75  1  0.73882109  0.49634436  0.21674473  1
  Zn  Zn76  1  0.61034427  0.73804401  0.87335308  1
  Zn  Zn77  1  0.60701832  0.12296994  0.50302866  1
  Zn  Zn78  1  0.36002389  0.11014508  0.24240202  1
  Zn  Zn79  1  0.39041642  -0.00102801  0.87287338  1
  Zn  Zn80  1  0.42340048  0.40696275  0.04842084  1
  Zn  Zn81  1  0.54198286  0.54830887  0.09514723  1
  Zn  Zn82  1  0.18884039  0.16655525  0.19285357  1
  Zn  Zn83  1  0.19940678  0.19673458  0.67952369  1
  Zn  Zn84  1  0.18558673  0.69385811  0.19085046  1
  Zn  Zn85  1  0.19482002  0.68520168  0.67957823  1
  Zn  Zn86  1  0.68820062  0.18937465  0.18087234  1
  Zn  Zn87  1  0.68570963  0.18144507  0.68831040  1
  Zn  Zn88  1  0.68657446  0.68907155  0.18125068  1
  Zn  Zn89  1  0.68223324  0.69390944  0.68967621  1
  Zn  Zn90  1  0.31330765  0.30957112  0.33479568  1
  Zn  Zn91  1  0.31192817  0.30786887  0.80779963  1
  Zn  Zn92  1  0.31023820  0.80858415  0.32005789  1
  Zn  Zn93  1  0.31749794  0.80947785  0.80769948  1
  Zn  Zn94  1  0.80729474  0.31578581  0.31433151  1
  Zn  Zn95  1  0.80535606  0.31034266  0.80229302  1
  Zn  Zn96  1  0.80948753  0.81338583  0.31548648  1
  Zn  Zn97  1  0.80902113  0.81193118  0.81675536  1
  Zn  Zn98  1  0.18439972  0.43944061  0.42705880  1
  Zn  Zn99  1  0.18873818  0.43857794  0.94752798  1
  Zn  Zn100  1  0.20462898  0.95964431  0.47408794  1
  Zn  Zn101  1  0.19062036  0.93304853  0.93169252  1
  Zn  Zn102  1  0.68314222  0.43470579  0.43741697  1
  Zn  Zn103  1  0.68202657  0.45310938  0.93018680  1
  Zn  Zn104  1  0.68771344  0.93671695  0.44360786  1
  Zn  Zn105  1  0.69858514  0.94972668  0.94755371  1
  Zn  Zn106  1  0.30519565  0.06018673  0.05233478  1
  Zn  Zn107  1  0.31263695  0.06642533  0.56035310  1
  Zn  Zn108  1  0.34372302  0.53727096  0.10434563  1
  Zn  Zn109  1  0.30720398  0.55047418  0.55970164  1
  Zn  Zn110  1  0.81415571  0.06419710  0.07058004  1
  Zn  Zn111  1  0.81490761  0.06279743  0.55874699  1
  Zn  Zn112  1  0.78798553  0.57076259  0.06695459  1
  Zn  Zn113  1  0.79737695  0.55084381  0.54564362  1
  Zn  Zn114  1  0.42292219  0.42731833  0.22922421  1
  Zn  Zn115  1  0.43845190  0.44443581  0.69550751  1
  Zn  Zn116  1  0.43846152  0.92821376  0.18828128  1
  Zn  Zn117  1  0.42899133  0.94772238  0.69393913  1
  Zn  Zn118  1  0.90989897  0.45364810  0.15939703  1
  Zn  Zn119  1  0.93967740  0.43611803  0.68713061  1
  Zn  Zn120  1  0.94230519  0.93860364  0.19507246  1
  Zn  Zn121  1  0.95755460  0.94299014  0.68950948  1
  Zn  Zn122  1  0.05253197  0.05634383  0.30898961  1
  Zn  Zn123  1  0.07463408  0.05438025  0.79586032  1
  Zn  Zn124  1  0.05591250  0.57071176  0.31769904  1
  Zn  Zn125  1  0.05430785  0.56049793  0.82063205  1
  Zn  Zn126  1  0.56665112  0.06327315  0.31371039  1
  Zn  Zn127  1  0.55744927  0.05762297  0.80636478  1
  Zn  Zn128  1  0.57055987  0.56442946  0.30517406  1
  Zn  Zn129  1  0.56374859  0.55925293  0.81650287  1
  Zn  Zn130  1  0.41906229  0.20607603  0.44347522  1
  Zn  Zn131  1  0.43242869  0.19151955  0.92384119  1
  Zn  Zn132  1  0.43967901  0.68809775  0.43433669  1
  Zn  Zn133  1  0.44629876  0.68183790  0.94225475  1
  Zn  Zn134  1  0.93325927  0.18318133  0.42910802  1
  Zn  Zn135  1  0.94403744  0.18207995  0.94235278  1
  Zn  Zn136  1  0.96138911  0.71098144  0.47107296  1
  Zn  Zn137  1  0.91795758  0.69252449  0.92470814  1
  Zn  Zn138  1  0.05511743  0.31003373  0.06736915  1
  Zn  Zn139  1  0.06917906  0.31172225  0.55490213  1
  Zn  Zn140  1  0.05766870  0.80700835  0.06320973  1
  Zn  Zn141  1  0.05866132  0.81160951  0.57538919  1
  Zn  Zn142  1  0.56710622  0.30024603  0.06057041  1
  Zn  Zn143  1  0.56877500  0.30136924  0.57356928  1
  Zn  Zn144  1  0.56829293  0.80876702  0.05941439  1
  Zn  Zn145  1  0.56843413  0.81512640  0.57530700  1
  O  O146  1  0.11827682  0.10590336  0.11997391  1
  O  O147  1  0.11441691  0.13359672  0.62651412  1
  O  O148  1  0.11935110  0.62219144  0.12254123  1
  O  O149  1  0.13275776  0.61104784  0.61098808  1
  O  O150  1  0.62477127  0.11647411  0.11167881  1
  O  O151  1  0.63205265  0.10918620  0.62107825  1
  O  O152  1  0.63121822  0.62112465  0.11337644  1
  O  O153  1  0.62250127  0.61509781  0.61605930  1
  O  O154  1  0.37820430  0.39589214  0.32677586  1
  O  O155  1  0.38526263  0.37912094  0.86752191  1
  O  O156  1  0.38818381  0.87791883  0.38043085  1
  O  O157  1  0.36662590  0.87238219  0.88999032  1
  O  O158  1  0.88637670  0.38916089  0.36552990  1
  O  O159  1  0.84704125  0.38337876  0.89165905  1
  O  O160  1  0.86061196  0.89155943  0.38181448  1
  O  O161  1  0.88172919  0.88358326  0.88538811  1
  O  O162  1  0.27080238  0.00701663  0.37913752  1
  O  O163  1  0.25568828  0.00869200  0.87498577  1
  O  O164  1  0.25658141  0.51505096  0.37732753  1
  O  O165  1  0.25165873  0.50517727  0.87047631  1
  O  O166  1  0.75226631  0.01288753  0.38200734  1
  O  O167  1  0.76544672  0.00991288  0.86740691  1
  O  O168  1  0.76737922  0.49375263  0.38376789  1
  O  O169  1  0.74394262  0.50419558  0.84846777  1
  O  O170  1  0.23951171  0.48043674  0.12025239  1
  O  O171  1  0.23832120  0.50230528  0.64377067  1
  O  O172  1  0.23964241  0.98760777  0.12019257  1
  O  O173  1  0.24441432  0.97866440  0.59529218  1
  O  O174  1  0.80185107  0.48093879  0.12335507  1
  O  O175  1  0.74379073  0.48935349  0.62524734  1
  O  O176  1  0.74374001  0.99167996  0.12646773  1
  O  O177  1  0.75138787  0.99317066  0.63123822  1
  O  O178  1  0.01068119  0.37558608  0.25965685  1
  O  O179  1  0.00579227  0.36371724  0.75064023  1
  O  O180  1  -0.00597053  0.86016344  0.25731801  1
  O  O181  1  -0.02439812  0.85323108  0.76852547  1
  O  O182  1  0.51664492  0.35314601  0.24612628  1
  O  O183  1  0.51304675  0.37929883  0.75678990  1
  O  O184  1  0.51573862  0.87383703  0.26019042  1
  O  O185  1  0.48430233  0.86673435  0.75519630  1
  O  O186  1  0.50933402  0.13904303  0.24641381  1
  O  O187  1  0.49713891  0.13288000  0.74596614  1
  O  O188  1  0.48565102  0.62470953  0.25905107  1
  O  O189  1  0.48343345  0.60740446  0.74771788  1
  O  O190  1  0.99926003  0.11096035  0.22757160  1
  O  O191  1  0.99523219  0.13844876  0.73523622  1
  O  O192  1  0.98759433  0.63502721  0.24541190  1
  O  O193  1  0.99696945  0.63375094  0.72086384  1
  O  O194  1  0.36602377  0.24515063  0.01021245  1
  O  O195  1  0.33561569  0.27893692  0.45672421  1
  O  O196  1  0.36632871  0.75370736  0.01184735  1
  O  O197  1  0.37227726  0.75799780  0.49894811  1
  O  O198  1  0.90873704  0.28362511  -0.00527207  1
  O  O199  1  0.86489044  0.24662536  0.50778019  1
  O  O200  1  0.87944360  0.75894471  0.01596712  1
  O  O201  1  0.85349888  0.75306538  0.48598341  1
  O  O202  1  0.15476303  0.26396619  0.49661102  1
  O  O203  1  0.12967234  0.24470891  1.00314377  1
  O  O204  1  0.13635089  0.73244525  0.50429016  1
  O  O205  1  0.13473458  0.74280405  0.99676091  1
  O  O206  1  0.62988619  0.25031990  0.48766771  1
  O  O207  1  0.62661347  0.23011020  0.99096307  1
  O  O208  1  0.62863005  0.73938897  0.49813488  1
  O  O209  1  0.62065356  0.73687994  0.99257273  1
  O  O210  1  0.48169611  0.24986688  0.12981628  1
  O  O211  1  0.48372653  0.22927679  0.58224732  1
  O  O212  1  0.48683817  0.75845240  0.12991886  1
  O  O213  1  0.50136529  0.75303216  0.64328092  1
  O  O214  1  0.99791887  0.23409092  0.13246217  1
  O  O215  1  0.99410189  0.24594784  0.62303907  1
  O  O216  1  0.98943307  0.74630024  0.14012301  1
  O  O217  1  0.97926239  0.73875291  0.57907615  1
  O  O218  1  -0.00816935  0.26880910  0.38228521  1
  O  O219  1  0.00124685  0.24134927  0.85729778  1
  O  O220  1  -0.00608587  0.74285864  0.36818320  1
  O  O221  1  0.01634039  0.75473131  0.88082289  1
  O  O222  1  0.50940170  0.24442904  0.36643942  1
  O  O223  1  0.51530316  0.25632134  0.87272079  1
  O  O224  1  0.51731099  0.75920076  0.38101617  1
  O  O225  1  0.49404930  0.74055257  0.85703022  1
  O  O226  1  0.25900194  0.12578690  0.47663802  1
  O  O227  1  0.24198899  0.13383648  0.98750110  1
  O  O228  1  0.25127806  0.62877009  0.49401876  1
  O  O229  1  0.24110106  0.63408080  0.99013319  1
  O  O230  1  0.74519358  0.13772335  0.49684002  1
  O  O231  1  0.75300509  0.12004491  0.98715277  1
  O  O232  1  0.74043703  0.64156405  0.51046067  1
  O  O233  1  0.74462243  0.63707873  0.99380813  1
  O  O234  1  0.23976658  0.35693710  0.01290485  1
  O  O235  1  0.24216634  0.39675797  0.51545457  1
  O  O236  1  0.25497460  0.86457644  0.00633672  1
  O  O237  1  0.26544554  0.86024599  0.50082414  1
  O  O238  1  0.80331902  0.39446007  -0.04738487  1
  O  O239  1  0.74342841  0.36308386  0.51001036  1
  O  O240  1  0.76717517  0.88077226  0.01277030  1
  O  O241  1  0.75089816  0.86697318  0.51221273  1
  O  O242  1  0.12149125  0.50749729  0.23935429  1
  O  O243  1  0.12192304  0.49313148  0.74893127  1
  O  O244  1  0.12219369  0.99283804  0.23285246  1
  O  O245  1  0.06575314  0.97263647  0.72413246  1
  O  O246  1  0.62139653  0.48500154  0.24411955  1
  O  O247  1  0.63226754  0.49420112  0.73370090  1
  O  O248  1  0.62213422  0.99499676  0.23518792  1
  O  O249  1  0.64366017  1.00875920  0.74207738  1
  O  O250  1  0.38667365  -0.00320085  0.26661499  1
  O  O251  1  0.37827504  0.02235353  0.75918993  1
  O  O252  1  0.35799451  0.53075325  0.23606908  1
  O  O253  1  0.36256507  0.50276514  0.76127978  1
  O  O254  1  0.87508331  -0.00162648  0.26681808  1
  O  O255  1  0.87488322  0.01246947  0.75699971  1
  O  O256  1  0.88016168  0.51343569  0.26317748  1
  O  O257  1  0.86394616  0.49741849  0.74161930  1
  O  O258  1  0.11685155  0.37553147  0.35839800  1
  O  O259  1  0.12092129  0.38047058  0.86710133  1
  O  O260  1  0.15300917  0.91817048  0.36462819  1
  O  O261  1  0.11539025  0.86306716  0.87319289  1
  O  O262  1  0.62486495  0.35951212  0.37248652  1
  O  O263  1  0.62193973  0.36889177  0.86788569  1
  O  O264  1  0.62163048  0.87082453  0.37037915  1
  O  O265  1  0.65333127  0.88339838  0.86366838  1
  O  O266  1  0.36182824  0.13274294  0.12639420  1
  O  O267  1  0.37175038  0.12073742  0.63684967  1
  O  O268  1  0.36770825  0.64558203  0.13548312  1
  O  O269  1  0.36693712  0.61140329  0.63879705  1
  O  O270  1  0.88612349  0.13606500  0.11837533  1
  O  O271  1  0.87592365  0.13786596  0.63299443  1
  O  O272  1  0.88008722  0.63582029  0.13320929  1
  O  O273  1  0.93127846  0.66735797  0.72536169  1
  O  O274  1  0.25243648  0.24648630  0.11840216  1
  O  O275  1  0.26442374  0.26609452  0.61927599  1
  O  O276  1  0.24957919  0.76133019  0.11933043  1
  O  O277  1  0.25314878  0.75711724  0.60983762  1
  O  O278  1  0.76954196  0.24405823  0.12566897  1
  O  O279  1  0.75472429  0.25484859  0.61955158  1
  O  O280  1  0.76208941  0.76646474  0.13485203  1
  O  O281  1  0.74585395  0.76517260  0.61798328  1
  O  O282  1  0.24334306  0.22232854  0.34158339  1
  O  O283  1  0.24805693  0.24732611  0.88836786  1
  O  O284  1  0.25086997  0.74138227  0.39366686  1
  O  O285  1  0.24098431  0.74430663  0.88100959  1
  O  O286  1  0.74049303  0.24082312  0.38022882  1
  O  O287  1  0.73903458  0.24044222  0.86807704  1
  O  O288  1  0.73225545  0.75980212  0.39104707  1
  O  O289  1  0.69977415  0.81619342  0.87212227  1
  O  O290  1  0.00416195  0.12236292  0.01416674  1
  O  O291  1  -0.00002270  0.13101611  0.50739912  1
  O  O292  1  0.00930206  0.64248499  0.01564769  1
  O  O293  1  0.01868696  0.60907290  0.48789455  1
  O  O294  1  0.50567128  0.12573419  -0.00594276  1
  O  O295  1  0.49181979  0.16716476  0.52484569  1
  O  O296  1  0.51591109  0.61860278  0.00351362  1
  O  O297  1  0.51216402  0.62427124  0.49737618  1
  O  O298  1  0.50374283  0.44855107  0.43097438  1
  O  O299  1  0.50525392  0.36360361  0.98501973  1
  O  O300  1  0.49299545  0.86677334  0.49504310  1
  O  O301  1  0.48484015  0.86683540  1.00292465  1
  O  O302  1  1.00930215  0.38917445  0.48532877  1
  O  O303  1  0.96561653  0.33698920  0.99173486  1
  O  O304  1  1.00014173  0.89463095  0.50771604  1
  O  O305  1  0.98896065  0.86877945  0.98995082  1
  O  O306  1  0.48663758  0.50084352  0.38101597  1
  O  O307  1  0.48891897  0.48681512  0.87336622  1
  O  O308  1  0.49945124  0.98851349  0.37851719  1
  O  O309  1  0.50436478  0.99765711  0.88163109  1
  O  O310  1  0.99332091  0.49316545  0.38181966  1
  O  O311  1  1.00504614  0.47102999  0.89734447  1
  O  O312  1  0.98067335  1.01224050  0.38662166  1
  O  O313  1  0.99362270  0.98485892  0.86987848  1
  O  O314  1  0.00821033  -0.00417514  0.11876649  1
  O  O315  1  -0.01395674  0.02453650  0.60703125  1
  O  O316  1  0.00438877  0.51653634  0.12731185  1
  O  O317  1  0.00184172  0.49693680  0.60807619  1
  O  O318  1  0.51003449  -0.00333717  0.12386544  1
  O  O319  1  0.51803630  -0.00942094  0.63256440  1
  O  O320  1  0.45675665  0.48303901  0.12907287  1
  O  O321  1  0.51666346  0.49216281  0.62089317  1
  O  O322  1  0.22787102  0.36211432  0.23936862  1
  O  O323  1  0.23393546  0.38267754  0.75861010  1
  O  O324  1  0.25399583  0.88359029  0.24544094  1
  O  O325  1  0.26370575  0.87394704  0.73007926  1
  O  O326  1  0.73090910  0.37750905  0.25598291  1
  O  O327  1  0.74013949  0.38146246  0.73591518  1
  O  O328  1  0.73633973  0.87460211  0.24460762  1
  O  O329  1  0.76538736  0.88524116  0.73834879  1
  O  O330  1  0.24431279  0.08985143  0.26363378  1
  O  O331  1  0.24800271  0.12988876  0.75962680  1
  O  O332  1  0.25108654  0.63747067  0.26661585  1
  O  O333  1  0.25471828  0.61742313  0.76166211  1
  O  O334  1  0.73676283  0.12233243  0.26352653  1
  O  O335  1  0.76286855  0.12071991  0.75777624  1
  O  O336  1  0.76282803  0.61766848  0.24350263  1
  O  O337  1  0.75271160  0.61375913  0.72698828  1
  O  O338  1  0.39324102  0.11016481  0.37754955  1
  O  O339  1  0.35978288  0.12449793  0.87003332  1
  O  O340  1  0.36602958  0.63329241  0.36500044  1
  O  O341  1  0.36503883  0.61339729  0.87368449  1
  O  O342  1  0.85520763  0.11916812  0.37581171  1
  O  O343  1  0.87496898  0.12270227  0.86859077  1
  O  O344  1  0.87428097  0.61751686  0.36570559  1
  O  O345  1  0.94350105  0.58502507  0.87280539  1
  O  O346  1  0.11932059  0.38051619  0.13578585  1
  O  O347  1  0.11528873  0.38829456  0.63690560  1
  O  O348  1  0.13074543  0.88179282  0.11827465  1
  O  O349  1  0.14001212  0.86515358  0.62519705  1
  O  O350  1  0.62944687  0.36266966  0.13226703  1
  O  O351  1  0.62962989  0.38084781  0.62682320  1
  O  O352  1  0.63058348  0.88545094  0.12765957  1
  O  O353  1  0.64373391  0.89129047  0.62321845  1
  O  O354  1  0.11620197  0.24917409  0.24187027  1
  O  O355  1  0.11617291  0.26384083  0.74409382  1
  O  O356  1  0.10989671  0.74854473  0.25441849  1
  O  O357  1  0.12980457  0.73917510  0.76226576  1
  O  O358  1  0.62175273  0.25324380  0.25829658  1
  O  O359  1  0.63141871  0.26046784  0.75466094  1
  O  O360  1  0.63220777  0.75412292  0.26471105  1
  O  O361  1  0.60789663  0.74743006  0.75432917  1
  O  O362  1  0.38514937  0.23578665  0.24669277  1
  O  O363  1  0.37486759  0.23456968  0.75397026  1
  O  O364  1  0.37028619  0.74895144  0.24009618  1
  O  O365  1  0.38150551  0.72958909  0.75116517  1
  O  O366  1  0.86896196  0.24046707  0.25518845  1
  O  O367  1  0.88553087  0.24654106  0.74239661  1
  O  O368  1  0.87481809  0.74055132  0.25017393  1
  O  O369  1  0.84764366  0.71297976  0.83795948  1
  O  O370  1  0.38328482  0.45967477  0.53679718  1
  O  O371  1  0.36065521  0.49183578  0.98985741  1
  O  O372  1  0.37862740  0.98452393  0.48761313  1
  O  O373  1  0.37222813  0.98308756  1.00094793  1
  O  O374  1  0.88844394  0.51154877  0.48899598  1
  O  O375  1  0.94400748  0.51509563  0.92037658  1
  O  O376  1  0.88000079  1.00151354  0.48926630  1
  O  O377  1  0.87451075  0.99553262  0.99098261  1
  O  O378  1  0.12652187  -0.00474485  0.00690741  1
  O  O379  1  0.10478691  0.00899184  0.49631080  1
  O  O380  1  0.12770712  0.51521248  0.01195365  1
  O  O381  1  0.11724190  0.50391429  0.50599501  1
  O  O382  1  0.62592681  0.01126868  0.01086413  1
  O  O383  1  0.62140105  0.00332879  0.51021301  1
  O  O384  1  0.63354194  0.51449830  0.00850575  1
  O  O385  1  0.63534742  0.51441471  0.50785350  1
  O  O386  1  0.35787438  0.35409664  0.13276910  1
  O  O387  1  0.38677917  0.40474377  0.59160823  1
  O  O388  1  0.36542247  0.86645630  0.11920226  1
  O  O389  1  0.37376703  0.88148630  0.61055625  1
  O  O390  1  0.89598543  0.34558270  0.13750376  1
  O  O391  1  0.86623260  0.36354132  0.62849865  1
  O  O392  1  0.87212578  0.87358496  0.12362764  1
  O  O393  1  0.86766430  0.88431125  0.62198085  1
  O  O394  1  0.12819751  0.11207935  0.37437382  1
  O  O395  1  0.13585734  0.11466010  0.86759076  1
  O  O396  1  0.13920750  0.61724108  0.38888971  1
  O  O397  1  0.12845317  0.63221171  0.88226611  1
  O  O398  1  0.63120403  0.13265422  0.38300967  1
  O  O399  1  0.63260099  0.12685288  0.88357014  1
  O  O400  1  0.62402346  0.63476074  0.38354807  1
  O  O401  1  0.62911065  0.62032391  0.88432658  1
