# generated using pymatgen
data_V73Zn73O256
_symmetry_space_group_name_H-M   'P 1'
_cell_length_a   16.91024522
_cell_length_b   16.89623288
_cell_length_c   16.95603674
_cell_angle_alpha   90.04613986
_cell_angle_beta   89.63526969
_cell_angle_gamma   90.12932108
_symmetry_Int_Tables_number   1
_chemical_formula_structural   V73Zn73O256
_chemical_formula_sum   'V73 Zn73 O256'
_cell_volume   4844.55733055
_cell_formula_units_Z   1
loop_
 _symmetry_equiv_pos_site_id
 _symmetry_equiv_pos_as_xyz
  1  'x, y, z'
loop_
 _atom_site_type_symbol
 _atom_site_label
 _atom_site_symmetry_multiplicity
 _atom_site_fract_x
 _atom_site_fract_y
 _atom_site_fract_z
 _atom_site_occupancy
  V  V0  1  0.37303955  0.12914716  0.75421282  1
  V  V1  1  0.00853079  0.14509391  0.13475507  1
  V  V2  1  0.87407325  0.75079083  0.62798124  1
  V  V3  1  0.60814732  0.25531693  0.38045290  1
  V  V4  1  0.36243945  0.38377686  -0.00409333  1
  V  V5  1  0.50421685  0.87590636  0.37046532  1
  V  V6  1  0.74621909  0.87661973  0.62705617  1
  V  V7  1  0.00591558  0.76005854  0.75765715  1
  V  V8  1  -0.00797192  0.03001982  0.00193615  1
  V  V9  1  0.87700277  -0.00994963  0.87403274  1
  V  V10  1  0.74568646  0.75936072  0.01041286  1
  V  V11  1  0.74572758  0.62250974  0.87012186  1
  V  V12  1  0.50046114  0.50144607  0.01038119  1
  V  V13  1  0.74384019  0.60300451  0.37872504  1
  V  V14  1  0.74958307  0.12956022  0.88595964  1
  V  V15  1  0.13791179  0.38726409  0.74291534  1
  V  V16  1  0.49727273  0.37839866  0.87088437  1
  V  V17  1  0.34412270  0.74995504  0.10296338  1
  V  V18  1  0.49651266  0.13162086  0.63432431  1
  V  V19  1  0.25600912  0.50824601  0.72504846  1
  V  V20  1  0.24262323  -0.01221790  0.25193822  1
  V  V21  1  0.36306115  0.26073938  0.63018754  1
  V  V22  1  0.37097451  0.25469937  0.11006932  1
  V  V23  1  0.89425866  0.48754201  0.35882415  1
  V  V24  1  0.62979724  0.74987216  0.37725344  1
  V  V25  1  0.88367353  0.86789407  0.00801032  1
  V  V26  1  0.74699424  0.00019049  0.75052370  1
  V  V27  1  0.14056256  0.49129671  0.12608922  1
  V  V28  1  0.39886388  0.74904312  0.63359444  1
  V  V29  1  0.01441204  0.62398102  0.61903683  1
  V  V30  1  0.00424950  0.25707924  0.76007800  1
  V  V31  1  0.49290738  0.87573099  0.88717211  1
  V  V32  1  0.74844944  0.24613482  0.49455011  1
  V  V33  1  0.63379743  0.36850048  0.74774732  1
  V  V34  1  0.50223361  0.73275817  0.24251997  1
  V  V35  1  0.49299834  0.01703115  0.00926276  1
  V  V36  1  -0.02394823  0.62291005  0.11394941  1
  V  V37  1  0.00828363  0.00194905  0.49672129  1
  V  V38  1  0.61387063  0.74876507  0.87428638  1
  V  V39  1  0.24825492  0.61353610  0.87761665  1
  V  V40  1  0.12836251  0.36655801  0.26728394  1
  V  V41  1  0.87944817  0.15229970  0.25521445  1
  V  V42  1  0.87180380  0.61954386  0.74743211  1
  V  V43  1  0.23867126  0.13867210  0.88644879  1
  V  V44  1  0.61379365  0.87561784  0.75456621  1
  V  V45  1  0.62796879  0.12375665  0.50170293  1
  V  V46  1  0.12664690  -0.00216624  0.63650609  1
  V  V47  1  0.87600208  0.87970802  0.49557724  1
  V  V48  1  0.50053740  0.00188676  0.50381399  1
  V  V49  1  0.62078350  0.24349565  0.88818138  1
  V  V50  1  0.38668451  0.62887022  0.75710831  1
  V  V51  1  0.61838576  0.62342324  0.01465803  1
  V  V52  1  0.74877022  0.37892355  0.62247208  1
  V  V53  1  0.49309804  0.46795708  0.47778249  1
  V  V54  1  0.63000670  0.39839004  0.21147993  1
  V  V55  1  0.12808103  0.76033378  0.88142960  1
  V  V56  1  0.37541182  0.86953700  0.50377383  1
  V  V57  1  0.88038339  0.00182912  0.36770933  1
  V  V58  1  0.87267153  0.12521341  0.74796742  1
  V  V59  1  0.11905218  0.61567883  -0.00057182  1
  V  V60  1  0.88995210  0.37440139  0.49812432  1
  V  V61  1  0.24681208  0.86438284  0.63259142  1
  V  V62  1  0.37317544  0.12626269  0.23042892  1
  V  V63  1  0.64065873  0.01158155  0.11266171  1
  V  V64  1  0.36940232  -0.00238249  0.88025626  1
  V  V65  1  0.87721575  0.67349936  0.27308171  1
  V  V66  1  0.88715986  0.49486529  0.87723948  1
  V  V67  1  0.37125441  0.00933225  0.37673925  1
  V  V68  1  0.74787050  0.00251459  0.25617843  1
  V  V69  1  0.25842728  0.62362455  0.38964393  1
  V  V70  1  0.74801486  0.74930878  0.49627341  1
  V  V71  1  0.00713263  0.12677099  0.62451585  1
  V  V72  1  0.25053975  0.24050701  0.48873638  1
  Zn  Zn73  1  0.63543603  0.86994434  0.24052031  1
  Zn  Zn74  1  0.87612563  0.25063876  0.62432773  1
  Zn  Zn75  1  0.01837205  0.50947347  0.48849787  1
  Zn  Zn76  1  0.62161235  0.00249843  0.62933115  1
  Zn  Zn77  1  0.24417419  -0.00142771  0.75497677  1
  Zn  Zn78  1  0.50044691  0.24821824  0.24637957  1
  Zn  Zn79  1  0.55591572  0.58375216  0.57851279  1
  Zn  Zn80  1  0.69870954  0.53832003  0.69566958  1
  Zn  Zn81  1  0.11824632  -0.01529687  0.12890663  1
  Zn  Zn82  1  0.18956508  0.17336409  0.18738088  1
  Zn  Zn83  1  0.18550997  0.18712311  0.69716587  1
  Zn  Zn84  1  0.17548557  0.68099742  0.19586041  1
  Zn  Zn85  1  0.19068265  0.69089307  0.69354443  1
  Zn  Zn86  1  0.68138785  0.19833104  0.19475949  1
  Zn  Zn87  1  0.68539894  0.19232554  0.68795457  1
  Zn  Zn88  1  0.69366793  0.68095840  0.19596139  1
  Zn  Zn89  1  0.68043621  0.70118152  0.68670296  1
  Zn  Zn90  1  0.27374297  0.28939273  0.28883679  1
  Zn  Zn91  1  0.30961610  0.31593643  0.81065237  1
  Zn  Zn92  1  0.32280571  0.81078325  0.30618831  1
  Zn  Zn93  1  0.31079415  0.80965885  0.81545707  1
  Zn  Zn94  1  0.79333894  0.32475383  0.31536550  1
  Zn  Zn95  1  0.81466584  0.30998485  0.81562644  1
  Zn  Zn96  1  0.82032783  0.82232116  0.30697462  1
  Zn  Zn97  1  0.80556263  0.80824045  0.81576640  1
  Zn  Zn98  1  0.19626018  0.42664805  0.45306595  1
  Zn  Zn99  1  0.11307155  0.40934555  0.94537900  1
  Zn  Zn100  1  0.19398148  0.93874647  0.44811840  1
  Zn  Zn101  1  0.16540985  0.95962844  0.92555944  1
  Zn  Zn102  1  0.67140298  0.43276861  0.45303199  1
  Zn  Zn103  1  0.68195632  0.44138529  0.93067157  1
  Zn  Zn104  1  0.69090707  0.94128961  0.43455176  1
  Zn  Zn105  1  0.68279451  0.94090054  0.93922449  1
  Zn  Zn106  1  0.29938013  0.05394604  0.06306426  1
  Zn  Zn107  1  0.30781121  0.06555906  0.56610328  1
  Zn  Zn108  1  0.31665466  0.57166580  0.06349390  1
  Zn  Zn109  1  0.36806658  0.55700933  0.56211201  1
  Zn  Zn110  1  0.79553899  0.12997619  0.08800593  1
  Zn  Zn111  1  0.81437932  0.06218311  0.56334792  1
  Zn  Zn112  1  0.80664605  0.55770511  0.04071147  1
  Zn  Zn113  1  0.82532555  0.55948920  0.55270257  1
  Zn  Zn114  1  0.45143991  0.41769983  0.17975423  1
  Zn  Zn115  1  0.44276980  0.44132076  0.69315719  1
  Zn  Zn116  1  0.43215099  0.92625581  0.18475011  1
  Zn  Zn117  1  0.43229377  0.94078639  0.69315428  1
  Zn  Zn118  1  0.96283943  0.43199146  0.18243272  1
  Zn  Zn119  1  0.94206547  0.43934526  0.68358087  1
  Zn  Zn120  1  0.95039084  0.93119072  0.17720777  1
  Zn  Zn121  1  0.93743645  0.93841559  0.68513860  1
  Zn  Zn122  1  0.06112469  0.07188462  0.31421528  1
  Zn  Zn123  1  0.05831603  0.06847695  0.81282736  1
  Zn  Zn124  1  0.05364065  0.56297013  0.28098256  1
  Zn  Zn125  1  0.06670065  0.56547360  0.80160011  1
  Zn  Zn126  1  0.55986274  0.07396574  0.31096562  1
  Zn  Zn127  1  0.55874486  0.06238277  0.81844974  1
  Zn  Zn128  1  0.56798653  0.54943684  0.30937096  1
  Zn  Zn129  1  0.56446495  0.55651432  0.81369945  1
  Zn  Zn130  1  0.43121303  0.19354861  0.44919183  1
  Zn  Zn131  1  0.43310945  0.19017044  0.93292587  1
  Zn  Zn132  1  0.44544834  0.68674233  0.43711819  1
  Zn  Zn133  1  0.42744598  0.69107340  0.94843173  1
  Zn  Zn134  1  0.93601361  0.18479131  0.44043103  1
  Zn  Zn135  1  1.02534184  0.23986736  0.96881002  1
  Zn  Zn136  1  0.93098291  0.68121470  0.44396984  1
  Zn  Zn137  1  0.93483957  0.68672723  0.93692234  1
  Zn  Zn138  1  0.18942756  0.30401055  0.05926791  1
  Zn  Zn139  1  0.07300281  0.31472957  0.57290735  1
  Zn  Zn140  1  0.05883001  0.80852318  0.07541859  1
  Zn  Zn141  1  0.05821169  0.81799024  0.56771728  1
  Zn  Zn142  1  0.55645447  0.30555127  0.06109803  1
  Zn  Zn143  1  0.55702785  0.31237140  0.56845165  1
  Zn  Zn144  1  0.56250263  0.82576891  0.06873962  1
  Zn  Zn145  1  0.56550561  0.81579210  0.56112386  1
  O  O146  1  0.10814274  0.10416671  0.14210247  1
  O  O147  1  0.11467678  0.11539468  0.63423867  1
  O  O148  1  0.13325773  0.61718598  0.10294732  1
  O  O149  1  0.11259733  0.63836860  0.62718104  1
  O  O150  1  0.60811020  0.09954747  0.14592086  1
  O  O151  1  0.61384198  0.12492880  0.62178288  1
  O  O152  1  0.62931059  0.62524905  0.11202225  1
  O  O153  1  0.62005975  0.61259734  0.66035058  1
  O  O154  1  0.36877425  0.39520718  0.32551501  1
  O  O155  1  0.38980144  0.36606258  0.88340486  1
  O  O156  1  0.38704110  0.87825682  0.38568915  1
  O  O157  1  0.38274977  0.88452416  0.86808921  1
  O  O158  1  0.86368837  0.38349891  0.38987610  1
  O  O159  1  0.86095167  0.39736424  0.86581728  1
  O  O160  1  0.87441878  0.88490569  0.38920138  1
  O  O161  1  0.86420714  0.88554938  0.87829909  1
  O  O162  1  0.26787741  -0.00664527  0.37830239  1
  O  O163  1  0.25589677  0.00559348  0.87434914  1
  O  O164  1  0.25119708  0.52030771  0.39227511  1
  O  O165  1  0.25348766  0.51652002  0.86217075  1
  O  O166  1  0.76532428  0.00205517  0.36641295  1
  O  O167  1  0.75080007  0.00576122  0.86491666  1
  O  O168  1  0.73886950  0.50329135  0.38482279  1
  O  O169  1  0.75432376  0.51857061  0.88069088  1
  O  O170  1  0.24049843  0.50698176  0.11825654  1
  O  O171  1  0.26920314  0.51146610  0.62818375  1
  O  O172  1  0.23883396  0.99805595  0.14529663  1
  O  O173  1  0.24050205  0.99294897  0.62804877  1
  O  O174  1  0.76272450  0.44984425  0.07569224  1
  O  O175  1  0.75686281  0.48609441  0.61314291  1
  O  O176  1  0.74359854  1.01686628  0.13429790  1
  O  O177  1  0.74858928  0.99508149  0.63600892  1
  O  O178  1  0.02874054  0.36467149  0.24286874  1
  O  O179  1  -0.02900597  0.35125692  0.74819171  1
  O  O180  1  0.05626884  0.89206339  0.15491819  1
  O  O181  1  -0.00753024  0.85898206  0.74486760  1
  O  O182  1  0.53073944  0.36331716  0.24061803  1
  O  O183  1  0.51096104  0.37826896  0.76537834  1
  O  O184  1  0.50605914  0.87507148  0.26521414  1
  O  O185  1  0.50903567  0.88761420  0.76444461  1
  O  O186  1  0.47557171  0.12499585  0.25577952  1
  O  O187  1  0.49025132  0.11581139  0.74322418  1
  O  O188  1  0.51471692  0.63428241  0.25610779  1
  O  O189  1  0.48477215  0.62266284  0.76629269  1
  O  O190  1  0.99060564  0.12999754  0.24559361  1
  O  O191  1  0.99168849  0.13259948  0.74165246  1
  O  O192  1  0.95414863  0.61746149  0.23234634  1
  O  O193  1  0.99048028  0.63901670  0.73633900  1
  O  O194  1  0.37744319  0.26327099  0.00399411  1
  O  O195  1  0.36468357  0.24636303  0.52311982  1
  O  O196  1  0.34897009  0.75491679  -0.00038675  1
  O  O197  1  0.39120958  0.76109462  0.51804330  1
  O  O198  1  0.91612601  0.29176257  0.00477321  1
  O  O199  1  0.86783999  0.25811018  0.49739901  1
  O  O200  1  0.85444972  0.75705278  -0.01076401  1
  O  O201  1  0.86738182  0.76042388  0.50985690  1
  O  O202  1  0.14958364  0.26702803  0.50804165  1
  O  O203  1  0.11656346  0.30147091  0.97544940  1
  O  O204  1  0.09840857  0.79134458  0.45323482  1
  O  O205  1  0.11746168  0.73641058  0.98584090  1
  O  O206  1  0.62730887  0.24251624  0.49799741  1
  O  O207  1  0.62584623  0.24890984  0.98676931  1
  O  O208  1  0.63692524  0.75279605  0.49368354  1
  O  O209  1  0.62651876  0.74239343  0.99416827  1
  O  O210  1  0.47736941  0.24978649  0.12565261  1
  O  O211  1  0.48712166  0.23570962  0.62381811  1
  O  O212  1  0.52261706  0.75246297  0.14462490  1
  O  O213  1  0.49857796  0.75468420  0.63326564  1
  O  O214  1  1.02914871  0.23904206  0.12320748  1
  O  O215  1  0.99761791  0.23811157  0.62966906  1
  O  O216  1  1.00931612  0.71764216  0.12755754  1
  O  O217  1  0.99124898  0.74612308  0.63040325  1
  O  O218  1  0.03989345  0.22386616  0.38882793  1
  O  O219  1  -0.00241469  0.23763326  0.85692060  1
  O  O220  1  -0.08098553  0.73266364  0.34688009  1
  O  O221  1  0.00665461  0.74395688  0.86244672  1
  O  O222  1  0.50489461  0.24741807  0.38118472  1
  O  O223  1  0.51315235  0.25939931  0.88054513  1
  O  O224  1  0.51325495  0.75587930  0.37259569  1
  O  O225  1  0.50640464  0.75939200  0.88791752  1
  O  O226  1  0.24760776  0.13871287  0.50885973  1
  O  O227  1  0.24916300  0.12098736  0.98626840  1
  O  O228  1  0.28282609  0.62275182  0.49244909  1
  O  O229  1  0.23919615  0.61909715  0.98282161  1
  O  O230  1  0.73954081  0.13300044  0.51451736  1
  O  O231  1  0.75857411  0.11114776  0.98166428  1
  O  O232  1  0.76291514  0.63588792  0.48451549  1
  O  O233  1  0.73269587  0.63405580  0.99121508  1
  O  O234  1  0.26505277  0.38313197  -0.01144352  1
  O  O235  1  0.25629345  0.35534948  0.51027809  1
  O  O236  1  0.24000110  0.89681227  0.00961878  1
  O  O237  1  0.26725889  0.88073763  0.51633908  1
  O  O238  1  0.75389003  0.39890096  0.01954646  1
  O  O239  1  0.75162780  0.36471163  0.50843447  1
  O  O240  1  0.74629047  0.86304119  -0.00376063  1
  O  O241  1  0.75658018  0.87089410  0.50604503  1
  O  O242  1  0.12817751  0.48657115  0.23316260  1
  O  O243  1  0.14792595  0.50512355  0.73966337  1
  O  O244  1  0.14473254  1.00564805  0.27847965  1
  O  O245  1  0.11919498  0.99593007  0.74029319  1
  O  O246  1  0.63462244  0.49826229  0.23229159  1
  O  O247  1  0.63283819  0.47592405  0.76632080  1
  O  O248  1  0.64542601  1.00799825  0.26505472  1
  O  O249  1  0.63216318  0.99377164  0.75330144  1
  O  O250  1  0.37134978  0.00278323  0.26200550  1
  O  O251  1  0.37237632  0.00969090  0.76396477  1
  O  O252  1  0.37631926  0.44894599  0.27450099  1
  O  O253  1  0.36809371  0.51907710  0.74828418  1
  O  O254  1  0.88534969  -0.01483168  0.26223597  1
  O  O255  1  0.86686601  0.00304632  0.75384582  1
  O  O256  1  0.88019367  0.47010309  0.26225929  1
  O  O257  1  0.87207146  0.51640583  0.74712023  1
  O  O258  1  0.13726184  0.38301081  0.36536854  1
  O  O259  1  0.09756800  0.39665122  0.83419317  1
  O  O260  1  0.12380169  0.84622318  0.40581842  1
  O  O261  1  0.12779696  0.85982055  0.88302528  1
  O  O262  1  0.62633220  0.35366853  0.37916877  1
  O  O263  1  0.62250935  0.36167387  0.87221863  1
  O  O264  1  0.62025121  0.86793149  0.37643597  1
  O  O265  1  0.61498598  0.87021361  0.87250927  1
  O  O266  1  0.37088813  0.12804704  0.12699458  1
  O  O267  1  0.37910117  0.12550025  0.63808073  1
  O  O268  1  0.37885198  0.65168370  0.11421563  1
  O  O269  1  0.37787022  0.64410878  0.63908108  1
  O  O270  1  0.89196269  0.14569621  0.14606879  1
  O  O271  1  0.88430982  0.12130555  0.63476100  1
  O  O272  1  0.87589601  0.62306268  0.10097255  1
  O  O273  1  0.87281967  0.63845160  0.62819756  1
  O  O274  1  0.26182990  0.24006889  0.11673531  1
  O  O275  1  0.26143395  0.24897869  0.63648246  1
  O  O276  1  0.24863459  0.74447260  0.14486110  1
  O  O277  1  0.25435525  0.76257441  0.62809340  1
  O  O278  1  0.73922551  0.22363808  0.10870554  1
  O  O279  1  0.75305841  0.25924550  0.61591572  1
  O  O280  1  0.73579563  0.74753493  0.10827328  1
  O  O281  1  0.75463789  0.75603526  0.61631365  1
  O  O282  1  0.27299643  0.24512469  0.39088030  1
  O  O283  1  0.25367290  0.23827384  0.87353011  1
  O  O284  1  0.26954774  0.72979682  0.37811337  1
  O  O285  1  0.23086746  0.73968371  0.86093535  1
  O  O286  1  0.73835738  0.24780396  0.39174188  1
  O  O287  1  0.74490299  0.23576058  0.87626089  1
  O  O288  1  0.74565652  0.75711694  0.38432953  1
  O  O289  1  0.73470015  0.74196081  0.88260381  1
  O  O290  1  -0.00470252  0.13418863  0.01093575  1
  O  O291  1  -0.00812599  0.11019853  0.51298790  1
  O  O292  1  0.00876828  0.62432020  0.00229010  1
  O  O293  1  -0.00203244  0.62898508  0.51259864  1
  O  O294  1  0.49521044  0.11628028  -0.00297125  1
  O  O295  1  0.50376257  0.11611164  0.51324926  1
  O  O296  1  0.50738158  0.61457046  -0.00698046  1
  O  O297  1  0.48024030  0.60130049  0.49673320  1
  O  O298  1  0.49590647  0.36743682  0.49456790  1
  O  O299  1  0.49628975  0.38594492  0.99181070  1
  O  O300  1  0.49751911  0.88436324  0.49460612  1
  O  O301  1  0.50493331  0.88851626  0.99025795  1
  O  O302  1  0.98881063  0.36249791  0.49972595  1
  O  O303  1  0.93079957  0.35797558  1.04353318  1
  O  O304  1  0.98537809  0.89259040  0.51411462  1
  O  O305  1  0.98181183  0.85235725  0.99586206  1
  O  O306  1  0.51075171  0.48301526  0.37841528  1
  O  O307  1  0.50545019  0.48296825  0.88474339  1
  O  O308  1  0.49410367  0.99434527  0.38500214  1
  O  O309  1  0.49079547  0.99653562  0.88730963  1
  O  O310  1  0.99613510  0.50488345  0.36731852  1
  O  O311  1  0.98592611  0.50575910  0.85499869  1
  O  O312  1  0.99999287  1.00398483  0.39176792  1
  O  O313  1  0.98458609  1.01672809  0.88541228  1
  O  O314  1  -0.02352251  0.02341025  0.10476802  1
  O  O315  1  0.00694107  0.00572471  0.62045335  1
  O  O316  1  0.01685868  0.52214245  0.13021129  1
  O  O317  1  -0.00481382  0.52300972  0.62669276  1
  O  O318  1  0.48320850  -0.00109603  0.10827317  1
  O  O319  1  0.49741782  0.00511347  0.61684711  1
  O  O320  1  0.49467155  0.49860547  0.10934835  1
  O  O321  1  0.46867639  0.50040348  0.60212278  1
  O  O322  1  0.23235133  0.37527819  0.22854101  1
  O  O323  1  0.24659354  0.39233355  0.74891266  1
  O  O324  1  0.25396909  0.88758930  0.26235124  1
  O  O325  1  0.25694320  0.87953491  0.73562348  1
  O  O326  1  0.71592995  0.35173206  0.24158100  1
  O  O327  1  0.74303970  0.36767990  0.73784776  1
  O  O328  1  0.75240882  0.89661749  0.24872888  1
  O  O329  1  0.74000790  0.88280420  0.74828784  1
  O  O330  1  0.26902394  0.10949552  0.25373818  1
  O  O331  1  0.25743004  0.12031060  0.76165442  1
  O  O332  1  0.24391450  0.61472002  0.28670450  1
  O  O333  1  0.25703923  0.61930970  0.75276020  1
  O  O334  1  0.77861834  0.11130510  0.25095014  1
  O  O335  1  0.75378508  0.11532274  0.74881683  1
  O  O336  1  0.76755768  0.63247555  0.27340398  1
  O  O337  1  0.75528868  0.63098299  0.75516257  1
  O  O338  1  0.38050226  0.10884139  0.38304453  1
  O  O339  1  0.36704682  0.11852388  0.87028734  1
  O  O340  1  0.36492367  0.62477670  0.37496185  1
  O  O341  1  0.35869482  0.64100528  0.86404810  1
  O  O342  1  0.88847567  0.11448393  0.36289028  1
  O  O343  1  0.85747133  0.11186563  0.86013789  1
  O  O344  1  0.86354832  0.59318720  0.37376606  1
  O  O345  1  0.86577782  0.62371488  0.86408874  1
  O  O346  1  0.12689362  0.39356967  0.10639713  1
  O  O347  1  0.09160354  0.39370234  0.65199392  1
  O  O348  1  0.20031176  0.86397914  0.06373693  1
  O  O349  1  0.13998815  0.87895752  0.61874697  1
  O  O350  1  0.62361101  0.38196036  0.11151104  1
  O  O351  1  0.62975340  0.36709533  0.64094980  1
  O  O352  1  0.61408362  0.90835827  0.13525722  1
  O  O353  1  0.62802022  0.87774897  0.63738925  1
  O  O354  1  0.15636117  0.25955618  0.25634046  1
  O  O355  1  0.11248812  0.26847475  0.74294401  1
  O  O356  1  0.10062755  0.66634000  0.27505326  1
  O  O357  1  0.11094261  0.74862427  0.75870768  1
  O  O358  1  0.61501561  0.21940733  0.27927341  1
  O  O359  1  0.62854695  0.26125818  0.76434399  1
  O  O360  1  0.62667338  0.75341822  0.26386486  1
  O  O361  1  0.62675161  0.76568101  0.76393237  1
  O  O362  1  0.36846718  0.23724857  0.23487521  1
  O  O363  1  0.37373041  0.23645990  0.74738095  1
  O  O364  1  0.40154460  0.74768446  0.25546608  1
  O  O365  1  0.37533437  0.74413583  0.74139968  1
  O  O366  1  0.87125781  0.24900491  0.27294776  1
  O  O367  1  0.87496332  0.23463908  0.74756014  1
  O  O368  1  0.85040167  0.75212569  0.21687859  1
  O  O369  1  0.87807062  0.74495119  0.74341456  1
  O  O370  1  0.38227549  0.47555574  0.48506244  1
  O  O371  1  0.38534638  0.49142136  1.00034753  1
  O  O372  1  0.38356289  0.99347010  0.49469977  1
  O  O373  1  0.38029147  1.00452789  0.98956618  1
  O  O374  1  0.89225363  0.48585725  0.49147920  1
  O  O375  1  0.88591115  0.50715841  0.97683495  1
  O  O376  1  0.87980693  0.99716819  0.49178281  1
  O  O377  1  0.88751200  0.98375665  0.98917597  1
  O  O378  1  0.09070921  -0.00567776  0.00358673  1
  O  O379  1  0.11215537  -0.00517375  0.50919744  1
  O  O380  1  0.11980049  0.50984448  -0.00181264  1
  O  O381  1  0.12568118  0.49206355  0.50698458  1
  O  O382  1  0.61471982  0.00713111  0.00814325  1
  O  O383  1  0.61806427  0.00426068  0.50428621  1
  O  O384  1  0.61454247  0.51457335  -0.00445431  1
  O  O385  1  0.59709080  0.49154611  0.51263075  1
  O  O386  1  0.37178143  0.36607658  0.10938631  1
  O  O387  1  0.37951001  0.35703301  0.64700954  1
  O  O388  1  0.38227562  0.84271764  0.13093406  1
  O  O389  1  0.37221865  0.86598229  0.62458697  1
  O  O390  1  0.89320854  0.36531710  0.11296745  1
  O  O391  1  0.86951804  0.37436748  0.60922717  1
  O  O392  1  0.87343587  0.87758446  0.10606577  1
  O  O393  1  0.86622067  0.86844050  0.61990724  1
  O  O394  1  0.09333199  0.16948064  0.38231664  1
  O  O395  1  0.13852693  0.12190710  0.87078455  1
  O  O396  1  0.16123766  0.64251209  0.41456184  1
  O  O397  1  0.13160835  0.62709870  0.87918366  1
  O  O398  1  0.61631247  0.12728093  0.39921911  1
  O  O399  1  0.63586610  0.13383691  0.86934719  1
  O  O400  1  0.64183784  0.63309533  0.37259851  1
  O  O401  1  0.62762794  0.63386835  0.87490511  1
