# generated using pymatgen
data_V73Zn73O256
_symmetry_space_group_name_H-M   'P 1'
_cell_length_a   16.85839666
_cell_length_b   16.83820261
_cell_length_c   16.83826829
_cell_angle_alpha   90.15744187
_cell_angle_beta   89.90164522
_cell_angle_gamma   90.08984921
_symmetry_Int_Tables_number   1
_chemical_formula_structural   V73Zn73O256
_chemical_formula_sum   'V73 Zn73 O256'
_cell_volume   4779.76576128
_cell_formula_units_Z   1
loop_
 _symmetry_equiv_pos_site_id
 _symmetry_equiv_pos_as_xyz
  1  'x, y, z'
loop_
 _atom_site_type_symbol
 _atom_site_label
 _atom_site_symmetry_multiplicity
 _atom_site_fract_x
 _atom_site_fract_y
 _atom_site_fract_z
 _atom_site_occupancy
  V  V0  1  0.00598642  0.49534207  0.00635087  1
  V  V1  1  0.87143844  0.12682056  0.26497696  1
  V  V2  1  0.86861403  0.37672083  -0.00107484  1
  V  V3  1  -0.00020901  0.76042101  0.26157049  1
  V  V4  1  0.50544178  0.62845776  0.61874597  1
  V  V5  1  -0.00328400  0.74424141  0.73607290  1
  V  V6  1  0.13789089  0.38656236  0.74233574  1
  V  V7  1  0.37168939  0.61397742  0.74014483  1
  V  V8  1  0.49404064  0.61948513  0.12753281  1
  V  V9  1  0.74589759  0.36741488  0.13026113  1
  V  V10  1  0.26131812  0.11366768  0.86187764  1
  V  V11  1  0.35513097  0.00266687  0.36956000  1
  V  V12  1  0.48483427  -0.00534471  -0.00531779  1
  V  V13  1  0.86287487  0.51624155  0.87844051  1
  V  V14  1  0.63892596  0.88456869  0.74128667  1
  V  V15  1  0.49441523  0.48313926  0.49739291  1
  V  V16  1  0.51764895  0.26158969  0.25694370  1
  V  V17  1  0.14002225  0.00630094  0.62610103  1
  V  V18  1  0.63335690  0.24616059  0.87294578  1
  V  V19  1  0.74648022  -0.00811055  0.25171524  1
  V  V20  1  0.76506569  0.75562894  0.51724334  1
  V  V21  1  0.89587575  0.87876715  -0.00346279  1
  V  V22  1  0.87642936  0.00123039  0.85493979  1
  V  V23  1  0.38074035  0.49827035  0.88325501  1
  V  V24  1  0.24821199  0.24495859  -0.00337623  1
  V  V25  1  0.14226075  0.26573583  0.38107952  1
  V  V26  1  0.63589877  0.74926833  0.87415074  1
  V  V27  1  0.88383552  0.24295778  0.11761816  1
  V  V28  1  0.00376465  0.49531007  0.52205355  1
  V  V29  1  0.23186545  0.50909605  0.24573886  1
  V  V30  1  0.86738974  0.62660764  0.73905582  1
  V  V31  1  0.63316929  0.49963941  0.62742589  1
  V  V32  1  0.49827345  0.76378285  0.24592670  1
  V  V33  1  0.12482794  0.62571209  0.51776045  1
  V  V34  1  0.63111535  -0.01316805  0.12301197  1
  V  V35  1  0.62591365  0.49903540  0.12676909  1
  V  V36  1  0.74799871  0.50856281  0.25981245  1
  V  V37  1  0.50190617  0.88207278  0.38934537  1
  V  V38  1  0.12157892  0.24518108  0.87269637  1
  V  V39  1  -0.01184737  0.12734803  0.62733072  1
  V  V40  1  0.50094025  0.13130139  0.12808730  1
  V  V41  1  0.75070941  0.76044441  0.00518472  1
  V  V42  1  0.50108705  0.74700472  0.75317182  1
  V  V43  1  0.12834919  0.62615250  0.00128905  1
  V  V44  1  0.76272769  0.36787182  0.62187668  1
  V  V45  1  0.36590273  0.25799556  0.60113862  1
  V  V46  1  0.62862540  0.61986723  -0.00419503  1
  V  V47  1  0.89460317  0.49459010  0.37975144  1
  V  V48  1  0.49946619  0.11397936  0.61891604  1
  V  V49  1  0.36986291  0.75906597  0.11200559  1
  V  V50  1  -0.01067121  0.25166577  0.74337864  1
  V  V51  1  0.32850788  0.19851490  0.17941275  1
  V  V52  1  0.12471932  0.88548419  0.74509262  1
  V  V53  1  0.23595018  0.37774228  0.13058475  1
  V  V54  1  0.11940508  0.75605734  0.87280057  1
  V  V55  1  0.11698022  0.01066509  0.11508362  1
  V  V56  1  0.62493711  0.11721413  0.48843426  1
  V  V57  1  0.38214424  0.37211842  0.00766131  1
  V  V58  1  0.14462445  0.74432374  0.37828050  1
  V  V59  1  0.87467008  0.75825478  0.12573059  1
  V  V60  1  0.49000871  0.24379990  0.74852730  1
  V  V61  1  -0.00612264  0.26396632  0.26816403  1
  V  V62  1  0.63474565  0.74723013  0.36828966  1
  V  V63  1  0.62828340  0.37646880  0.74954531  1
  V  V64  1  0.37808801  0.50328245  0.36137471  1
  V  V65  1  0.13246834  0.89081477  0.25948308  1
  V  V66  1  0.87081578  -0.00983249  0.38933595  1
  V  V67  1  0.24942080  0.62334201  0.87586843  1
  V  V68  1  0.13802312  0.12981641  0.49335030  1
  V  V69  1  0.63616417  0.12561491  -0.00342118  1
  V  V70  1  0.75040224  0.25134528  0.48339678  1
  V  V71  1  0.35273888  0.86006358  0.51039726  1
  V  V72  1  0.00136307  0.63082589  0.12658464  1
  Zn  Zn73  1  0.86984651  0.63162539  0.25789604  1
  Zn  Zn74  1  -0.00268330  0.00119841  0.50255259  1
  Zn  Zn75  1  0.25509324  0.88524492  0.12167250  1
  Zn  Zn76  1  0.49814314  0.87732880  0.87528730  1
  Zn  Zn77  1  0.75103507  0.11417375  0.84729845  1
  Zn  Zn78  1  0.50484244  0.37697239  0.87768261  1
  Zn  Zn79  1  -0.00246995  0.02565614  -0.00213044  1
  Zn  Zn80  1  0.00196691  0.38140870  0.87242024  1
  Zn  Zn81  1  0.63819385  0.61859635  0.48294452  1
  Zn  Zn82  1  0.16089375  0.15954684  0.22867862  1
  Zn  Zn83  1  0.19219268  0.19084320  0.68719655  1
  Zn  Zn84  1  0.18622525  0.69236795  0.18925728  1
  Zn  Zn85  1  0.18982765  0.68505881  0.68503214  1
  Zn  Zn86  1  0.69065357  0.18068853  0.18865949  1
  Zn  Zn87  1  0.67564092  0.19591332  0.67134720  1
  Zn  Zn88  1  0.68466077  0.69084966  0.18662003  1
  Zn  Zn89  1  0.69401121  0.68964539  0.68611497  1
  Zn  Zn90  1  0.32151929  0.32572273  0.31955660  1
  Zn  Zn91  1  0.30959719  0.31548374  0.81210858  1
  Zn  Zn92  1  0.31918048  0.81641069  0.30653637  1
  Zn  Zn93  1  0.29798613  0.79479216  0.76930713  1
  Zn  Zn94  1  0.80775559  0.31941691  0.31182172  1
  Zn  Zn95  1  0.81037843  0.31959245  0.81236726  1
  Zn  Zn96  1  0.81380070  0.81814142  0.31310592  1
  Zn  Zn97  1  0.81746582  0.81375491  0.81368086  1
  Zn  Zn98  1  0.18053013  0.46123721  0.42418045  1
  Zn  Zn99  1  0.19124555  0.43436475  0.93380353  1
  Zn  Zn100  1  0.18709497  0.93467215  0.44135504  1
  Zn  Zn101  1  0.19505110  0.93496039  0.94270989  1
  Zn  Zn102  1  0.67959749  0.42967080  0.43940702  1
  Zn  Zn103  1  0.68854616  0.43547654  0.93882543  1
  Zn  Zn104  1  0.68656498  0.93322470  0.43841422  1
  Zn  Zn105  1  0.69008031  0.93582166  0.93046033  1
  Zn  Zn106  1  0.30262004  0.05688477  0.06291981  1
  Zn  Zn107  1  0.32808829  0.06041517  0.55196754  1
  Zn  Zn108  1  0.30978538  0.56104579  0.06541613  1
  Zn  Zn109  1  0.33585531  0.60785518  0.51878298  1
  Zn  Zn110  1  0.81406751  0.05900147  0.06289687  1
  Zn  Zn111  1  0.79984001  0.07195904  0.56815149  1
  Zn  Zn112  1  0.81034498  0.56738488  0.06627922  1
  Zn  Zn113  1  0.81606325  0.56823485  0.55186318  1
  Zn  Zn114  1  0.43945527  0.43501074  0.18891538  1
  Zn  Zn115  1  0.44090641  0.43471860  0.68424227  1
  Zn  Zn116  1  0.43725002  0.94252899  0.18661265  1
  Zn  Zn117  1  0.44115923  0.92433157  0.68154935  1
  Zn  Zn118  1  0.93362074  0.43962932  0.18627487  1
  Zn  Zn119  1  0.94203645  0.44194626  0.69705737  1
  Zn  Zn120  1  0.94045802  0.94019279  0.18955076  1
  Zn  Zn121  1  0.95200099  0.93267757  0.68421102  1
  Zn  Zn122  1  0.04762322  0.06794982  0.31970032  1
  Zn  Zn123  1  0.05822859  0.06701260  0.81660693  1
  Zn  Zn124  1  0.05896144  0.56918935  0.31419001  1
  Zn  Zn125  1  0.05446789  0.56374413  0.81355424  1
  Zn  Zn126  1  0.56071206  0.06216182  0.31007094  1
  Zn  Zn127  1  0.55561197  0.06224670  0.81081870  1
  Zn  Zn128  1  0.55816191  0.56212068  0.30839509  1
  Zn  Zn129  1  0.56291903  0.56156699  0.81275806  1
  Zn  Zn130  1  0.43788425  0.18495227  0.43453706  1
  Zn  Zn131  1  0.43946503  0.18411627  0.93611902  1
  Zn  Zn132  1  0.43782359  0.69316547  0.42464033  1
  Zn  Zn133  1  0.44203564  0.68384138  0.93820191  1
  Zn  Zn134  1  0.93597237  0.18913666  0.44766920  1
  Zn  Zn135  1  0.92795812  0.18438633  0.92591616  1
  Zn  Zn136  1  0.93419060  0.67524155  0.44357509  1
  Zn  Zn137  1  0.94252715  0.69096779  0.93858858  1
  Zn  Zn138  1  0.06410381  0.19640243  0.06622490  1
  Zn  Zn139  1  0.06620564  0.31460643  0.56287530  1
  Zn  Zn140  1  0.09740632  0.83065260  0.05093842  1
  Zn  Zn141  1  0.06858183  0.81059875  0.56267902  1
  Zn  Zn142  1  0.56493123  0.30911628  0.06156361  1
  Zn  Zn143  1  0.56299037  0.30456777  0.56021034  1
  Zn  Zn144  1  0.55709512  0.81036038  0.05707014  1
  Zn  Zn145  1  0.57700181  0.81278746  0.55721655  1
  O  O146  1  0.12325251  0.11886047  0.13100404  1
  O  O147  1  0.12301745  0.11957967  0.61739847  1
  O  O148  1  0.11421323  0.63765747  0.11252998  1
  O  O149  1  0.11713057  0.63256927  0.61814907  1
  O  O150  1  0.61726319  0.12097731  0.11134523  1
  O  O151  1  0.60659830  0.12411952  0.61846004  1
  O  O152  1  0.61903733  0.61838138  0.11628903  1
  O  O153  1  0.61803490  0.61196168  0.63309055  1
  O  O154  1  0.37362782  0.40265246  0.38413327  1
  O  O155  1  0.37400613  0.38810256  0.88114902  1
  O  O156  1  0.38663811  0.87594063  0.38168702  1
  O  O157  1  0.36963501  0.88904420  0.83165760  1
  O  O158  1  0.86026618  0.39869336  0.37428198  1
  O  O159  1  0.87671239  0.38394253  0.88478851  1
  O  O160  1  0.87245726  0.89068525  0.37792973  1
  O  O161  1  0.87501098  0.88354662  0.89052670  1
  O  O162  1  0.25354230  -0.00461617  0.37116373  1
  O  O163  1  0.24089437  0.01636123  0.88481404  1
  O  O164  1  0.26014090  0.49901218  0.35290325  1
  O  O165  1  0.26395778  0.51069745  0.87839190  1
  O  O166  1  0.75436890  -0.00219709  0.35888713  1
  O  O167  1  0.76834530  -0.00032477  0.87857271  1
  O  O168  1  0.73523158  0.50056776  0.35990221  1
  O  O169  1  0.76369560  0.49930149  0.87986306  1
  O  O170  1  0.24974990  0.48810851  0.13150216  1
  O  O171  1  0.25676533  0.43888183  0.58314307  1
  O  O172  1  0.22761846  1.00083846  0.12509170  1
  O  O173  1  0.23823282  1.00962343  0.62430835  1
  O  O174  1  0.74415281  0.49259110  0.13073302  1
  O  O175  1  0.73593889  0.49409806  0.61440558  1
  O  O176  1  0.73696766  1.00268274  0.12897436  1
  O  O177  1  0.75112910  1.04483121  0.67602351  1
  O  O178  1  -0.01172363  0.36230411  0.25031574  1
  O  O179  1  0.00848919  0.36257577  0.75190451  1
  O  O180  1  0.00490651  0.86491872  0.25519565  1
  O  O181  1  0.01112464  0.85791753  0.74970498  1
  O  O182  1  0.50749472  0.36119022  0.23830388  1
  O  O183  1  0.51152533  0.36469024  0.75345888  1
  O  O184  1  0.50321139  0.86624495  0.25053116  1
  O  O185  1  0.50700497  0.85543683  0.75164287  1
  O  O186  1  0.50380758  0.12676490  0.23123968  1
  O  O187  1  0.50397083  0.13722919  0.74029705  1
  O  O188  1  0.50507294  0.63516493  0.23150436  1
  O  O189  1  0.49656369  0.62776727  0.74228458  1
  O  O190  1  0.97981486  0.13821807  0.25371640  1
  O  O191  1  1.00787485  0.14041816  0.73919298  1
  O  O192  1  0.99973881  0.63651377  0.23916609  1
  O  O193  1  0.99040645  0.63698297  0.75394393  1
  O  O194  1  0.36348547  0.26484670  -0.01262812  1
  O  O195  1  0.37784817  0.25816828  0.50071291  1
  O  O196  1  0.38342944  0.75039738  0.01153900  1
  O  O197  1  0.37460948  0.75739083  0.49463096  1
  O  O198  1  0.88096914  0.26124793  0.01045178  1
  O  O199  1  0.85122987  0.24377916  0.49795675  1
  O  O200  1  0.87239507  0.76095247  0.00420060  1
  O  O201  1  0.86482455  0.74691686  0.49412082  1
  O  O202  1  0.12429312  0.24137456  0.49113726  1
  O  O203  1  0.13900940  0.25432177  0.99045911  1
  O  O204  1  0.11808583  0.74189443  0.48612342  1
  O  O205  1  0.11514249  0.73575751  0.98208633  1
  O  O206  1  0.63680000  0.23943253  0.50734173  1
  O  O207  1  0.61971358  0.23482330  0.98836765  1
  O  O208  1  0.63373287  0.74480717  0.48287223  1
  O  O209  1  0.63217039  0.74563928  0.99460511  1
  O  O210  1  0.50392995  0.23639176  0.12800642  1
  O  O211  1  0.49278576  0.24540723  0.63686363  1
  O  O212  1  0.49537254  0.74518315  0.13076988  1
  O  O213  1  0.51379615  0.73479691  0.63855074  1
  O  O214  1  0.98567098  0.25195880  0.13948471  1
  O  O215  1  1.00432585  0.24310866  0.63550441  1
  O  O216  1  0.99294949  0.74533103  0.13444370  1
  O  O217  1  1.00370482  0.74699349  0.63647501  1
  O  O218  1  -0.01116266  0.25659856  0.37031670  1
  O  O219  1  0.01041995  0.24971502  0.86516805  1
  O  O220  1  -0.00377108  0.74339270  0.36067248  1
  O  O221  1  0.01489861  0.74392608  0.86558401  1
  O  O222  1  0.49298879  0.24268408  0.35287340  1
  O  O223  1  0.51301819  0.24624390  0.86411045  1
  O  O224  1  0.50357150  0.75970079  0.35947890  1
  O  O225  1  0.51209256  0.74773882  0.86717395  1
  O  O226  1  0.23585461  0.12111961  0.50103637  1
  O  O227  1  0.25569253  0.14290692  0.99845100  1
  O  O228  1  0.22630829  0.61892055  0.50595064  1
  O  O229  1  0.23769095  0.61883077  0.99356417  1
  O  O230  1  0.73615639  0.13988177  0.50355432  1
  O  O231  1  0.73606810  0.12295569  1.00245121  1
  O  O232  1  0.74702151  0.64232330  0.50402732  1
  O  O233  1  0.73550602  0.63846501  1.00817770  1
  O  O234  1  0.25794987  0.36835353  0.00957560  1
  O  O235  1  0.25377788  0.40149230  0.52003773  1
  O  O236  1  0.20853019  0.85805164  0.02003948  1
  O  O237  1  0.25104237  0.86291052  0.50349101  1
  O  O238  1  0.76067749  0.37933647  0.01184108  1
  O  O239  1  0.74457245  0.36561176  0.51393999  1
  O  O240  1  0.75593267  0.86409082  0.00127211  1
  O  O241  1  0.74570165  0.85400715  0.49063810  1
  O  O242  1  0.13269449  0.50044105  0.25462801  1
  O  O243  1  0.11466855  0.48484711  0.75919947  1
  O  O244  1  0.11810815  0.99367832  0.26290141  1
  O  O245  1  0.11485952  0.99408546  0.74123720  1
  O  O246  1  0.63288345  0.50447307  0.23611718  1
  O  O247  1  0.61865916  0.49131999  0.73860937  1
  O  O248  1  0.63627070  1.00661342  0.23598770  1
  O  O249  1  0.62031556  0.98242263  0.76183102  1
  O  O250  1  0.37692351  -0.00980243  0.26806623  1
  O  O251  1  0.37237165  -0.05001075  0.78276961  1
  O  O252  1  0.38510420  0.50836322  0.25922863  1
  O  O253  1  0.38491211  0.50976160  0.75939667  1
  O  O254  1  0.86931555  0.01058405  0.25551445  1
  O  O255  1  0.87808238  -0.01761458  0.75641218  1
  O  O256  1  0.86092633  0.50170092  0.25563816  1
  O  O257  1  0.88538120  0.51554261  0.77002797  1
  O  O258  1  0.13002510  0.36435348  0.38830186  1
  O  O259  1  0.12277269  0.36331335  0.87147713  1
  O  O260  1  0.12534870  0.86196840  0.36707488  1
  O  O261  1  0.12578658  0.86076813  0.86661692  1
  O  O262  1  0.62431448  0.35774343  0.37471426  1
  O  O263  1  0.62676027  0.36628076  0.87028400  1
  O  O264  1  0.61127264  0.86145487  0.37644316  1
  O  O265  1  0.62166319  0.86240603  0.86732622  1
  O  O266  1  0.38549893  0.12927341  0.12024936  1
  O  O267  1  0.39023183  0.14050413  0.61117075  1
  O  O268  1  0.39092925  0.63025902  0.11416419  1
  O  O269  1  0.38996992  0.61776363  0.63347902  1
  O  O270  1  0.86793051  0.14161435  0.12589597  1
  O  O271  1  0.88974462  0.12346826  0.62467138  1
  O  O272  1  0.88498071  0.63886020  0.12359002  1
  O  O273  1  0.87422258  0.61462791  0.64075493  1
  O  O274  1  0.26155890  0.25747351  0.11681954  1
  O  O275  1  0.26682744  0.24513760  0.62194424  1
  O  O276  1  0.26977460  0.74505332  0.13011649  1
  O  O277  1  0.27308704  0.75370592  0.66465923  1
  O  O278  1  0.75815804  0.26304389  0.13137788  1
  O  O279  1  0.75488203  0.26482651  0.62683863  1
  O  O280  1  0.76371903  0.74732871  0.12026918  1
  O  O281  1  0.75359968  0.75743067  0.61864236  1
  O  O282  1  0.24068279  0.25571018  0.36721795  1
  O  O283  1  0.24255246  0.24562225  0.88263868  1
  O  O284  1  0.24311954  0.74936339  0.36728535  1
  O  O285  1  0.23620331  0.73223009  0.86030030  1
  O  O286  1  0.74154476  0.25920436  0.38262595  1
  O  O287  1  0.73750136  0.23871302  0.85853384  1
  O  O288  1  0.73542071  0.74961135  0.35806350  1
  O  O289  1  0.74201859  0.75123269  0.88609875  1
  O  O290  1  -0.00405840  0.13792403  0.00002062  1
  O  O291  1  0.00867797  0.12884735  0.51523122  1
  O  O292  1  0.00659364  0.61752328  0.00707225  1
  O  O293  1  0.01397909  0.61234538  0.49399212  1
  O  O294  1  0.50628665  0.11521547  0.00749637  1
  O  O295  1  0.51164205  0.12821876  0.50926403  1
  O  O296  1  0.51853742  0.63417421  0.01366749  1
  O  O297  1  0.50502309  0.62805421  0.51557075  1
  O  O298  1  0.50499144  0.38445331  0.50272981  1
  O  O299  1  0.48673418  0.36558529  0.99637010  1
  O  O300  1  0.49884054  0.86900144  0.49082605  1
  O  O301  1  0.50042185  0.88883187  0.99542944  1
  O  O302  1  1.00773906  0.39449886  0.50710921  1
  O  O303  1  0.98747632  0.39213954  1.00541754  1
  O  O304  1  0.97535468  0.88222689  0.52833271  1
  O  O305  1  0.99530058  0.86999261  0.99951456  1
  O  O306  1  0.49403864  0.50655990  0.38864145  1
  O  O307  1  0.48678463  0.50027724  0.87739798  1
  O  O308  1  0.50406494  0.98231141  0.37137377  1
  O  O309  1  0.49695739  1.00148927  0.89010936  1
  O  O310  1  0.99554085  0.48943002  0.36755783  1
  O  O311  1  0.98744539  0.50198962  0.89313212  1
  O  O312  1  0.97704358  1.00756671  0.38686498  1
  O  O313  1  0.98265307  1.00681757  0.87885235  1
  O  O314  1  0.01170773  0.00567951  0.12968780  1
  O  O315  1  0.00903217  0.01768169  0.62596994  1
  O  O316  1  -0.00930094  0.51350189  0.11467825  1
  O  O317  1  -0.00134061  0.50561715  0.62112410  1
  O  O318  1  0.51073843  0.00861439  0.11740007  1
  O  O319  1  0.48612207  0.01581330  0.63462766  1
  O  O320  1  0.50870883  0.51182284  0.12809879  1
  O  O321  1  0.51136376  0.50706507  0.61760208  1
  O  O322  1  0.25927824  0.38334364  0.23516689  1
  O  O323  1  0.23869763  0.38037513  0.75623685  1
  O  O324  1  0.23433286  0.87241391  0.24492308  1
  O  O325  1  0.22407408  0.87998429  0.75204167  1
  O  O326  1  0.74969137  0.38792029  0.23434299  1
  O  O327  1  0.73697333  0.37414565  0.73957160  1
  O  O328  1  0.75915349  0.89319399  0.24072456  1
  O  O329  1  0.73823912  0.86798630  0.75272550  1
  O  O330  1  0.27104447  0.14191191  0.23823448  1
  O  O331  1  0.24869803  0.12404241  0.76236093  1
  O  O332  1  0.24853036  0.60778204  0.23400291  1
  O  O333  1  0.26799396  0.61751218  0.75450938  1
  O  O334  1  0.76486079  0.11401651  0.24243815  1
  O  O335  1  0.74586109  0.11047349  0.72093947  1
  O  O336  1  0.75141889  0.61226643  0.24080981  1
  O  O337  1  0.76735603  0.63291650  0.75454598  1
  O  O338  1  0.37723268  0.10043671  0.38852090  1
  O  O339  1  0.36115205  0.12575508  0.87747814  1
  O  O340  1  0.36962893  0.60484412  0.40194587  1
  O  O341  1  0.37183579  0.61482306  0.87237805  1
  O  O342  1  0.86764837  0.12196180  0.36669224  1
  O  O343  1  0.86744104  0.11131867  0.86328351  1
  O  O344  1  0.87754065  0.60335100  0.36993004  1
  O  O345  1  0.87157778  0.61872172  0.88286447  1
  O  O346  1  0.14078888  0.36640601  0.12551012  1
  O  O347  1  0.12735815  0.36856145  0.64261319  1
  O  O348  1  0.11499383  0.89261762  0.14841079  1
  O  O349  1  0.11815898  0.89276389  0.63214507  1
  O  O350  1  0.63841173  0.38303156  0.11082210  1
  O  O351  1  0.62885509  0.38471679  0.63126539  1
  O  O352  1  0.62079477  0.88849842  0.11908362  1
  O  O353  1  0.61996208  0.87276055  0.64187969  1
  O  O354  1  0.10545188  0.24689745  0.27320502  1
  O  O355  1  0.12398363  0.25854872  0.76160613  1
  O  O356  1  0.11528085  0.75799820  0.25839282  1
  O  O357  1  0.11559147  0.75219067  0.75554726  1
  O  O358  1  0.61669638  0.24314214  0.24515391  1
  O  O359  1  0.61616847  0.25720723  0.75363928  1
  O  O360  1  0.61254136  0.74980377  0.25444528  1
  O  O361  1  0.61956831  0.74605060  0.75970680  1
  O  O362  1  0.38481405  0.25743773  0.24055732  1
  O  O363  1  0.39056202  0.25299332  0.75992585  1
  O  O364  1  0.39201419  0.75074805  0.23885393  1
  O  O365  1  0.39539496  0.72949102  0.76236241  1
  O  O366  1  0.87505637  0.24384904  0.24578017  1
  O  O367  1  0.89080169  0.25546209  0.75721943  1
  O  O368  1  0.88449939  0.75327159  0.24422785  1
  O  O369  1  0.88712717  0.74116540  0.75619071  1
  O  O370  1  0.39548699  0.50167241  0.51351320  1
  O  O371  1  0.37264969  0.48908219  0.99153787  1
  O  O372  1  0.36696853  0.97503141  0.48564246  1
  O  O373  1  0.38610016  1.00034713  1.00964696  1
  O  O374  1  0.89345531  0.50675189  0.49072768  1
  O  O375  1  0.87854336  0.49812904  0.99571789  1
  O  O376  1  0.85759195  1.00777175  0.49059987  1
  O  O377  1  0.88243552  0.98538721  1.00849945  1
  O  O378  1  0.11346379  -0.00004761  0.01221912  1
  O  O379  1  0.12105386  0.00827591  0.51057096  1
  O  O380  1  0.11167242  0.50569050  -0.00439597  1
  O  O381  1  0.11474880  0.51252946  0.50012768  1
  O  O382  1  0.62197997  0.00816592  0.00667923  1
  O  O383  1  0.64139573  0.01664485  0.50206390  1
  O  O384  1  0.63162292  0.51310177  0.00672134  1
  O  O385  1  0.61529340  0.50388439  0.50997979  1
  O  O386  1  0.37372623  0.37989788  0.10965105  1
  O  O387  1  0.38207629  0.35634201  0.63022180  1
  O  O388  1  0.37361644  0.86478914  0.12577712  1
  O  O389  1  0.37389873  0.87251011  0.60983850  1
  O  O390  1  0.86452004  0.36839086  0.11939333  1
  O  O391  1  0.85909693  0.38891367  0.63513622  1
  O  O392  1  0.88394915  0.86635095  0.11463541  1
  O  O393  1  0.91640271  0.87912810  0.58301101  1
  O  O394  1  0.11935348  0.13168123  0.38861428  1
  O  O395  1  0.13322683  0.14078273  0.87212993  1
  O  O396  1  0.12652993  0.64220592  0.37148216  1
  O  O397  1  0.13122610  0.62588222  0.88066477  1
  O  O398  1  0.61600584  0.12383604  0.38800338  1
  O  O399  1  0.62952645  0.12522665  0.88268877  1
  O  O400  1  0.61278401  0.64181738  0.37075062  1
  O  O401  1  0.62044558  0.63006239  0.88875938  1
