# generated using pymatgen
data_V73Zn73O256
_symmetry_space_group_name_H-M   'P 1'
_cell_length_a   16.97035262
_cell_length_b   16.88274583
_cell_length_c   16.94373285
_cell_angle_alpha   89.80892668
_cell_angle_beta   90.21511399
_cell_angle_gamma   90.23651910
_symmetry_Int_Tables_number   1
_chemical_formula_structural   V73Zn73O256
_chemical_formula_sum   'V73 Zn73 O256'
_cell_volume   4854.38134245
_cell_formula_units_Z   1
loop_
 _symmetry_equiv_pos_site_id
 _symmetry_equiv_pos_as_xyz
  1  'x, y, z'
loop_
 _atom_site_type_symbol
 _atom_site_label
 _atom_site_symmetry_multiplicity
 _atom_site_fract_x
 _atom_site_fract_y
 _atom_site_fract_z
 _atom_site_occupancy
  V  V0  1  0.74714973  0.73574480  0.49346834  1
  V  V1  1  0.49967609  0.62506897  0.12877960  1
  V  V2  1  0.12539931  0.61297017  0.00986486  1
  V  V3  1  0.86923342  0.87047935  0.50359505  1
  V  V4  1  -0.00109066  0.12966476  0.11830472  1
  V  V5  1  0.23150001  0.13405296  0.88422970  1
  V  V6  1  0.75061679  0.37490373  0.12039265  1
  V  V7  1  -0.00289840  0.87202378  0.88634760  1
  V  V8  1  0.24992928  0.88376007  0.12541876  1
  V  V9  1  0.50004718  0.12414479  0.11616909  1
  V  V10  1  0.01433202  0.88623195  0.38872614  1
  V  V11  1  0.86743153  0.12833490  0.25387076  1
  V  V12  1  0.37462606  0.00429248  0.88068615  1
  V  V13  1  0.00047945  0.75180107  0.24994582  1
  V  V14  1  0.00810844  0.38552110  0.89173009  1
  V  V15  1  0.50315347  -0.00808086  0.49422494  1
  V  V16  1  0.90888525  0.66683187  0.73448995  1
  V  V17  1  0.36833713  0.36926144  -0.00861194  1
  V  V18  1  0.50999705  0.87554890  0.86895388  1
  V  V19  1  0.37173309  -0.00697675  0.36688402  1
  V  V20  1  0.37579050  0.50229139  0.36425324  1
  V  V21  1  0.75208192  0.25712255  0.51297893  1
  V  V22  1  0.11263676  0.37164883  0.75316512  1
  V  V23  1  0.38483449  0.88388991  0.00234151  1
  V  V24  1  0.00104571  0.25747493  0.26737138  1
  V  V25  1  0.12992644  0.38276937  0.26017498  1
  V  V26  1  0.50322202  0.24213289  0.75335425  1
  V  V27  1  0.25157330  0.75227702  0.00271742  1
  V  V28  1  0.24714613  -0.00690348  0.73721042  1
  V  V29  1  0.37897004  0.38121680  0.50552566  1
  V  V30  1  0.74878968  0.50037619  0.26371386  1
  V  V31  1  0.74443347  0.50407922  0.75323886  1
  V  V32  1  0.12046762  0.74754297  0.87443115  1
  V  V33  1  0.49678731  0.12076746  0.61487890  1
  V  V34  1  0.36616962  0.87375577  0.50825250  1
  V  V35  1  0.62447046  0.36776719  0.25940042  1
  V  V36  1  0.62001713  0.00104191  0.11814340  1
  V  V37  1  0.00147832  0.12120142  0.61508649  1
  V  V38  1  0.74174031  0.87379929  0.63258529  1
  V  V39  1  0.74364637  0.77073910  -0.00385527  1
  V  V40  1  0.13053339  0.74221470  0.37067711  1
  V  V41  1  0.12650899  0.87799631  0.24158282  1
  V  V42  1  0.63152045  0.13202764  0.48262663  1
  V  V43  1  0.23923863  0.25226076  0.49468963  1
  V  V44  1  0.88611443  0.37700920  0.52402970  1
  V  V45  1  0.49805747  0.75180177  0.25483706  1
  V  V46  1  0.26641510  0.61659620  0.87314716  1
  V  V47  1  0.23773232  0.12615177  0.37796476  1
  V  V48  1  0.36947521  0.12131596  0.74674526  1
  V  V49  1  0.74776852  -0.00232166  0.24585536  1
  V  V50  1  0.62991849  0.73021817  0.37091350  1
  V  V51  1  0.49757720  0.49845375  -0.00383787  1
  V  V52  1  0.51652110  0.36463222  0.87769125  1
  V  V53  1  0.36244447  0.25394181  0.12497138  1
  V  V54  1  0.86957127  0.62580079  0.26079474  1
  V  V55  1  0.24922636  0.38087087  0.63476267  1
  V  V56  1  0.63676153  0.36041333  0.73694113  1
  V  V57  1  0.25422359  0.61973780  0.36044201  1
  V  V58  1  0.63258250  0.51516216  0.60321649  1
  V  V59  1  0.62355050  0.87707321  0.25715672  1
  V  V60  1  0.36723034  0.12562082  0.25126436  1
  V  V61  1  0.88654554  0.48920746  0.38452810  1
  V  V62  1  0.37524080  0.74776575  0.12794571  1
  V  V63  1  0.87213962  -0.00021095  0.37677869  1
  V  V64  1  0.25134686  0.74461293  0.50735389  1
  V  V65  1  0.00102705  0.61791250  0.12752494  1
  V  V66  1  0.62816408  0.62945065  -0.01232174  1
  V  V67  1  0.86667564  0.25361901  0.11949088  1
  V  V68  1  0.12228333  0.00666849  0.11682961  1
  V  V69  1  0.12486061  0.87116099  0.74289008  1
  V  V70  1  0.50028459  0.37195915  0.37698998  1
  V  V71  1  0.86410294  0.75959106  0.11865981  1
  V  V72  1  0.11319896  0.50990671  0.61829436  1
  Zn  Zn73  1  0.37347162  0.24883140  0.62076705  1
  Zn  Zn74  1  -0.01062017  -0.00514339  0.00305997  1
  Zn  Zn75  1  0.37909875  0.65447505  0.73454673  1
  Zn  Zn76  1  0.50240215  0.24675574  0.25438551  1
  Zn  Zn77  1  0.86893849  0.00069913  0.87020711  1
  Zn  Zn78  1  0.23584156  0.38862881  0.12197754  1
  Zn  Zn79  1  -0.02820923  0.51284333  -0.01054396  1
  Zn  Zn80  1  0.62690882  -0.00495732  0.64172901  1
  Zn  Zn81  1  0.62475609  0.50083535  0.12926077  1
  Zn  Zn82  1  0.18054957  0.19352412  0.19239589  1
  Zn  Zn83  1  0.18969807  0.19375987  0.69038801  1
  Zn  Zn84  1  0.19227435  0.55509058  0.18623789  1
  Zn  Zn85  1  0.19430735  0.68512224  0.69250038  1
  Zn  Zn86  1  0.68547213  0.18561594  0.19237951  1
  Zn  Zn87  1  0.67565364  0.16140179  0.68856421  1
  Zn  Zn88  1  0.68508427  0.68497421  0.18545869  1
  Zn  Zn89  1  0.73020896  0.66870921  0.66838662  1
  Zn  Zn90  1  0.30993914  0.31332570  0.31379738  1
  Zn  Zn91  1  0.31561334  0.30665640  0.81257929  1
  Zn  Zn92  1  0.30981025  0.80992497  0.30756451  1
  Zn  Zn93  1  0.31047371  0.81441001  0.82021430  1
  Zn  Zn94  1  0.80540151  0.30844603  0.32398564  1
  Zn  Zn95  1  0.82570173  0.39221373  0.83915442  1
  Zn  Zn96  1  0.81083222  0.81769694  0.31178925  1
  Zn  Zn97  1  0.82222884  0.78332967  0.81603063  1
  Zn  Zn98  1  0.18275018  0.43902744  0.44009181  1
  Zn  Zn99  1  0.19373723  0.43621249  0.93097139  1
  Zn  Zn100  1  0.19198374  0.93526754  0.42849332  1
  Zn  Zn101  1  0.18827351  0.94338413  0.93583037  1
  Zn  Zn102  1  0.69330040  0.43156040  0.43889576  1
  Zn  Zn103  1  0.68149912  0.44116710  0.94324425  1
  Zn  Zn104  1  0.68950592  0.93581350  0.43265642  1
  Zn  Zn105  1  0.68701757  0.94879471  0.94140291  1
  Zn  Zn106  1  0.30672138  0.06839950  0.06068847  1
  Zn  Zn107  1  0.31163197  0.05986948  0.55624713  1
  Zn  Zn108  1  0.31876647  0.56121502  0.05391870  1
  Zn  Zn109  1  0.30080070  0.56159009  0.55637036  1
  Zn  Zn110  1  0.81300378  0.05668596  0.05820740  1
  Zn  Zn111  1  0.80733284  0.05616607  0.56417302  1
  Zn  Zn112  1  0.81049282  0.56799863  0.07539537  1
  Zn  Zn113  1  0.81687456  0.55351397  0.57225143  1
  Zn  Zn114  1  0.43429158  0.43855828  0.18632595  1
  Zn  Zn115  1  0.47341113  0.57884895  0.62889895  1
  Zn  Zn116  1  0.43985148  0.93673006  0.19009413  1
  Zn  Zn117  1  0.43242954  0.84899459  0.69998419  1
  Zn  Zn118  1  0.93558501  0.43649086  0.19547694  1
  Zn  Zn119  1  0.94067103  0.45225157  0.69862669  1
  Zn  Zn120  1  0.94045965  0.93988315  0.19146973  1
  Zn  Zn121  1  0.91270133  0.88931073  0.71833201  1
  Zn  Zn122  1  0.05702684  0.06436711  0.30255152  1
  Zn  Zn123  1  0.06006620  0.05171912  0.81146813  1
  Zn  Zn124  1  0.05971012  0.56010682  0.31762792  1
  Zn  Zn125  1  0.07301834  0.55703520  0.80518794  1
  Zn  Zn126  1  0.55471334  0.06242219  0.30859381  1
  Zn  Zn127  1  0.54911988  0.03018320  0.79054580  1
  Zn  Zn128  1  0.55772222  0.55540019  0.31207081  1
  Zn  Zn129  1  0.55512035  0.55018094  0.80398122  1
  Zn  Zn130  1  0.42816569  0.18965920  0.43570743  1
  Zn  Zn131  1  0.42941847  0.18591409  0.93686697  1
  Zn  Zn132  1  0.43567380  0.68896355  0.43887960  1
  Zn  Zn133  1  0.44543972  0.69643499  0.93800659  1
  Zn  Zn134  1  0.90500202  0.20210044  0.43450248  1
  Zn  Zn135  1  0.94093527  0.21659340  0.94104919  1
  Zn  Zn136  1  0.93450406  0.69670101  0.43063184  1
  Zn  Zn137  1  0.81574648  0.58587182  0.89816358  1
  Zn  Zn138  1  0.05343206  0.32398640  0.07417988  1
  Zn  Zn139  1  0.06392369  0.31378092  0.56617688  1
  Zn  Zn140  1  0.06200855  0.80264803  0.06308584  1
  Zn  Zn141  1  0.08063684  0.84052248  0.54205667  1
  Zn  Zn142  1  0.55722440  0.31398355  0.07486641  1
  Zn  Zn143  1  0.56274340  0.30769187  0.56214281  1
  Zn  Zn144  1  0.56476803  0.81602845  0.06496833  1
  Zn  Zn145  1  0.57018390  0.81572447  0.54941725  1
  O  O146  1  0.11330552  0.11679549  0.13683621  1
  O  O147  1  0.10700947  0.12847373  0.61220179  1
  O  O148  1  0.11916275  0.62140016  0.11752783  1
  O  O149  1  0.13753555  0.60772226  0.63475232  1
  O  O150  1  0.60732433  0.11970970  0.13549960  1
  O  O151  1  0.60707369  0.11966616  0.59808056  1
  O  O152  1  0.61380564  0.62264761  0.11691382  1
  O  O153  1  0.63536169  0.61437819  0.62590102  1
  O  O154  1  0.37716362  0.38469607  0.38209313  1
  O  O155  1  0.38498005  0.36349708  0.88901746  1
  O  O156  1  0.36443838  0.88975913  0.37417592  1
  O  O157  1  0.38068483  0.88630120  0.88596127  1
  O  O158  1  0.87475391  0.38670029  0.38252441  1
  O  O159  1  0.91435468  0.33711863  0.87815034  1
  O  O160  1  0.88580308  0.88426730  0.37777291  1
  O  O161  1  0.89781678  0.85985116  0.86587521  1
  O  O162  1  0.26209957  0.01448647  0.38405191  1
  O  O163  1  0.25657916  0.01082835  0.86813807  1
  O  O164  1  0.25838344  0.51327509  0.38162022  1
  O  O165  1  0.25487714  0.51728162  0.87855117  1
  O  O166  1  0.76447138  -0.00655699  0.36156709  1
  O  O167  1  0.74528805  0.04368106  0.90193834  1
  O  O168  1  0.76003777  0.49710852  0.36687948  1
  O  O169  1  0.75275704  0.48325446  0.86839400  1
  O  O170  1  0.26581901  0.49760251  0.12732863  1
  O  O171  1  0.24441564  0.48170195  0.61928361  1
  O  O172  1  0.24017168  0.99153004  0.12034811  1
  O  O173  1  0.25372628  1.00159267  0.63788110  1
  O  O174  1  0.75389545  0.48605697  0.14141266  1
  O  O175  1  0.73876971  0.49438530  0.64387126  1
  O  O176  1  0.73179841  1.01497301  0.13361816  1
  O  O177  1  0.74796279  0.97988264  0.62355526  1
  O  O178  1  0.00431250  0.36356242  0.25070169  1
  O  O179  1  0.00993052  0.37407656  0.75732050  1
  O  O180  1  0.00836037  0.86805314  0.25799916  1
  O  O181  1  0.02346163  0.87758666  0.76681841  1
  O  O182  1  0.50880506  0.37756184  0.25706572  1
  O  O183  1  0.51891927  0.36061894  0.76755975  1
  O  O184  1  0.50749653  0.86158980  0.24721164  1
  O  O185  1  0.50696626  0.89966487  0.76578486  1
  O  O186  1  0.48146468  0.12760251  0.24497613  1
  O  O187  1  0.48737992  0.12458751  0.73872020  1
  O  O188  1  0.50466222  0.63308846  0.23716251  1
  O  O189  1  0.56372990  0.73555028  0.72974532  1
  O  O190  1  0.98697200  0.13645762  0.24208573  1
  O  O191  1  1.00827935  0.09689093  0.71477218  1
  O  O192  1  0.99259459  0.63254653  0.24716319  1
  O  O193  1  0.99806680  0.62324261  0.74710190  1
  O  O194  1  0.37913288  0.25922569  0.01336490  1
  O  O195  1  0.36440882  0.26221960  0.49966543  1
  O  O196  1  0.37168191  0.76373136  0.00930225  1
  O  O197  1  0.36272407  0.76632039  0.48522915  1
  O  O198  1  0.86602017  0.24841160  0.02031847  1
  O  O199  1  0.86738366  0.26774943  0.52161226  1
  O  O200  1  0.85470581  0.75138107  0.01578152  1
  O  O201  1  0.85403744  0.76142461  0.48070603  1
  O  O202  1  0.14039556  0.26078389  0.49815715  1
  O  O203  1  0.09655075  0.26397581  0.98032552  1
  O  O204  1  0.14328469  0.76195022  0.48058187  1
  O  O205  1  0.13475959  0.74075038  0.99489471  1
  O  O206  1  0.63577319  0.24061712  0.49670222  1
  O  O207  1  0.64087339  0.24143731  1.01380620  1
  O  O208  1  0.63372299  0.75100363  0.47732259  1
  O  O209  1  0.63353219  0.74011532  1.01050365  1
  O  O210  1  0.49123464  0.23801925  0.13196998  1
  O  O211  1  0.49606763  0.23821227  0.63149630  1
  O  O212  1  0.49438653  0.74545908  0.13168101  1
  O  O213  1  0.49542874  0.73455835  0.58551762  1
  O  O214  1  0.98079844  0.24923218  0.13624942  1
  O  O215  1  1.00386071  0.22598708  0.63064858  1
  O  O216  1  0.99084333  0.74002828  0.13243508  1
  O  O217  1  1.01180727  0.70302334  0.58014326  1
  O  O218  1  -0.01421855  0.24614622  0.36495296  1
  O  O219  1  0.04408854  0.26850577  0.91865874  1
  O  O220  1  0.01203416  0.76068239  0.37057429  1
  O  O221  1  0.02088656  0.75416686  0.87698954  1
  O  O222  1  0.48680120  0.26713030  0.37047956  1
  O  O223  1  0.49444081  0.25269048  0.86659999  1
  O  O224  1  0.51191959  0.73832512  0.36364858  1
  O  O225  1  0.50130075  0.77488699  0.87778203  1
  O  O226  1  0.25293039  0.13678231  0.48952652  1
  O  O227  1  0.24588186  0.12498253  0.98464605  1
  O  O228  1  0.25536898  0.64141838  0.48512106  1
  O  O229  1  0.24327277  0.63382505  0.99710851  1
  O  O230  1  0.73034228  0.11074997  0.49547035  1
  O  O231  1  0.74752855  0.09790775  0.96033578  1
  O  O232  1  0.76101376  0.63845523  0.50374800  1
  O  O233  1  0.73265780  0.62525746  0.99760459  1
  O  O234  1  0.26657365  0.37774827  -0.00114591  1
  O  O235  1  0.25819043  0.36536936  0.49973313  1
  O  O236  1  0.25706721  0.87082172  0.00754682  1
  O  O237  1  0.26044578  0.86984907  0.49720419  1
  O  O238  1  0.74319881  0.37956809  0.02217019  1
  O  O239  1  0.75152345  0.36136016  0.50988165  1
  O  O240  1  0.73772841  0.87003715  0.00815343  1
  O  O241  1  0.75528343  0.86859550  0.50077053  1
  O  O242  1  0.11831699  0.49033015  0.24881454  1
  O  O243  1  0.12936151  0.48262447  0.73607997  1
  O  O244  1  0.11713019  0.98486028  0.23684401  1
  O  O245  1  0.13888189  0.98535743  0.75263581  1
  O  O246  1  0.63348162  0.49139300  0.25013111  1
  O  O247  1  0.63281159  0.47294183  0.75605351  1
  O  O248  1  0.63001375  0.99569169  0.25056354  1
  O  O249  1  0.64175017  1.05512599  0.73824134  1
  O  O250  1  0.37503601  0.00605449  0.26051228  1
  O  O251  1  0.36065213  0.00913554  0.76016045  1
  O  O252  1  0.37122932  0.49349877  0.26530213  1
  O  O253  1  0.48439879  0.60808426  0.74219617  1
  O  O254  1  0.86551442  0.00685138  0.25128902  1
  O  O255  1  0.87882631  -0.01176726  0.76093585  1
  O  O256  1  0.87009071  0.50484827  0.26491731  1
  O  O257  1  0.84983481  0.48379414  0.75870564  1
  O  O258  1  0.12607203  0.37917603  0.36131349  1
  O  O259  1  0.11975711  0.38497824  0.86237012  1
  O  O260  1  0.13295933  0.86008672  0.35252961  1
  O  O261  1  0.12522878  0.86152798  0.87776563  1
  O  O262  1  0.61190286  0.38363618  0.37127342  1
  O  O263  1  0.61646129  0.35928422  0.88755324  1
  O  O264  1  0.62508577  0.86891521  0.36062568  1
  O  O265  1  0.60738318  0.89631331  0.88361828  1
  O  O266  1  0.37757980  0.13261559  0.13083367  1
  O  O267  1  0.37960514  0.12249290  0.62959315  1
  O  O268  1  0.38676942  0.63946528  0.11251791  1
  O  O269  1  0.36788928  0.61337773  0.62733396  1
  O  O270  1  0.87451573  0.13554146  0.13417046  1
  O  O271  1  0.89769379  0.11377674  0.61947590  1
  O  O272  1  0.88071414  0.63905855  0.14019399  1
  O  O273  1  0.84810235  0.62860682  0.65585214  1
  O  O274  1  0.26166493  0.24807445  0.12623565  1
  O  O275  1  0.25103245  0.25787778  0.61209209  1
  O  O276  1  0.26178153  0.76136232  0.11367058  1
  O  O277  1  0.24490458  0.74510308  0.60551115  1
  O  O278  1  0.75723522  0.26041905  0.13625685  1
  O  O279  1  0.74551031  0.21828542  0.60927016  1
  O  O280  1  0.75919786  0.74952070  0.12605712  1
  O  O281  1  0.73881929  0.76077121  0.59978082  1
  O  O282  1  0.25223735  0.23846234  0.38403838  1
  O  O283  1  0.24942330  0.23301337  0.86618665  1
  O  O284  1  0.24733923  0.73755973  0.37114333  1
  O  O285  1  0.24740920  0.74720411  0.89171746  1
  O  O286  1  0.77942145  0.23438124  0.40872595  1
  O  O287  1  0.75828040  0.20907328  0.85107419  1
  O  O288  1  0.73745129  0.74941614  0.37456005  1
  O  O289  1  0.74583562  0.76030088  0.89698357  1
  O  O290  1  -0.00895038  0.13542348  0.01802578  1
  O  O291  1  -0.00755572  0.14436402  0.51175273  1
  O  O292  1  0.01940947  0.62329757  0.00917347  1
  O  O293  1  -0.00558297  0.65217047  0.52760149  1
  O  O294  1  0.48981927  0.12744073  0.01725782  1
  O  O295  1  0.49571676  0.11839969  0.49975577  1
  O  O296  1  0.50657564  0.61950093  0.00678904  1
  O  O297  1  0.49735198  0.66703040  0.53896988  1
  O  O298  1  0.48562868  0.36725223  0.49494556  1
  O  O299  1  0.49712175  0.37493162  0.99555091  1
  O  O300  1  0.48912422  0.88672829  0.49498367  1
  O  O301  1  0.48876047  0.87661798  0.99782745  1
  O  O302  1  0.98469972  0.36975475  0.50950375  1
  O  O303  1  1.00914312  0.39916296  0.99579897  1
  O  O304  1  0.97337395  0.85128376  0.49505287  1
  O  O305  1  1.00261945  0.86808946  0.99010663  1
  O  O306  1  0.48427649  0.49255992  0.37615858  1
  O  O307  1  0.50660716  0.47642446  0.88565319  1
  O  O308  1  0.48027736  1.00635070  0.38350354  1
  O  O309  1  0.48140471  1.00176377  0.87666199  1
  O  O310  1  0.98524110  0.50362046  0.38219220  1
  O  O311  1  0.99924198  0.48820383  0.87077215  1
  O  O312  1  0.98498181  0.99054498  0.35908681  1
  O  O313  1  1.00539325  0.98070573  0.88187070  1
  O  O314  1  0.00285210  0.01076894  0.12413191  1
  O  O315  1  0.00946732  0.02180441  0.58695440  1
  O  O316  1  -0.01858210  0.51673065  0.12495772  1
  O  O317  1  0.01224519  0.50332210  0.62823849  1
  O  O318  1  0.50578165  0.01391200  0.13403928  1
  O  O319  1  0.49964880  0.00735521  0.60321174  1
  O  O320  1  0.49833003  0.50772410  0.11716902  1
  O  O321  1  0.53480230  0.48786988  0.61413696  1
  O  O322  1  0.23389784  0.36829127  0.24934586  1
  O  O323  1  0.25619221  0.37061635  0.73596267  1
  O  O324  1  0.23990231  0.86648355  0.23351029  1
  O  O325  1  0.24358959  0.88700994  0.75620374  1
  O  O326  1  0.74145317  0.37988869  0.25424899  1
  O  O327  1  0.73472568  0.35966624  0.76450972  1
  O  O328  1  0.74073970  0.88730791  0.24751781  1
  O  O329  1  0.76275161  0.84859036  0.72804398  1
  O  O330  1  0.25834506  0.13443721  0.26264469  1
  O  O331  1  0.25337203  0.11602487  0.75022053  1
  O  O332  1  0.25392863  0.62235607  0.26170478  1
  O  O333  1  0.26363673  0.63678445  0.77110747  1
  O  O334  1  0.75962089  0.11743458  0.25054397  1
  O  O335  1  0.75533729  0.15808758  0.79837801  1
  O  O336  1  0.75983486  0.61324331  0.24261176  1
  O  O337  1  0.72650556  0.60158551  0.76488511  1
  O  O338  1  0.36529536  0.11756407  0.36681455  1
  O  O339  1  0.36631794  0.12093940  0.86475793  1
  O  O340  1  0.36972004  0.61294067  0.37884341  1
  O  O341  1  0.36563998  0.63018000  0.89173456  1
  O  O342  1  0.88381495  0.10665084  0.36774989  1
  O  O343  1  0.92913506  0.14596070  0.84509442  1
  O  O344  1  0.87968778  0.61752003  0.36656487  1
  O  O345  1  0.85711502  0.66295722  0.82499537  1
  O  O346  1  0.12649538  0.36594151  0.14501631  1
  O  O347  1  0.13457176  0.37872657  0.63245255  1
  O  O348  1  0.13014685  0.87851591  0.12566512  1
  O  O349  1  0.11912958  0.85864335  0.64450201  1
  O  O350  1  0.63546382  0.37572068  0.13762456  1
  O  O351  1  0.63168057  0.36751081  0.63627965  1
  O  O352  1  0.61441250  0.89364395  0.13738770  1
  O  O353  1  0.63354130  0.87721150  0.62217817  1
  O  O354  1  0.10566934  0.25285865  0.25712047  1
  O  O355  1  0.12942014  0.27084401  0.74510692  1
  O  O356  1  0.10887339  0.75467823  0.25185996  1
  O  O357  1  0.14143337  0.75912111  0.76790579  1
  O  O358  1  0.62406719  0.26282040  0.25245783  1
  O  O359  1  0.61315089  0.24796774  0.74372629  1
  O  O360  1  0.62050603  0.75498957  0.25585558  1
  O  O361  1  0.63059410  0.74529073  0.75696632  1
  O  O362  1  0.37454537  0.24590553  0.23821204  1
  O  O363  1  0.38457962  0.23812058  0.74505474  1
  O  O364  1  0.38465634  0.75688982  0.23816133  1
  O  O365  1  0.37881054  0.76602285  0.74897716  1
  O  O366  1  0.87693130  0.24312334  0.24993736  1
  O  O367  1  0.91340457  0.18950620  0.78515167  1
  O  O368  1  0.88337374  0.74465827  0.25374206  1
  O  O369  1  0.91026128  0.76912676  0.72318027  1
  O  O370  1  0.36822857  0.48480597  0.49134770  1
  O  O371  1  0.38961569  0.48172267  1.00289437  1
  O  O372  1  0.37856855  0.98965962  0.48972982  1
  O  O373  1  0.36588574  0.99349419  0.99411006  1
  O  O374  1  0.86574124  0.49018126  0.49201543  1
  O  O375  1  0.86342379  0.53231457  0.98442681  1
  O  O376  1  0.86678486  0.98754683  0.48338954  1
  O  O377  1  0.87896589  1.01004818  0.98157344  1
  O  O378  1  0.11683005  -0.00466585  0.01407267  1
  O  O379  1  0.08446771  -0.06848377  0.46365292  1
  O  O380  1  0.13483536  0.51480545  -0.00386353  1
  O  O381  1  0.12704352  0.49680581  0.51726213  1
  O  O382  1  0.62056312  0.00374250  0.02048354  1
  O  O383  1  0.60766105  0.00267547  0.48583518  1
  O  O384  1  0.61440455  0.51014370  0.00697515  1
  O  O385  1  0.64901210  0.51028481  0.50449157  1
  O  O386  1  0.37721399  0.36126119  0.11845345  1
  O  O387  1  0.36280631  0.37493800  0.61062276  1
  O  O388  1  0.36909841  0.87373898  0.12074424  1
  O  O389  1  0.37780573  0.87708645  0.60619389  1
  O  O390  1  0.86200278  0.36464329  0.13581258  1
  O  O391  1  0.87540148  0.39287635  0.62110304  1
  O  O392  1  0.88235185  0.85748963  0.13571570  1
  O  O393  1  0.86482872  0.87710213  0.60646013  1
  O  O394  1  0.13984310  0.11256159  0.36697732  1
  O  O395  1  0.13329205  0.11865481  0.86604889  1
  O  O396  1  0.13762666  0.63233790  0.36803451  1
  O  O397  1  0.13637698  0.63450413  0.88252415  1
  O  O398  1  0.61206884  0.12620733  0.38400859  1
  O  O399  1  0.62205884  0.19639697  0.95773371  1
  O  O400  1  0.62787860  0.63114780  0.36610191  1
  O  O401  1  0.61056421  0.61925854  0.89065604  1
