# generated using pymatgen
data_V73Zn73O256
_symmetry_space_group_name_H-M   'P 1'
_cell_length_a   16.90532931
_cell_length_b   16.91905204
_cell_length_c   16.86900262
_cell_angle_alpha   90.04556761
_cell_angle_beta   90.16269798
_cell_angle_gamma   90.48470256
_symmetry_Int_Tables_number   1
_chemical_formula_structural   V73Zn73O256
_chemical_formula_sum   'V73 Zn73 O256'
_cell_volume   4824.71461751
_cell_formula_units_Z   1
loop_
 _symmetry_equiv_pos_site_id
 _symmetry_equiv_pos_as_xyz
  1  'x, y, z'
loop_
 _atom_site_type_symbol
 _atom_site_label
 _atom_site_symmetry_multiplicity
 _atom_site_fract_x
 _atom_site_fract_y
 _atom_site_fract_z
 _atom_site_occupancy
  V  V0  1  0.49791684  0.13270818  0.63178842  1
  V  V1  1  0.00095684  0.50361704  -0.00150142  1
  V  V2  1  0.77292175  0.86083199  0.62225176  1
  V  V3  1  0.37801486  0.37882615  -0.00094244  1
  V  V4  1  0.13414680  0.88730693  0.23985543  1
  V  V5  1  0.87535126  -0.00207872  0.38385465  1
  V  V6  1  0.37772233  0.13536697  0.75833792  1
  V  V7  1  0.36182483  -0.00079328  0.36029092  1
  V  V8  1  0.62853133  0.26318171  0.84610400  1
  V  V9  1  0.00235247  0.23910211  0.73350194  1
  V  V10  1  0.86445726  0.51271426  0.36527869  1
  V  V11  1  0.24438407  0.62375331  0.36767307  1
  V  V12  1  0.02329254  0.13258658  0.11737227  1
  V  V13  1  0.51720107  0.50423584  -0.00022933  1
  V  V14  1  0.00626859  0.00641966  0.51170493  1
  V  V15  1  -0.00136967  0.36863184  0.87774839  1
  V  V16  1  0.37585905  0.63542004  0.74312806  1
  V  V17  1  0.32584914  0.18151794  0.31224110  1
  V  V18  1  0.25534159  0.37913958  0.14193324  1
  V  V19  1  0.64484029  0.63002562  0.49933522  1
  V  V20  1  0.12387425  0.87859220  0.78151864  1
  V  V21  1  0.48970665  0.51606479  0.50239096  1
  V  V22  1  0.13469718  0.75095010  0.38185416  1
  V  V23  1  0.14505814  0.38059969  0.74856697  1
  V  V24  1  0.75110859  0.12570054  0.37647407  1
  V  V25  1  0.23862329  0.75014578  -0.00254974  1
  V  V26  1  0.74941650  0.73460942  -0.01075359  1
  V  V27  1  0.87279044  0.34916451  0.00420678  1
  V  V28  1  0.50348938  0.24202525  0.24980104  1
  V  V29  1  0.13411391  0.51928589  0.61851216  1
  V  V30  1  0.89008428  0.72360206  0.62270781  1
  V  V31  1  0.75054732  0.00095869  0.24995946  1
  V  V32  1  0.49362641  -0.00042638  0.49870131  1
  V  V33  1  0.87946622  0.13913152  0.24048072  1
  V  V34  1  0.48567810  0.37698265  0.37881639  1
  V  V35  1  0.62265468  -0.00935550  0.63570318  1
  V  V36  1  0.36672185  0.86312559  0.50602143  1
  V  V37  1  0.36711672  0.50620161  0.87300633  1
  V  V38  1  0.76512999  0.87910677  0.11565385  1
  V  V39  1  0.86646882  0.12076052  0.74444665  1
  V  V40  1  0.86956225  -0.00587879  0.88283149  1
  V  V41  1  0.23141083  0.62370944  0.87966381  1
  V  V42  1  0.14393960  0.12446182  0.48905944  1
  V  V43  1  0.01504604  0.62034463  0.13345817  1
  V  V44  1  0.62426632  0.25501377  0.37610500  1
  V  V45  1  0.62123575  0.00043061  0.10797429  1
  V  V46  1  0.00536310  -0.00687795  0.00285079  1
  V  V47  1  0.61741018  0.12470930  0.49842556  1
  V  V48  1  -0.00525727  0.87243265  0.37729742  1
  V  V49  1  0.60778766  0.75015205  0.84840460  1
  V  V50  1  0.40047066  -0.01093734  0.87021361  1
  V  V51  1  -0.01347274  0.37380083  0.39958699  1
  V  V52  1  0.37290230  0.73830321  0.12194989  1
  V  V53  1  0.87503411  0.72435388  0.12237122  1
  V  V54  1  0.00162357  0.74539804  0.77024202  1
  V  V55  1  0.23204795  0.86371879  0.62650486  1
  V  V56  1  0.49746902  0.37647185  0.85486680  1
  V  V57  1  0.50134770  0.87144684  0.37317157  1
  V  V58  1  0.24704915  0.11227709  0.87394910  1
  V  V59  1  0.82293215  0.55906615  0.82039217  1
  V  V60  1  0.62509559  0.49812343  0.63359876  1
  V  V61  1  0.25256620  0.24802310  -0.00567936  1
  V  V62  1  0.63084519  0.39236776  0.24850894  1
  V  V63  1  0.37804664  0.24131907  0.12537891  1
  V  V64  1  0.37159303  0.50934247  0.35460834  1
  V  V65  1  0.10051667  0.37572292  0.25057706  1
  V  V66  1  0.75654230  0.37077678  0.13142262  1
  V  V67  1  0.13138797  0.24571164  0.87691624  1
  V  V68  1  0.62467985  0.87202104  0.24943175  1
  V  V69  1  0.76024119  0.25562273  0.50604197  1
  V  V70  1  0.62948043  0.15687777  -0.00942668  1
  V  V71  1  0.39404465  0.87608382  0.00071219  1
  V  V72  1  0.52211573  0.62117818  0.12666627  1
  Zn  Zn73  1  -0.00286020  0.51414091  0.51279969  1
  Zn  Zn74  1  -0.00046737  0.74879318  0.25247589  1
  Zn  Zn75  1  0.29309415  0.34000480  0.54128177  1
  Zn  Zn76  1  0.49541376  0.73847554  0.25001210  1
  Zn  Zn77  1  0.14055694  0.50742579  0.12787316  1
  Zn  Zn78  1  0.49718804  0.11426667  0.11885817  1
  Zn  Zn79  1  0.72052291  0.36828152  0.62226011  1
  Zn  Zn80  1  0.63405155  0.74680030  0.37783902  1
  Zn  Zn81  1  0.74440076  -0.00733365  0.75859912  1
  Zn  Zn82  1  0.18245526  0.20145252  0.19680143  1
  Zn  Zn83  1  0.17104937  0.20240667  0.66812719  1
  Zn  Zn84  1  0.18928131  0.70091819  0.19557472  1
  Zn  Zn85  1  0.19017871  0.69674930  0.70347569  1
  Zn  Zn86  1  0.68935677  0.18947606  0.18352302  1
  Zn  Zn87  1  0.68722465  0.18051046  0.68455661  1
  Zn  Zn88  1  0.69220904  0.69189824  0.18644701  1
  Zn  Zn89  1  0.69830730  0.67502921  0.68868938  1
  Zn  Zn90  1  0.16485244  0.27763564  0.39111240  1
  Zn  Zn91  1  0.32192991  0.31501812  0.70423813  1
  Zn  Zn92  1  0.31377657  0.81528898  0.30538950  1
  Zn  Zn93  1  0.30636208  0.81353331  0.81526785  1
  Zn  Zn94  1  0.81512976  0.31988946  0.31747226  1
  Zn  Zn95  1  0.82407278  0.30711648  0.80514795  1
  Zn  Zn96  1  0.82227840  0.81485530  0.29804877  1
  Zn  Zn97  1  0.81492991  0.81223826  0.80409863  1
  Zn  Zn98  1  0.17843743  0.45608023  0.43135317  1
  Zn  Zn99  1  0.18387193  0.43502123  0.94319426  1
  Zn  Zn100  1  0.18464769  0.93585073  0.44016236  1
  Zn  Zn101  1  0.19897672  0.94106733  0.97421907  1
  Zn  Zn102  1  0.68507464  0.44350894  0.44381706  1
  Zn  Zn103  1  0.69249476  0.42405277  0.92448788  1
  Zn  Zn104  1  0.68852876  0.93473884  0.44451713  1
  Zn  Zn105  1  0.69023889  0.92557473  0.92889439  1
  Zn  Zn106  1  0.31328864  0.05695860  0.05747195  1
  Zn  Zn107  1  0.16117842  0.02166807  0.65263876  1
  Zn  Zn108  1  0.31520015  0.56464987  0.05858993  1
  Zn  Zn109  1  0.30174387  0.56788936  0.55597030  1
  Zn  Zn110  1  0.80749822  0.07281031  0.05366899  1
  Zn  Zn111  1  0.81118565  0.06185835  0.56667448  1
  Zn  Zn112  1  0.79442450  0.53046380  0.00979528  1
  Zn  Zn113  1  0.81256453  0.55202967  0.56116105  1
  Zn  Zn114  1  0.44673433  0.43528106  0.18344631  1
  Zn  Zn115  1  0.42648993  0.46336705  0.68070633  1
  Zn  Zn116  1  0.43580611  0.93135800  0.18340140  1
  Zn  Zn117  1  0.37457951  0.98660671  0.65290417  1
  Zn  Zn118  1  0.92649633  0.44351366  0.18236581  1
  Zn  Zn119  1  0.94938705  0.44467771  0.69228618  1
  Zn  Zn120  1  0.95006981  0.94917912  0.19053643  1
  Zn  Zn121  1  0.94365343  0.93307294  0.69880944  1
  Zn  Zn122  1  0.06251348  0.06380358  0.30901596  1
  Zn  Zn123  1  0.05713257  0.05581524  0.81710678  1
  Zn  Zn124  1  0.05856088  0.55498682  0.31671425  1
  Zn  Zn125  1  0.05517797  0.55419519  0.80563487  1
  Zn  Zn126  1  0.56082436  0.05911574  0.31056617  1
  Zn  Zn127  1  0.56730040  0.07000615  0.81703738  1
  Zn  Zn128  1  0.56515469  0.56638167  0.31701264  1
  Zn  Zn129  1  0.56557928  0.58042280  0.81365266  1
  Zn  Zn130  1  0.32271501  0.17626225  0.55446878  1
  Zn  Zn131  1  0.44682795  0.19088323  0.93695629  1
  Zn  Zn132  1  0.43277788  0.68749916  0.43270914  1
  Zn  Zn133  1  0.44685833  0.68883865  0.93747000  1
  Zn  Zn134  1  0.94615458  0.18973666  0.44084286  1
  Zn  Zn135  1  0.94083550  0.17360294  0.93248020  1
  Zn  Zn136  1  0.92694286  0.68253239  0.43970931  1
  Zn  Zn137  1  0.93494130  0.69370198  0.94288944  1
  Zn  Zn138  1  0.06732397  0.30843138  0.06540154  1
  Zn  Zn139  1  0.10089034  0.32777047  0.54529244  1
  Zn  Zn140  1  0.05389368  0.81443234  0.05769669  1
  Zn  Zn141  1  0.05111317  0.80777050  0.56071711  1
  Zn  Zn142  1  0.56360487  0.32023317  0.06573834  1
  Zn  Zn143  1  0.45812340  0.31870565  0.56097676  1
  Zn  Zn144  1  0.56879989  0.80762356  0.05956193  1
  Zn  Zn145  1  0.57281512  0.81512444  0.55422278  1
  O  O146  1  0.12305392  0.12886182  0.13185646  1
  O  O147  1  0.13024104  0.11775514  0.60694258  1
  O  O148  1  0.11804275  0.62674184  0.12747693  1
  O  O149  1  0.13912295  0.61669014  0.63921464  1
  O  O150  1  0.62827925  0.11192725  0.11613295  1
  O  O151  1  0.61321168  0.11566307  0.61787895  1
  O  O152  1  0.62180019  0.62625303  0.12501429  1
  O  O153  1  0.63054850  0.61729327  0.60787877  1
  O  O154  1  0.38712751  0.38652761  0.37224411  1
  O  O155  1  0.38731791  0.38927065  0.88509040  1
  O  O156  1  0.38317121  0.88010258  0.37986831  1
  O  O157  1  0.37778747  0.88482717  0.87693514  1
  O  O158  1  0.88189432  0.38367465  0.38251242  1
  O  O159  1  0.89366881  0.35988238  0.88438044  1
  O  O160  1  0.88360205  0.88390927  0.36868921  1
  O  O161  1  0.87401573  0.89496634  0.86786785  1
  O  O162  1  0.26437355  -0.01139829  0.37482755  1
  O  O163  1  0.25741674  0.01375377  0.88734540  1
  O  O164  1  0.26052408  0.51066750  0.36816178  1
  O  O165  1  0.26086026  0.50950548  0.89335928  1
  O  O166  1  0.75332015  0.00573635  0.37210073  1
  O  O167  1  0.75938203  0.00012664  0.87470595  1
  O  O168  1  0.76464588  0.49761341  0.38502070  1
  O  O169  1  0.76713671  0.50189518  0.89301957  1
  O  O170  1  0.25483047  0.48234107  0.11442364  1
  O  O171  1  0.23357658  0.49039744  0.61123718  1
  O  O172  1  0.23780948  0.97928726  0.07774222  1
  O  O173  1  0.26094197  0.97111651  0.63244206  1
  O  O174  1  0.74712454  0.46758601  0.09821368  1
  O  O175  1  0.73031108  0.49133489  0.61389446  1
  O  O176  1  0.74094075  0.99337245  0.13013202  1
  O  O177  1  0.72924670  0.99778339  0.62196460  1
  O  O178  1  0.00291805  0.36799820  0.23227300  1
  O  O179  1  0.00527568  0.35949793  0.76784784  1
  O  O180  1  0.00594226  0.88165712  0.26583944  1
  O  O181  1  0.01748827  0.86856758  0.75611154  1
  O  O182  1  0.51382817  0.37126995  0.25858673  1
  O  O183  1  0.48580620  0.38751702  0.75838698  1
  O  O184  1  0.51194942  0.88016483  0.25833932  1
  O  O185  1  0.48913323  0.79764661  0.70265824  1
  O  O186  1  0.50999020  0.13789871  0.24298823  1
  O  O187  1  0.49423291  0.12100095  0.73874777  1
  O  O188  1  0.50738201  0.62109351  0.23231635  1
  O  O189  1  0.47526351  0.61832627  0.75261739  1
  O  O190  1  0.98440291  0.11843262  0.23677698  1
  O  O191  1  1.00767541  0.13646908  0.74896025  1
  O  O192  1  1.00508854  0.62482571  0.23532882  1
  O  O193  1  1.01041435  0.64476631  0.76071749  1
  O  O194  1  0.37522673  0.26007850  0.00515733  1
  O  O195  1  0.37454234  0.26370065  0.50390186  1
  O  O196  1  0.37864096  0.75476717  0.00742846  1
  O  O197  1  0.38090513  0.76500546  0.49509265  1
  O  O198  1  0.88229394  0.25058724  -0.00162355  1
  O  O199  1  0.85790272  0.23951684  0.49791624  1
  O  O200  1  0.86704435  0.75138428  0.01797276  1
  O  O201  1  0.88671638  0.74671353  0.52210767  1
  O  O202  1  0.11888466  0.22683419  0.49118021  1
  O  O203  1  0.14267406  0.25613826  0.99111914  1
  O  O204  1  0.11550085  0.75344129  0.47985593  1
  O  O205  1  0.14043169  0.75873377  1.00764098  1
  O  O206  1  0.62974746  0.23652060  0.48525254  1
  O  O207  1  0.62852786  0.25885699  0.99301683  1
  O  O208  1  0.62515473  0.73664968  0.49839344  1
  O  O209  1  0.64917812  0.75324022  1.00382960  1
  O  O210  1  0.49195712  0.25759256  0.13612931  1
  O  O211  1  0.50307709  0.23038940  0.61973018  1
  O  O212  1  0.49864049  0.73295674  0.11955063  1
  O  O213  1  0.49722482  0.75678955  0.64282770  1
  O  O214  1  1.00419000  0.23227182  0.12336570  1
  O  O215  1  1.01177500  0.25355169  0.63795409  1
  O  O216  1  0.99071959  0.72740741  0.11038365  1
  O  O217  1  0.99456160  0.74711588  0.63622263  1
  O  O218  1  -0.00619169  0.27276284  0.38014336  1
  O  O219  1  0.01731679  0.25267567  0.87847768  1
  O  O220  1  -0.00475855  0.76619568  0.37504376  1
  O  O221  1  -0.00700011  0.75848009  0.87084847  1
  O  O222  1  0.50758613  0.26615585  0.36514056  1
  O  O223  1  0.50434026  0.27164271  0.87266479  1
  O  O224  1  0.49883305  0.76261495  0.36768217  1
  O  O225  1  0.50588568  0.75188300  0.86560752  1
  O  O226  1  0.24436863  0.11734681  0.49430761  1
  O  O227  1  0.26714317  0.13872809  0.98341908  1
  O  O228  1  0.26491963  0.63154495  0.46965392  1
  O  O229  1  0.25269849  0.63560540  0.99188288  1
  O  O230  1  0.74000837  0.12767793  0.49162397  1
  O  O231  1  0.72559177  0.12758761  0.99817200  1
  O  O232  1  0.74332891  0.62552965  0.49669263  1
  O  O233  1  0.75648204  0.63659392  1.00937592  1
  O  O234  1  0.26413692  0.36513188  -0.00181347  1
  O  O235  1  0.20119727  0.35771381  0.48099507  1
  O  O236  1  0.27158753  0.85144378  -0.01167441  1
  O  O237  1  0.26047642  0.87317002  0.50730887  1
  O  O238  1  0.77174375  0.36414777  -0.00712551  1
  O  O239  1  0.74305242  0.35692583  0.49898113  1
  O  O240  1  0.75461278  0.87258072  0.01529369  1
  O  O241  1  0.73350008  0.87162614  0.52596298  1
  O  O242  1  0.12054892  0.48208364  0.24222840  1
  O  O243  1  0.12600384  0.48433356  0.74605134  1
  O  O244  1  0.12482164  0.98749017  0.25385361  1
  O  O245  1  0.11948348  0.98461901  0.75243369  1
  O  O246  1  0.62861357  0.49020629  0.25834842  1
  O  O247  1  0.61439053  0.51600588  0.73238741  1
  O  O248  1  0.63744497  0.99400061  0.24764384  1
  O  O249  1  0.62493387  1.01025566  0.73859850  1
  O  O250  1  0.37660128  -0.01167779  0.26071853  1
  O  O251  1  0.38195432  0.00734959  0.76781395  1
  O  O252  1  0.38176833  0.49569815  0.25669314  1
  O  O253  1  0.36619654  0.50418581  0.77047177  1
  O  O254  1  0.86150296  0.00885255  0.25966562  1
  O  O255  1  0.87932126  0.00915477  0.75967105  1
  O  O256  1  0.86936921  0.49170694  0.26342340  1
  O  O257  1  0.89107572  0.50199794  0.77018378  1
  O  O258  1  0.09952766  0.38777064  0.36196120  1
  O  O259  1  0.12176480  0.36466747  0.86938079  1
  O  O260  1  0.11675269  0.86683062  0.36885753  1
  O  O261  1  0.13817814  0.88317250  0.87925202  1
  O  O262  1  0.62671187  0.36852932  0.36509819  1
  O  O263  1  0.60842460  0.37413862  0.86402843  1
  O  O264  1  0.62194027  0.87126241  0.36846475  1
  O  O265  1  0.63714034  0.84829328  0.87074881  1
  O  O266  1  0.37919690  0.13704997  0.11246418  1
  O  O267  1  0.38534337  0.11292388  0.63905348  1
  O  O268  1  0.38466218  0.63560335  0.11989207  1
  O  O269  1  0.35754143  0.61217737  0.64568375  1
  O  O270  1  0.85677621  0.12759302  0.14232118  1
  O  O271  1  0.87808891  0.11428379  0.64237149  1
  O  O272  1  0.87706945  0.62618848  0.12718058  1
  O  O273  1  0.87918358  0.62442711  0.62662336  1
  O  O274  1  0.26208301  0.25960442  0.11694420  1
  O  O275  1  0.26342771  0.25020176  0.62664562  1
  O  O276  1  0.26516970  0.74012125  0.11174935  1
  O  O277  1  0.25104678  0.76444324  0.62977746  1
  O  O278  1  0.73441468  0.27008441  0.11822132  1
  O  O279  1  0.73906862  0.24786381  0.60869996  1
  O  O280  1  0.76361975  0.76204301  0.12438667  1
  O  O281  1  0.77595930  0.75453128  0.63492290  1
  O  O282  1  0.27432089  0.24135962  0.37071290  1
  O  O283  1  0.24345014  0.24055628  0.88029841  1
  O  O284  1  0.23883601  0.74957795  0.37347224  1
  O  O285  1  0.24895992  0.73465274  0.88735598  1
  O  O286  1  0.74345651  0.24211897  0.38190713  1
  O  O287  1  0.72830770  0.27804152  0.85618872  1
  O  O288  1  0.75161836  0.72771326  0.33767621  1
  O  O289  1  0.76571946  0.75118720  0.89013880  1
  O  O290  1  0.00500494  0.12154243  0.01229295  1
  O  O291  1  0.00071347  0.10843866  0.49722355  1
  O  O292  1  -0.00227512  0.60646163  0.00257113  1
  O  O293  1  0.01264798  0.62066893  0.47458005  1
  O  O294  1  0.52203135  0.13568334  0.00559386  1
  O  O295  1  0.50710064  0.11588319  0.50836421  1
  O  O296  1  0.50380828  0.61051091  0.00706362  1
  O  O297  1  0.49770483  0.61748011  0.49530977  1
  O  O298  1  0.50724839  0.38901052  0.48087871  1
  O  O299  1  0.49206452  0.38745615  1.00309680  1
  O  O300  1  0.49916033  0.88075897  0.48916517  1
  O  O301  1  0.49335026  0.86647861  0.99573434  1
  O  O302  1  1.00530183  0.38039164  0.50002996  1
  O  O303  1  0.99681160  0.36655049  0.99286802  1
  O  O304  1  1.00517806  0.88910218  0.48297678  1
  O  O305  1  0.98823963  0.89337613  1.01319781  1
  O  O306  1  0.49059879  0.49415271  0.37599633  1
  O  O307  1  0.49338558  0.49506964  0.88546979  1
  O  O308  1  0.49818542  0.99009814  0.37934704  1
  O  O309  1  0.49947892  0.99870415  0.87608931  1
  O  O310  1  0.98735748  0.48666653  0.37338676  1
  O  O311  1  1.01238168  0.47796302  0.88782170  1
  O  O312  1  0.98951654  0.99410396  0.37942174  1
  O  O313  1  0.98612211  1.00827738  0.89226436  1
  O  O314  1  -0.00964495  0.02020239  0.11332913  1
  O  O315  1  -0.00235674  -0.01001974  0.60930263  1
  O  O316  1  -0.00150936  0.51267087  0.11903363  1
  O  O317  1  0.02450105  0.49364091  0.62706319  1
  O  O318  1  0.51836581  -0.00258916  0.13066620  1
  O  O319  1  0.50454526  0.00857087  0.61443191  1
  O  O320  1  0.50131951  0.50978993  0.11250757  1
  O  O321  1  0.50339836  0.50474023  0.60624413  1
  O  O322  1  0.26381545  0.37888532  0.23755524  1
  O  O323  1  0.24318390  0.37224029  0.76512353  1
  O  O324  1  0.23389920  0.86875020  0.24709590  1
  O  O325  1  0.22965781  0.86664599  0.74383849  1
  O  O326  1  0.74220988  0.37344008  0.24214446  1
  O  O327  1  0.80092563  0.37412213  0.71025538  1
  O  O328  1  0.74380804  0.88385675  0.24234570  1
  O  O329  1  0.75401463  0.88035971  0.72714702  1
  O  O330  1  0.26162898  0.13634178  0.25041009  1
  O  O331  1  0.26967210  0.12325113  0.76581808  1
  O  O332  1  0.25680105  0.63954461  0.26507473  1
  O  O333  1  0.25616507  0.62636540  0.77632848  1
  O  O334  1  0.75043281  0.11967376  0.26065590  1
  O  O335  1  0.76175271  0.12108857  0.74755508  1
  O  O336  1  0.75163334  0.66545810  0.28550616  1
  O  O337  1  0.76391134  0.61013019  0.75560588  1
  O  O338  1  0.37679647  0.10697855  0.36801914  1
  O  O339  1  0.38124584  0.11606286  0.87033763  1
  O  O340  1  0.37616872  0.61338930  0.36256460  1
  O  O341  1  0.37577854  0.61161219  0.87839738  1
  O  O342  1  0.86539512  0.11811917  0.36710097  1
  O  O343  1  0.87846489  0.11546893  0.85803445  1
  O  O344  1  0.88147085  0.61483584  0.36294604  1
  O  O345  1  0.87761271  0.61989042  0.87970496  1
  O  O346  1  0.14277909  0.36481915  0.13854451  1
  O  O347  1  0.13182120  0.36476680  0.64895896  1
  O  O348  1  0.10917321  0.86717914  0.14336116  1
  O  O349  1  0.13236120  0.87440187  0.61419662  1
  O  O350  1  0.62626171  0.37667867  0.14504746  1
  O  O351  1  0.60880436  0.39636405  0.62635875  1
  O  O352  1  0.63355856  0.88496585  0.13150604  1
  O  O353  1  0.60940140  0.89119322  0.63018569  1
  O  O354  1  0.13888627  0.27624390  0.27037476  1
  O  O355  1  0.11970528  0.25637370  0.75972540  1
  O  O356  1  0.11495411  0.75997834  0.26347823  1
  O  O357  1  0.11477376  0.76563749  0.75873925  1
  O  O358  1  0.62172044  0.25262713  0.26138137  1
  O  O359  1  0.61808919  0.24816695  0.74824410  1
  O  O360  1  0.61982430  0.76522395  0.24601145  1
  O  O361  1  0.62799308  0.74244596  0.74730782  1
  O  O362  1  0.38618598  0.24424624  0.24390057  1
  O  O363  1  0.38361851  0.23372458  0.75970240  1
  O  O364  1  0.38198988  0.76388193  0.22577288  1
  O  O365  1  0.36491307  0.73529674  0.75672328  1
  O  O366  1  0.86833220  0.23626242  0.25845710  1
  O  O367  1  0.89340021  0.23298763  0.75257445  1
  O  O368  1  0.88849154  0.76006831  0.22309362  1
  O  O369  1  0.89407381  0.75790791  0.73960465  1
  O  O370  1  0.38622708  0.50379109  0.48705720  1
  O  O371  1  0.38397938  0.49326325  0.99440426  1
  O  O372  1  0.38814911  0.98737252  0.48551795  1
  O  O373  1  0.38300256  0.98497576  0.98720750  1
  O  O374  1  0.88615385  0.51079473  0.48683665  1
  O  O375  1  0.89833973  0.47371732  1.00418756  1
  O  O376  1  0.87996887  1.00587119  0.48871239  1
  O  O377  1  0.87542781  1.01080695  0.98868189  1
  O  O378  1  0.10457123  0.00127340  -0.00659974  1
  O  O379  1  0.11437951  0.00629630  0.49899024  1
  O  O380  1  0.10672365  0.48161075  0.01539666  1
  O  O381  1  0.11926197  0.51336910  0.51092589  1
  O  O382  1  0.62795472  -0.00921577  0.00923226  1
  O  O383  1  0.61524578  0.00813467  0.50386081  1
  O  O384  1  0.61393924  0.48791240  -0.00858978  1
  O  O385  1  0.61123033  0.51422003  0.49922712  1
  O  O386  1  0.37123148  0.36694845  0.11876981  1
  O  O387  1  0.37690474  0.37742256  0.62350533  1
  O  O388  1  0.38251264  0.86562923  0.10654063  1
  O  O389  1  0.38186608  0.87837948  0.60630138  1
  O  O390  1  0.86626282  0.36445640  0.11739851  1
  O  O391  1  0.86326590  0.37205433  0.65570725  1
  O  O392  1  0.86261195  0.89076153  0.13239389  1
  O  O393  1  0.87059099  0.88436038  0.61749072  1
  O  O394  1  0.12561815  0.11648363  0.38635880  1
  O  O395  1  0.14187707  0.12868741  0.86680096  1
  O  O396  1  0.13512244  0.63479972  0.36551207  1
  O  O397  1  0.13389594  0.60991182  0.87831611  1
  O  O398  1  0.63125134  0.12873672  0.37902612  1
  O  O399  1  0.61698858  0.15398021  0.87989759  1
  O  O400  1  0.61978507  0.63038980  0.39025235  1
  O  O401  1  0.62679260  0.64980056  0.87849703  1
