# generated using pymatgen
data_V73Zn73O256
_symmetry_space_group_name_H-M   'P 1'
_cell_length_a   16.89916177
_cell_length_b   16.90538383
_cell_length_c   16.90307704
_cell_angle_alpha   90.39421213
_cell_angle_beta   89.83326227
_cell_angle_gamma   90.27108306
_symmetry_Int_Tables_number   1
_chemical_formula_structural   V73Zn73O256
_chemical_formula_sum   'V73 Zn73 O256'
_cell_volume   4828.79792377
_cell_formula_units_Z   1
loop_
 _symmetry_equiv_pos_site_id
 _symmetry_equiv_pos_as_xyz
  1  'x, y, z'
loop_
 _atom_site_type_symbol
 _atom_site_label
 _atom_site_symmetry_multiplicity
 _atom_site_fract_x
 _atom_site_fract_y
 _atom_site_fract_z
 _atom_site_occupancy
  V  V0  1  0.11798301  0.11261047  0.00229643  1
  V  V1  1  0.11958337  0.25234740  0.86152603  1
  V  V2  1  0.75119866  0.85433661  0.63219003  1
  V  V3  1  0.62481555  0.48395683  0.14077730  1
  V  V4  1  0.63343681  0.75447998  0.86151688  1
  V  V5  1  0.62369340  0.87487228  0.24705879  1
  V  V6  1  0.74744437  0.00180265  0.25941020  1
  V  V7  1  0.75747568  0.60951964  0.37530846  1
  V  V8  1  0.12154224  0.74580759  0.85442538  1
  V  V9  1  0.00858917  0.25369315  0.25510779  1
  V  V10  1  0.88243793  0.00293225  0.86756538  1
  V  V11  1  0.36960343  0.12542397  0.73956967  1
  V  V12  1  0.35687881  0.50067386  0.39431118  1
  V  V13  1  0.14994443  0.37133975  0.25221963  1
  V  V14  1  0.25608997  0.53178398  0.24186006  1
  V  V15  1  0.89181500  0.36412886  0.49762145  1
  V  V16  1  0.87274025  0.86827806  0.00391661  1
  V  V17  1  0.24764829  0.11847222  0.86922437  1
  V  V18  1  0.86716981  0.49829187  0.87154690  1
  V  V19  1  0.88070334  0.63632284  0.73781259  1
  V  V20  1  0.24463023  0.25336980  0.00086931  1
  V  V21  1  0.59852000  0.24918378  0.37274655  1
  V  V22  1  0.62631495  0.60839840  0.50715691  1
  V  V23  1  0.50134548  0.87445295  0.86159613  1
  V  V24  1  0.87211913  0.85750754  0.50140599  1
  V  V25  1  0.37460536  0.75105804  0.61110156  1
  V  V26  1  0.13432651  0.10794920  0.49888986  1
  V  V27  1  0.62789176  -0.00296904  0.12257662  1
  V  V28  1  0.37444993  0.25199106  0.12856700  1
  V  V29  1  0.67916136  0.68317445  0.04874174  1
  V  V30  1  0.87826044  0.36460823  0.00512662  1
  V  V31  1  0.62462676  0.13115578  -0.00294812  1
  V  V32  1  0.49207036  0.72744735  0.74747791  1
  V  V33  1  -0.00279300  0.11030827  0.61858616  1
  V  V34  1  0.51202225  0.12222302  0.62257755  1
  V  V35  1  0.49646223  -0.00275041  -0.00478785  1
  V  V36  1  -0.01501255  0.63024827  0.13591758  1
  V  V37  1  0.50654591  0.50018728  -0.00373731  1
  V  V38  1  0.12403407  0.64201779  0.00732421  1
  V  V39  1  0.13970797  0.75385515  0.36694618  1
  V  V40  1  0.87080762  0.13108695  0.25340555  1
  V  V41  1  0.49611073  0.12414910  0.13142584  1
  V  V42  1  -0.01030431  0.11657057  0.11915611  1
  V  V43  1  0.00075151  0.49915927  0.00714233  1
  V  V44  1  0.63920220  -0.00664415  0.63185586  1
  V  V45  1  0.74765567  0.11765379  0.86089372  1
  V  V46  1  0.35610975  0.10939945  0.24725126  1
  V  V47  1  0.74615152  0.62230961  0.87298173  1
  V  V48  1  0.88557105  0.49815176  0.36702250  1
  V  V49  1  0.63551292  0.75330800  0.38852024  1
  V  V50  1  0.50003701  0.25000464  0.75001229  1
  V  V51  1  0.24606538  0.27240329  0.48243502  1
  V  V52  1  0.49680676  0.87494219  0.38586142  1
  V  V53  1  0.12341051  0.90475278  0.74405398  1
  V  V54  1  0.37537503  0.37236736  -0.00416117  1
  V  V55  1  0.49453158  0.62699633  0.12698680  1
  V  V56  1  0.75996915  0.37442752  0.61538163  1
  V  V57  1  0.64104454  0.37041097  0.75673397  1
  V  V58  1  0.00113903  0.52333170  0.50891063  1
  V  V59  1  0.13143413  0.89606258  0.23676754  1
  V  V60  1  0.25412415  0.37294007  0.64410468  1
  V  V61  1  0.50312858  0.36574070  0.87947465  1
  V  V62  1  -0.01969314  0.25068943  0.73188236  1
  V  V63  1  0.25208907  0.88450352  0.10642704  1
  V  V64  1  0.88935400  -0.00534004  0.38039955  1
  V  V65  1  0.74829812  0.36758854  0.14020238  1
  V  V66  1  -0.01079204  0.76170960  0.25174440  1
  V  V67  1  0.35940824  -0.00524807  0.37698452  1
  V  V68  1  0.61775138  0.49471354  0.63030689  1
  V  V69  1  0.74314553  0.23620869  0.49039856  1
  V  V70  1  0.49405720  0.74479633  0.25267827  1
  V  V71  1  0.74547706  0.24577092  -0.00118274  1
  V  V72  1  0.37430110  -0.00424857  0.87059591  1
  Zn  Zn73  1  -0.00138559  0.87090094  0.87708948  1
  Zn  Zn74  1  0.00432324  0.38106748  0.86052994  1
  Zn  Zn75  1  0.35545864  0.75541255  0.08557212  1
  Zn  Zn76  1  0.51210250  0.02072972  0.48793777  1
  Zn  Zn77  1  0.75182040  0.85968259  0.11934373  1
  Zn  Zn78  1  0.13642280  0.49691194  0.12405049  1
  Zn  Zn79  1  0.26768663  0.63436610  0.88732945  1
  Zn  Zn80  1  0.12087037  0.48522815  0.62820510  1
  Zn  Zn81  1  0.23060642  0.15208551  0.36119717  1
  Zn  Zn82  1  0.18252117  0.18563879  0.18009792  1
  Zn  Zn83  1  0.19023482  0.19081738  0.67220279  1
  Zn  Zn84  1  0.17986137  0.70000477  0.17897360  1
  Zn  Zn85  1  0.18452399  0.77736026  0.66815242  1
  Zn  Zn86  1  0.68483473  0.18700695  0.19228454  1
  Zn  Zn87  1  0.69066073  0.19356759  0.68052377  1
  Zn  Zn88  1  0.68510309  0.68069331  0.20984324  1
  Zn  Zn89  1  0.69638076  0.67769306  0.69126155  1
  Zn  Zn90  1  0.34904031  0.32571392  0.30433046  1
  Zn  Zn91  1  0.31573395  0.30744504  0.81577403  1
  Zn  Zn92  1  0.30991186  0.82111724  0.29417794  1
  Zn  Zn93  1  0.30634367  0.81075381  0.80814547  1
  Zn  Zn94  1  0.81584051  0.31099084  0.32229269  1
  Zn  Zn95  1  0.81408818  0.30488343  0.81857849  1
  Zn  Zn96  1  0.80968467  0.81655241  0.31368620  1
  Zn  Zn97  1  0.81825685  0.81537023  0.81264603  1
  Zn  Zn98  1  0.17766510  0.44747389  0.42785521  1
  Zn  Zn99  1  0.18439240  0.43543203  0.93347770  1
  Zn  Zn100  1  0.16404056  0.92140126  0.43379879  1
  Zn  Zn101  1  0.18610472  0.92955688  0.93161811  1
  Zn  Zn102  1  0.68472017  0.42623611  0.43270948  1
  Zn  Zn103  1  0.68673096  0.43258599  0.94687107  1
  Zn  Zn104  1  0.68985904  0.94256104  0.45165820  1
  Zn  Zn105  1  0.69285299  0.93666516  0.93598447  1
  Zn  Zn106  1  0.30820215  0.06177699  0.05413956  1
  Zn  Zn107  1  0.35828154  0.12999590  0.51531039  1
  Zn  Zn108  1  0.32219029  0.56715922  0.04259733  1
  Zn  Zn109  1  0.32533645  0.55218218  0.62840249  1
  Zn  Zn110  1  0.81373736  0.05415532  0.05739557  1
  Zn  Zn111  1  0.81581231  0.06064510  0.56713966  1
  Zn  Zn112  1  0.81197312  0.55136084  0.06623673  1
  Zn  Zn113  1  0.80965768  0.55884171  0.55620623  1
  Zn  Zn114  1  0.42629269  0.45150667  0.19005454  1
  Zn  Zn115  1  0.43522371  0.43390835  0.68931625  1
  Zn  Zn116  1  0.43463176  0.93314566  0.18390546  1
  Zn  Zn117  1  0.43614461  0.93871605  0.68359940  1
  Zn  Zn118  1  0.93951594  0.43406994  0.18399098  1
  Zn  Zn119  1  0.94124831  0.43904856  0.68530558  1
  Zn  Zn120  1  0.93506015  0.93991685  0.18350313  1
  Zn  Zn121  1  0.93544716  0.93028929  0.68667662  1
  Zn  Zn122  1  0.05922223  0.06416478  0.31196404  1
  Zn  Zn123  1  0.05571632  0.07065636  0.80487089  1
  Zn  Zn124  1  0.07259171  0.56874236  0.31505838  1
  Zn  Zn125  1  0.05150434  0.57315766  0.82412553  1
  Zn  Zn126  1  0.56121547  0.06929463  0.31278840  1
  Zn  Zn127  1  0.56505328  0.06297828  0.80888922  1
  Zn  Zn128  1  0.56240816  0.56621883  0.31824678  1
  Zn  Zn129  1  0.56798578  0.55592539  0.81394253  1
  Zn  Zn130  1  0.42880705  0.32097980  0.46613150  1
  Zn  Zn131  1  0.43817896  0.18623386  0.93610987  1
  Zn  Zn132  1  0.41386883  0.63565959  0.49727057  1
  Zn  Zn133  1  0.44060580  0.68097139  0.92947031  1
  Zn  Zn134  1  0.94439814  0.18117564  0.43961606  1
  Zn  Zn135  1  0.93617639  0.18356736  0.93073385  1
  Zn  Zn136  1  0.94208927  0.69151342  0.42867709  1
  Zn  Zn137  1  0.93871812  0.68865569  0.93921018  1
  Zn  Zn138  1  0.06448244  0.30623234  0.07574198  1
  Zn  Zn139  1  0.07716423  0.30335694  0.56113061  1
  Zn  Zn140  1  0.05220280  0.82271814  0.06751576  1
  Zn  Zn141  1  0.06503780  0.82778817  0.54922538  1
  Zn  Zn142  1  0.54284733  0.31339680  0.20968450  1
  Zn  Zn143  1  0.57011379  0.30586612  0.56594887  1
  Zn  Zn144  1  0.53053974  0.80329431  0.04872524  1
  Zn  Zn145  1  0.56175776  0.81257060  0.57033115  1
  O  O146  1  0.11904574  0.12228972  0.10664498  1
  O  O147  1  0.12183848  0.12688512  0.60786316  1
  O  O148  1  0.11024627  0.61971775  0.11580569  1
  O  O149  1  0.13292633  0.65210846  0.55825941  1
  O  O150  1  0.61412938  0.11642019  0.12053144  1
  O  O151  1  0.61641269  0.11847496  0.62929329  1
  O  O152  1  0.62597250  0.61983867  0.11713643  1
  O  O153  1  0.64245282  0.60362804  0.61909647  1
  O  O154  1  0.37475538  0.39813443  0.39368238  1
  O  O155  1  0.38818319  0.36830931  0.88444893  1
  O  O156  1  0.38979837  0.88518632  0.36477984  1
  O  O157  1  0.38186815  0.88820518  0.86378218  1
  O  O158  1  0.87312903  0.38796857  0.38954642  1
  O  O159  1  0.87260962  0.38119063  0.89001857  1
  O  O160  1  0.86243228  0.88759555  0.38799892  1
  O  O161  1  0.87689445  0.88607046  0.88089547  1
  O  O162  1  0.26287866  -0.02307922  0.38687627  1
  O  O163  1  0.25854161  0.01115044  0.87946505  1
  O  O164  1  0.25420454  0.51017726  0.36389153  1
  O  O165  1  0.22471110  0.51895891  0.85708256  1
  O  O166  1  0.74275795  -0.00248942  0.36064624  1
  O  O167  1  0.75090019  0.01312632  0.87075838  1
  O  O168  1  0.76151098  0.50384944  0.38302542  1
  O  O169  1  0.75968353  0.50540536  0.88998041  1
  O  O170  1  0.25723691  0.51222849  0.13719562  1
  O  O171  1  0.23554456  0.48605762  0.62738870  1
  O  O172  1  0.25091850  0.98749405  0.11436646  1
  O  O173  1  0.26886528  0.97042073  0.59519491  1
  O  O174  1  0.73289816  0.48326475  0.11962829  1
  O  O175  1  0.74341819  0.47910304  0.61844066  1
  O  O176  1  0.73543575  1.00149382  0.13282150  1
  O  O177  1  0.74081010  1.00322996  0.63029668  1
  O  O178  1  -0.01237231  0.35204513  0.24462883  1
  O  O179  1  -0.00504716  0.35824295  0.74796331  1
  O  O180  1  0.01021562  0.86432246  0.22666703  1
  O  O181  1  0.01687044  0.88830164  0.75912137  1
  O  O182  1  0.45464046  0.36396018  0.25233620  1
  O  O183  1  0.50353001  0.36755992  0.76008724  1
  O  O184  1  0.51070356  0.86777298  0.25299603  1
  O  O185  1  0.50321955  0.87151687  0.76070393  1
  O  O186  1  0.48293770  0.11442959  0.23524253  1
  O  O187  1  0.49281998  0.13170404  0.74575528  1
  O  O188  1  0.51052399  0.63824055  0.24286602  1
  O  O189  1  0.50340056  0.62849802  0.75712375  1
  O  O190  1  0.98905911  0.12733231  0.23875828  1
  O  O191  1  1.00950075  0.14200483  0.73017635  1
  O  O192  1  1.00225240  0.63253369  0.23982677  1
  O  O193  1  0.97761273  0.60889091  0.74938959  1
  O  O194  1  0.36656271  0.25124480  0.00382418  1
  O  O195  1  0.35211707  0.24455599  0.50084473  1
  O  O196  1  0.43116821  0.76023604  0.00718397  1
  O  O197  1  0.37976556  0.74863996  0.50968919  1
  O  O198  1  0.86983314  0.26023386  -0.00215404  1
  O  O199  1  0.87014432  0.26159602  0.49004575  1
  O  O200  1  0.87125113  0.76636261  -0.01221205  1
  O  O201  1  0.86831391  0.75876819  0.48739388  1
  O  O202  1  0.14307061  0.24226940  0.48984441  1
  O  O203  1  0.13068522  0.24426773  0.99397957  1
  O  O204  1  0.13807125  0.80673823  0.46415944  1
  O  O205  1  0.12123427  0.74149344  1.00803654  1
  O  O206  1  0.63676229  0.24924994  0.49038356  1
  O  O207  1  0.63289711  0.23505104  1.00219785  1
  O  O208  1  0.62495555  0.75044965  0.48935878  1
  O  O209  1  0.62064142  0.74252842  0.98960478  1
  O  O210  1  0.48262988  0.23545356  0.12183220  1
  O  O211  1  0.50900706  0.23741594  0.64146153  1
  O  O212  1  0.51579385  0.74172773  0.14430419  1
  O  O213  1  0.50111717  0.74957588  0.64430021  1
  O  O214  1  1.00431405  0.23047184  0.13972095  1
  O  O215  1  0.99914210  0.24991326  0.63068962  1
  O  O216  1  0.99877244  0.73547605  0.13148132  1
  O  O217  1  1.09964102  0.71727640  0.60125894  1
  O  O218  1  -0.00121265  0.23645686  0.35374504  1
  O  O219  1  0.00910686  0.24340475  0.86015981  1
  O  O220  1  0.00245767  0.75524118  0.35574074  1
  O  O221  1  0.01723426  0.75045121  0.88136763  1
  O  O222  1  0.49998839  0.25833296  0.38812140  1
  O  O223  1  0.50386770  0.25544539  0.86722793  1
  O  O224  1  0.51412034  0.76298812  0.36410188  1
  O  O225  1  0.51311656  0.75297325  0.86385599  1
  O  O226  1  0.24132438  0.12899930  0.48947806  1
  O  O227  1  0.23733922  0.13136816  0.98881678  1
  O  O228  1  0.19833413  0.66269152  0.52410494  1
  O  O229  1  0.22290734  0.61451323  1.00499014  1
  O  O230  1  0.75528416  0.14010842  0.51019488  1
  O  O231  1  0.74169301  0.13052578  1.00309657  1
  O  O232  1  0.73932849  0.62297546  0.48803174  1
  O  O233  1  0.74785985  0.62565106  0.99621749  1
  O  O234  1  0.26095304  0.36568887  -0.01347035  1
  O  O235  1  0.24094039  0.37307419  0.49148595  1
  O  O236  1  0.24750854  0.87159392  0.00501869  1
  O  O237  1  0.26397969  0.91270188  0.55104696  1
  O  O238  1  0.75694674  0.36260104  0.00531763  1
  O  O239  1  0.75888223  0.36706659  0.50702419  1
  O  O240  1  0.75820737  0.87472804  0.00263498  1
  O  O241  1  0.76170951  0.88108592  0.51448014  1
  O  O242  1  0.14463074  0.49765004  0.25056121  1
  O  O243  1  0.12694014  0.50583588  0.76027775  1
  O  O244  1  0.11633775  0.99506295  0.24011178  1
  O  O245  1  0.13536602  1.00382050  0.75508656  1
  O  O246  1  0.61898736  0.50661819  0.23846685  1
  O  O247  1  0.62708612  0.48492375  0.74080977  1
  O  O248  1  0.62712580  0.99497739  0.24261394  1
  O  O249  1  0.61684938  0.99921010  0.73148338  1
  O  O250  1  0.37369512  0.00397406  0.25589793  1
  O  O251  1  0.38173828  0.01609403  0.75887976  1
  O  O252  1  0.35828109  0.50973145  0.26176314  1
  O  O253  1  0.37659041  0.52268089  0.72798558  1
  O  O254  1  0.86511855  0.00040697  0.25893874  1
  O  O255  1  0.87397037  -0.00833398  0.76727234  1
  O  O256  1  0.88404517  0.49141143  0.26836104  1
  O  O257  1  0.87365069  0.48899768  0.77099365  1
  O  O258  1  0.11994639  0.38383073  0.34818990  1
  O  O259  1  0.11877913  0.35620851  0.88073316  1
  O  O260  1  0.11957545  0.87359508  0.33990106  1
  O  O261  1  0.12349137  0.86230632  0.86134348  1
  O  O262  1  0.63163183  0.35176907  0.37057778  1
  O  O263  1  0.62348681  0.37965754  0.86189791  1
  O  O264  1  0.62205620  0.86759683  0.37156506  1
  O  O265  1  0.62218572  0.85958231  0.87565444  1
  O  O266  1  0.37703384  0.12467547  0.12689513  1
  O  O267  1  0.37986095  0.12048679  0.63888043  1
  O  O268  1  0.39404949  0.62965772  0.11782969  1
  O  O269  1  0.39730782  0.63633843  0.61350671  1
  O  O270  1  0.88212543  0.11834573  0.13267827  1
  O  O271  1  0.89752045  0.12567477  0.61244611  1
  O  O272  1  0.88528468  0.61758422  0.12440305  1
  O  O273  1  0.85954780  0.61744379  0.64080815  1
  O  O274  1  0.25969754  0.23956182  0.10852040  1
  O  O275  1  0.24768772  0.26714748  0.60942351  1
  O  O276  1  0.25343451  0.76489645  0.12534135  1
  O  O277  1  0.27844892  0.72791148  0.64052934  1
  O  O278  1  0.74097132  0.26183678  0.11757924  1
  O  O279  1  0.74388702  0.26540484  0.61079750  1
  O  O280  1  0.72991843  0.74111348  0.11730774  1
  O  O281  1  0.74004900  0.75528774  0.62084935  1
  O  O282  1  0.26359468  0.26191243  0.37641089  1
  O  O283  1  0.24094547  0.23889501  0.88168509  1
  O  O284  1  0.23939029  0.75581091  0.35462355  1
  O  O285  1  0.23250698  0.73959979  0.86659647  1
  O  O286  1  0.75302422  0.24425835  0.38816370  1
  O  O287  1  0.75464871  0.23473924  0.89013237  1
  O  O288  1  0.73780886  0.74451990  0.37233237  1
  O  O289  1  0.73821644  0.74271389  0.87030851  1
  O  O290  1  0.00718599  0.13322112  0.00822982  1
  O  O291  1  0.01760768  0.12866485  0.50829183  1
  O  O292  1  0.00403984  0.61677355  0.00967499  1
  O  O293  1  -0.01033845  0.62200560  0.50645818  1
  O  O294  1  0.50665947  0.11737837  0.00391297  1
  O  O295  1  0.48904089  0.13518847  0.52432006  1
  O  O296  1  0.50939712  0.60317865  0.00846584  1
  O  O297  1  0.53018596  0.62940880  0.50701826  1
  O  O298  1  0.50375719  0.38057138  0.52063419  1
  O  O299  1  0.49413239  0.37474776  0.98846836  1
  O  O300  1  0.50309655  0.87134556  0.48546320  1
  O  O301  1  0.51215565  0.89416987  0.98219404  1
  O  O302  1  0.99112628  0.36679229  0.50387232  1
  O  O303  1  0.98561173  0.37588507  1.00988042  1
  O  O304  1  0.97253160  0.87629174  0.51125013  1
  O  O305  1  0.98352449  0.87784364  0.99703941  1
  O  O306  1  0.46999489  0.53334796  0.38152663  1
  O  O307  1  0.51155598  0.48890705  0.89108493  1
  O  O308  1  0.50654985  0.98321428  0.37180437  1
  O  O309  1  0.49526650  0.99561792  0.87581584  1
  O  O310  1  0.98902929  0.51339533  0.38567112  1
  O  O311  1  0.98607831  0.49545751  0.88848813  1
  O  O312  1  0.98761961  0.99155142  0.36925318  1
  O  O313  1  0.98484094  1.01479370  0.87581497  1
  O  O314  1  0.00002145  0.01733486  0.12501582  1
  O  O315  1  0.00077670  0.01128471  0.63088660  1
  O  O316  1  -0.00115136  0.50947790  0.11983358  1
  O  O317  1  0.00615904  0.50134638  0.61499269  1
  O  O318  1  0.50441536  0.00395701  0.11439238  1
  O  O319  1  0.50227306  0.01366806  0.62389315  1
  O  O320  1  0.51057297  0.50681706  0.12589833  1
  O  O321  1  0.51969188  0.49223932  0.62638206  1
  O  O322  1  0.24990456  0.37012974  0.24932696  1
  O  O323  1  0.25272899  0.36612725  0.74528172  1
  O  O324  1  0.23763843  0.88568988  0.23455021  1
  O  O325  1  0.22432419  0.86406352  0.74743744  1
  O  O326  1  0.76324507  0.36714161  0.23720796  1
  O  O327  1  0.74477353  0.36475897  0.74391679  1
  O  O328  1  0.73800939  0.88136063  0.24261101  1
  O  O329  1  0.75524674  0.86732553  0.73273646  1
  O  O330  1  0.25245847  0.11846071  0.24319882  1
  O  O331  1  0.26251524  0.13429840  0.75448074  1
  O  O332  1  0.24640770  0.62965137  0.24598931  1
  O  O333  1  0.20671883  0.51687170  0.77641864  1
  O  O334  1  0.76382276  0.11630865  0.24080242  1
  O  O335  1  0.74210698  0.13514994  0.76358999  1
  O  O336  1  0.74771253  0.61843945  0.27457494  1
  O  O337  1  0.76353695  0.62030133  0.76680560  1
  O  O338  1  0.36061692  0.11089198  0.35295813  1
  O  O339  1  0.36608879  0.11953761  0.86764625  1
  O  O340  1  0.41756969  0.60253099  0.37909844  1
  O  O341  1  0.36374889  0.60171296  0.93038696  1
  O  O342  1  0.88117872  0.11132081  0.35833401  1
  O  O343  1  0.85819939  0.11526793  0.88078263  1
  O  O344  1  0.86489171  0.61213830  0.38353458  1
  O  O345  1  0.86849092  0.61030243  0.87735257  1
  O  O346  1  0.11700011  0.38226977  0.14569613  1
  O  O347  1  0.13979094  0.37194924  0.62571716  1
  O  O348  1  0.13612341  0.87245859  0.12695196  1
  O  O349  1  0.11641862  0.87307116  0.64179449  1
  O  O350  1  0.62930275  0.37849271  0.14425831  1
  O  O351  1  0.63699922  0.38011367  0.63627191  1
  O  O352  1  0.61889028  0.88498960  0.13234745  1
  O  O353  1  0.63919136  0.88314018  0.62100583  1
  O  O354  1  0.12055110  0.25890725  0.24619314  1
  O  O355  1  0.13134538  0.24479369  0.76257595  1
  O  O356  1  0.11309909  0.75793165  0.25308895  1
  O  O357  1  0.11645391  0.72744799  0.75787034  1
  O  O358  1  0.61221766  0.24178382  0.25921837  1
  O  O359  1  0.61888230  0.26600226  0.74713697  1
  O  O360  1  0.62217014  0.76028827  0.26337694  1
  O  O361  1  0.61937241  0.74184807  0.75912565  1
  O  O362  1  0.36276042  0.22976550  0.23111988  1
  O  O363  1  0.38716949  0.23500319  0.75666670  1
  O  O364  1  0.39565045  0.75448667  0.25410811  1
  O  O365  1  0.39210795  0.74235557  0.76364456  1
  O  O366  1  0.87688293  0.23314715  0.25420839  1
  O  O367  1  0.88126238  0.24527684  0.74753234  1
  O  O368  1  0.88755902  0.76233240  0.25020948  1
  O  O369  1  0.87923194  0.73555273  0.75570564  1
  O  O370  1  0.34889451  0.52640300  0.49215051  1
  O  O371  1  0.39696839  0.47770309  1.02115154  1
  O  O372  1  0.38922825  1.01985444  0.47367297  1
  O  O373  1  0.38740069  1.01036698  0.98362314  1
  O  O374  1  0.89027607  0.48907952  0.49760297  1
  O  O375  1  0.88148900  0.48780771  0.99542309  1
  O  O376  1  0.87091718  1.00927003  0.47940230  1
  O  O377  1  0.86684917  0.98800759  0.98358451  1
  O  O378  1  0.12286592  0.01554077  -0.01612278  1
  O  O379  1  0.13135875  0.00685543  0.50072850  1
  O  O380  1  0.10922110  0.49494085  0.00103814  1
  O  O381  1  0.10142137  0.50240636  0.49352059  1
  O  O382  1  0.61971473  0.00901305  0.00685141  1
  O  O383  1  0.61992531  0.00102220  0.52002796  1
  O  O384  1  0.61007783  0.48184155  0.01916435  1
  O  O385  1  0.62892776  0.50257000  0.50709094  1
  O  O386  1  0.37549722  0.35490427  0.11360244  1
  O  O387  1  0.35579561  0.38416499  0.62251338  1
  O  O388  1  0.36113755  0.87222816  0.12501342  1
  O  O389  1  0.38464922  0.85250550  0.63483759  1
  O  O390  1  0.85818033  0.38308364  0.11268026  1
  O  O391  1  0.86713058  0.37921197  0.61258384  1
  O  O392  1  0.86874019  0.88099215  0.11089092  1
  O  O393  1  0.86168455  0.87369491  0.61621411  1
  O  O394  1  0.12480882  0.11676687  0.38649395  1
  O  O395  1  0.12874451  0.13532647  0.88155050  1
  O  O396  1  0.11723504  0.65441373  0.37946265  1
  O  O397  1  0.11700230  0.63629380  0.89337470  1
  O  O398  1  0.61402325  0.14341649  0.37660624  1
  O  O399  1  0.63559462  0.11717477  0.88577150  1
  O  O400  1  0.63360755  0.63145879  0.38693019  1
  O  O401  1  0.63683533  0.63185286  0.87342907  1
