# generated using pymatgen
data_V73Zn73O256
_symmetry_space_group_name_H-M   'P 1'
_cell_length_a   16.95851895
_cell_length_b   16.91093386
_cell_length_c   16.93058151
_cell_angle_alpha   90.29918029
_cell_angle_beta   90.83533585
_cell_angle_gamma   89.93110130
_symmetry_Int_Tables_number   1
_chemical_formula_structural   V73Zn73O256
_chemical_formula_sum   'V73 Zn73 O256'
_cell_volume   4854.84124183
_cell_formula_units_Z   1
loop_
 _symmetry_equiv_pos_site_id
 _symmetry_equiv_pos_as_xyz
  1  'x, y, z'
loop_
 _atom_site_type_symbol
 _atom_site_label
 _atom_site_symmetry_multiplicity
 _atom_site_fract_x
 _atom_site_fract_y
 _atom_site_fract_z
 _atom_site_occupancy
  V  V0  1  0.14430807  0.14995128  0.47183964  1
  V  V1  1  0.74931647  0.36297059  0.14186971  1
  V  V2  1  0.38181511  0.87891349  -0.00221369  1
  V  V3  1  0.49128334  0.24660334  0.74522942  1
  V  V4  1  0.75216574  0.25511979  0.00863693  1
  V  V5  1  0.63039968  0.49164831  0.62816677  1
  V  V6  1  0.62231419  0.85801508  0.74020347  1
  V  V7  1  0.62733080  0.37672821  0.75281899  1
  V  V8  1  0.62815052  0.50127032  0.13725781  1
  V  V9  1  0.37023880  0.50301921  0.86998332  1
  V  V10  1  0.88809829  0.75524591  0.11324432  1
  V  V11  1  0.63261855  0.62000869  0.49861197  1
  V  V12  1  0.50554839  0.50096616  0.00366109  1
  V  V13  1  0.86826326  0.63869223  0.25290682  1
  V  V14  1  0.37355305  0.36852007  0.00593159  1
  V  V15  1  0.11858204  0.36406326  0.77544802  1
  V  V16  1  -0.00207595  0.37456481  0.37636011  1
  V  V17  1  0.49343551  0.23967923  0.23697567  1
  V  V18  1  0.49712518  0.62313102  0.12975831  1
  V  V19  1  0.36459177  0.75629082  0.62864316  1
  V  V20  1  0.23621026  0.87582403  0.13185304  1
  V  V21  1  0.61940730  0.36847543  0.25680239  1
  V  V22  1  0.36836317  0.86966834  0.50497689  1
  V  V23  1  0.36900930  0.24993884  0.61255227  1
  V  V24  1  0.88261805  0.15735660  0.76316621  1
  V  V25  1  0.37674258  0.00652988  0.37371119  1
  V  V26  1  0.74806044  0.86973493  0.10985175  1
  V  V27  1  0.87006438  0.88682512  0.49676214  1
  V  V28  1  0.12214694  0.38694171  0.25350206  1
  V  V29  1  0.00602543  0.49665789  0.49748339  1
  V  V30  1  0.24592604  0.38229326  0.12383567  1
  V  V31  1  -0.01107252  0.25637948  0.22962641  1
  V  V32  1  0.86097858  0.50505632  0.37199710  1
  V  V33  1  0.37171940  0.11575509  0.74442025  1
  V  V34  1  0.50588548  0.87460313  0.38084546  1
  V  V35  1  0.77589161  0.12271071  0.40098781  1
  V  V36  1  0.38053697  0.63499122  0.75234002  1
  V  V37  1  0.00667736  0.87338415  0.86818253  1
  V  V38  1  0.24677097  0.24614107  0.00672946  1
  V  V39  1  0.25039519  0.39472870  0.63727322  1
  V  V40  1  0.02397307  0.00280982  0.48271504  1
  V  V41  1  0.37524763  0.12067860  0.23089141  1
  V  V42  1  0.12464013  0.74940549  0.85476456  1
  V  V43  1  0.49390090  0.37576034  0.37873962  1
  V  V44  1  0.12115161  0.12591618  0.03077857  1
  V  V45  1  0.87123792  0.13078888  0.22542674  1
  V  V46  1  0.49170137  0.37531876  0.87377013  1
  V  V47  1  0.23533475  0.11902070  0.86259827  1
  V  V48  1  0.49794273  0.74598165  0.25531660  1
  V  V49  1  0.75236992  0.62857422  0.87174241  1
  V  V50  1  0.61168463  0.00085460  0.12718471  1
  V  V51  1  0.63328681  0.74385906  0.37909937  1
  V  V52  1  0.23709877  -0.00179167  0.25051492  1
  V  V53  1  -0.01043007  0.62180624  0.62824541  1
  V  V54  1  0.02985721  0.50247148  -0.00948597  1
  V  V55  1  0.51136862  0.00984291  0.51770937  1
  V  V56  1  0.36431843  0.38606744  0.49276766  1
  V  V57  1  0.11552878  0.75232307  0.35727457  1
  V  V58  1  0.76113959  0.74602141  0.51212107  1
  V  V59  1  0.23459733  0.74814204  0.00471323  1
  V  V60  1  0.13261839  0.62924731  0.50312087  1
  V  V61  1  0.00196192  -0.00182046  0.01274291  1
  V  V62  1  0.74605316  0.00598025  0.73800671  1
  V  V63  1  0.61791630  0.25077409  0.87913759  1
  V  V64  1  0.74791512  0.12754401  0.88203360  1
  V  V65  1  0.27421576  0.50768233  0.25061399  1
  V  V66  1  0.24662538  0.62850688  0.87477374  1
  V  V67  1  0.87021341  -0.00973173  0.88263962  1
  V  V68  1  0.60255884  0.11900317  0.00413119  1
  V  V69  1  0.26220895  0.63133701  0.37048951  1
  V  V70  1  0.61955009  0.23109829  0.39045802  1
  V  V71  1  0.50346776  0.63270548  0.62844097  1
  V  V72  1  0.37204990  0.74706439  0.13158821  1
  Zn  Zn73  1  0.90279515  0.39296087  0.03810640  1
  Zn  Zn74  1  0.02105413  0.11388141  0.63742497  1
  Zn  Zn75  1  0.88622344  0.76973705  0.65073320  1
  Zn  Zn76  1  -0.00859884  0.87409242  0.36059069  1
  Zn  Zn77  1  0.75702499  0.00130934  0.25621472  1
  Zn  Zn78  1  0.63073970  0.87410672  0.25212057  1
  Zn  Zn79  1  0.49900065  0.50013630  0.49819745  1
  Zn  Zn80  1  0.80593137  0.29686611  0.54058528  1
  Zn  Zn81  1  0.37426775  -0.00137377  0.88307663  1
  Zn  Zn82  1  0.19133382  0.20109098  0.20793241  1
  Zn  Zn83  1  0.18893362  0.19564127  0.67921482  1
  Zn  Zn84  1  0.17952597  0.67856505  0.18404233  1
  Zn  Zn85  1  0.19150105  0.68429738  0.68743649  1
  Zn  Zn86  1  0.68063301  0.18148040  0.19337254  1
  Zn  Zn87  1  0.69720692  0.18960972  0.67839064  1
  Zn  Zn88  1  0.69220863  0.68627625  0.19349225  1
  Zn  Zn89  1  0.69589202  0.68150615  0.68058269  1
  Zn  Zn90  1  0.30893432  0.30884890  0.31221548  1
  Zn  Zn91  1  0.28752923  0.29443359  0.80198752  1
  Zn  Zn92  1  0.31134397  0.81330841  0.31655124  1
  Zn  Zn93  1  0.50278640  0.87362698  0.86467848  1
  Zn  Zn94  1  0.80721981  0.30840312  0.33817369  1
  Zn  Zn95  1  0.81926454  0.34461932  0.70406223  1
  Zn  Zn96  1  0.80944313  0.81746411  0.31104666  1
  Zn  Zn97  1  0.80621388  0.82416415  0.80831557  1
  Zn  Zn98  1  0.18887989  0.44661642  0.43114166  1
  Zn  Zn99  1  0.18687355  0.43765909  0.93195396  1
  Zn  Zn100  1  0.19162247  0.93307182  0.42946180  1
  Zn  Zn101  1  0.18608329  0.94076348  0.94129613  1
  Zn  Zn102  1  0.69168247  0.42516124  0.44505438  1
  Zn  Zn103  1  0.72741821  0.46837593  0.98429457  1
  Zn  Zn104  1  0.69416714  0.94291839  0.44806482  1
  Zn  Zn105  1  0.67712960  0.93730110  0.93364491  1
  Zn  Zn106  1  0.30389778  0.05729020  0.06371554  1
  Zn  Zn107  1  0.33053927  0.07320781  0.54465900  1
  Zn  Zn108  1  0.31106754  0.56182981  0.05944178  1
  Zn  Zn109  1  0.31538763  0.56822589  0.55742167  1
  Zn  Zn110  1  0.80310658  0.05679488  0.06269015  1
  Zn  Zn111  1  0.85094439  0.06664210  0.57832012  1
  Zn  Zn112  1  0.88983284  0.56714595  0.06512114  1
  Zn  Zn113  1  0.84394027  0.49950668  0.60828099  1
  Zn  Zn114  1  0.43955628  0.43197865  0.18815513  1
  Zn  Zn115  1  0.43639554  0.44180058  0.68345808  1
  Zn  Zn116  1  0.43519237  0.92951317  0.18933615  1
  Zn  Zn117  1  0.44797970  0.93676175  0.69989196  1
  Zn  Zn118  1  0.95950832  0.48110071  0.20691004  1
  Zn  Zn119  1  0.97168128  0.41385842  0.67360713  1
  Zn  Zn120  1  0.92960013  0.93693373  0.19127424  1
  Zn  Zn121  1  0.99038246  0.93785913  0.66496442  1
  Zn  Zn122  1  0.05669056  0.07288655  0.30588360  1
  Zn  Zn123  1  0.04737622  0.06338845  0.81201144  1
  Zn  Zn124  1  0.05952381  0.57326903  0.31090554  1
  Zn  Zn125  1  0.06959996  0.54864974  0.80415136  1
  Zn  Zn126  1  0.55815990  0.05567253  0.31024909  1
  Zn  Zn127  1  0.55768866  0.05635476  0.80994042  1
  Zn  Zn128  1  0.56006551  0.56077705  0.31427503  1
  Zn  Zn129  1  0.55641064  0.56011257  0.81063720  1
  Zn  Zn130  1  0.44064069  0.18734866  0.43448376  1
  Zn  Zn131  1  0.42563615  0.18625832  0.93091848  1
  Zn  Zn132  1  0.44378676  0.68824588  0.44488431  1
  Zn  Zn133  1  0.42946745  0.68764854  0.95056022  1
  Zn  Zn134  1  0.96081285  0.18383748  0.42442045  1
  Zn  Zn135  1  0.92645630  0.18009209  0.96778433  1
  Zn  Zn136  1  0.94176215  0.68077285  0.43582003  1
  Zn  Zn137  1  0.94919229  0.68760669  0.93836533  1
  Zn  Zn138  1  0.06684400  0.31606218  0.06036471  1
  Zn  Zn139  1  0.08830751  0.29322438  0.56161684  1
  Zn  Zn140  1  0.05576902  0.81705751  0.06480432  1
  Zn  Zn141  1  0.04913470  0.80172967  0.54240764  1
  Zn  Zn142  1  0.56182558  0.31312221  0.06309797  1
  Zn  Zn143  1  0.55661257  0.30810387  0.56453970  1
  Zn  Zn144  1  0.56031990  0.81403726  0.06708852  1
  Zn  Zn145  1  0.56794024  0.81822922  0.56454093  1
  O  O146  1  0.12995844  0.12893238  0.12897174  1
  O  O147  1  0.10733414  0.17938283  0.60500191  1
  O  O148  1  0.11051672  0.61081395  0.12976144  1
  O  O149  1  0.13135522  0.62922979  0.60632867  1
  O  O150  1  0.62138377  0.11500505  0.11361304  1
  O  O151  1  0.60559619  0.14252126  0.64001505  1
  O  O152  1  0.61754531  0.60744238  0.13773669  1
  O  O153  1  0.62110002  0.61188842  0.62270282  1
  O  O154  1  0.37831107  0.36196639  0.38571379  1
  O  O155  1  0.38044040  0.38356276  0.88331929  1
  O  O156  1  0.38603883  0.87546801  0.38638057  1
  O  O157  1  0.37905356  0.86716203  0.89617480  1
  O  O158  1  0.89401530  0.38755262  0.37191959  1
  O  O159  1  0.93435750  0.34159712  0.87433848  1
  O  O160  1  0.87664403  0.86178283  0.39216186  1
  O  O161  1  0.87558501  0.88685879  0.88343746  1
  O  O162  1  0.26531330  -0.01430252  0.35722388  1
  O  O163  1  0.25355491  0.01517109  0.88150039  1
  O  O164  1  0.24874217  0.51231087  0.35586336  1
  O  O165  1  0.26326515  0.51313320  0.88451968  1
  O  O166  1  0.73774889  0.02660946  0.37694684  1
  O  O167  1  0.75847893  0.01257235  0.89030743  1
  O  O168  1  0.76435141  0.49930299  0.39318409  1
  O  O169  1  0.75152691  0.52226964  0.87818185  1
  O  O170  1  0.25845287  0.49705233  0.13813029  1
  O  O171  1  0.25868103  0.49381797  0.61898657  1
  O  O172  1  0.25107100  0.98372249  0.13629621  1
  O  O173  1  0.16852584  0.89721345  0.62510646  1
  O  O174  1  0.72776328  0.47854031  0.12898618  1
  O  O175  1  0.72881309  0.49736539  0.62842787  1
  O  O176  1  0.73828432  0.98776126  0.12508328  1
  O  O177  1  0.76703256  1.01649792  0.64238552  1
  O  O178  1  0.00563708  0.38020579  0.25539168  1
  O  O179  1  0.02671197  0.33945493  0.73634225  1
  O  O180  1  0.00456924  0.88476684  0.25207783  1
  O  O181  1  -0.01344618  0.87646583  0.77138248  1
  O  O182  1  0.49891392  0.35877451  0.25741881  1
  O  O183  1  0.49377525  0.36771174  0.75952853  1
  O  O184  1  0.50519731  0.86449829  0.26229224  1
  O  O185  1  0.51422638  0.85654744  0.74468850  1
  O  O186  1  0.48961115  0.13141137  0.24964692  1
  O  O187  1  0.48122895  0.13491009  0.75503677  1
  O  O188  1  0.50086829  0.63272371  0.24218862  1
  O  O189  1  0.49212590  0.62556670  0.74266263  1
  O  O190  1  0.98988780  0.14735628  0.24501402  1
  O  O191  1  0.97692234  0.15439332  0.80139655  1
  O  O192  1  0.97115377  0.59708942  0.23944888  1
  O  O193  1  1.01727561  0.61123306  0.72497356  1
  O  O194  1  0.36844760  0.26172231  -0.00269420  1
  O  O195  1  0.37867669  0.25517293  0.50940429  1
  O  O196  1  0.36246467  0.75924813  0.01341411  1
  O  O197  1  0.38144966  0.76179393  0.51116699  1
  O  O198  1  0.85320807  0.26297082  0.00327813  1
  O  O199  1  0.91892009  0.24929120  0.51830182  1
  O  O200  1  0.88527074  0.74991073  0.01294657  1
  O  O201  1  0.86088746  0.74049260  0.49420832  1
  O  O202  1  0.14326533  0.25041743  0.46795785  1
  O  O203  1  0.13054223  0.23314002  1.00761257  1
  O  O204  1  0.12426052  0.73347983  0.48726790  1
  O  O205  1  0.13324946  0.75076744  1.00729713  1
  O  O206  1  0.61758669  0.25052974  0.48903373  1
  O  O207  1  0.61727885  0.23768035  0.99575302  1
  O  O208  1  0.63352038  0.74249559  0.49766026  1
  O  O209  1  0.58183876  0.75426084  0.96625748  1
  O  O210  1  0.49940548  0.25163264  0.13895121  1
  O  O211  1  0.48198122  0.25968258  0.63668337  1
  O  O212  1  0.49553689  0.74205533  0.13446259  1
  O  O213  1  0.50042399  0.73562080  0.61717014  1
  O  O214  1  0.98335589  0.26961928  0.12994381  1
  O  O215  1  0.97067373  0.25835887  0.57875801  1
  O  O216  1  0.98623294  0.76233818  0.13237520  1
  O  O217  1  0.98840526  0.72710305  0.61068629  1
  O  O218  1  -0.00044595  0.27139859  0.36118804  1
  O  O219  1  -0.02592077  0.28213430  0.88759250  1
  O  O220  1  0.01223797  0.74763577  0.37560825  1
  O  O221  1  0.01535720  0.76047196  0.88283796  1
  O  O222  1  0.50490646  0.25642894  0.36836060  1
  O  O223  1  0.49922367  0.25612450  0.86911148  1
  O  O224  1  0.50618464  0.75563512  0.37271554  1
  O  O225  1  0.52115497  0.75584340  0.91367913  1
  O  O226  1  0.23351011  0.11369332  0.51128055  1
  O  O227  1  0.23349640  0.12669382  1.00236543  1
  O  O228  1  0.24065202  0.61658935  0.48207969  1
  O  O229  1  0.26022533  0.63754318  0.98668564  1
  O  O230  1  0.78532441  0.13316254  0.50036222  1
  O  O231  1  0.73841361  0.13887856  0.99983881  1
  O  O232  1  0.73477483  0.63485086  0.50286597  1
  O  O233  1  0.73791645  0.63551158  0.97516876  1
  O  O234  1  0.25512473  0.36892540  0.00459033  1
  O  O235  1  0.26246038  0.38237877  0.49628844  1
  O  O236  1  0.25147444  0.86771505  0.01501578  1
  O  O237  1  0.27061035  0.87925794  0.49709217  1
  O  O238  1  0.72794969  0.35864922  0.02040150  1
  O  O239  1  0.76716013  0.34154947  0.44699781  1
  O  O240  1  0.73910890  0.87651734  0.00981358  1
  O  O241  1  0.75866252  0.85662031  0.49899545  1
  O  O242  1  0.11735952  0.48860627  0.24379590  1
  O  O243  1  0.13228789  0.46537870  0.75841131  1
  O  O244  1  0.13991903  1.00584623  0.25389568  1
  O  O245  1  0.05085066  1.02663478  0.70792978  1
  O  O246  1  0.61440550  0.48393376  0.24493801  1
  O  O247  1  0.61266059  0.48626347  0.74187902  1
  O  O248  1  0.62837411  1.00542489  0.23552315  1
  O  O249  1  0.64590453  1.02428665  0.74665002  1
  O  O250  1  0.38091924  0.00844100  0.25497719  1
  O  O251  1  0.36629956  0.01824101  0.72407294  1
  O  O252  1  0.37283412  0.49818550  0.25467019  1
  O  O253  1  0.38529837  0.51407065  0.76476198  1
  O  O254  1  0.87805087  0.02645609  0.24208694  1
  O  O255  1  0.86128248  0.01437660  0.78053779  1
  O  O256  1  0.86088987  0.49544289  0.26915529  1
  O  O257  1  0.87159223  0.44810826  0.72014300  1
  O  O258  1  0.12170439  0.38157367  0.35789077  1
  O  O259  1  0.12252812  0.36198203  0.87817658  1
  O  O260  1  0.12991459  0.85341041  0.37734012  1
  O  O261  1  0.11532633  0.86873847  0.87466767  1
  O  O262  1  0.61481529  0.36150068  0.36883995  1
  O  O263  1  0.60442930  0.36901982  0.86864780  1
  O  O264  1  0.61690031  0.86547733  0.38077985  1
  O  O265  1  0.61855236  0.89091329  0.85118380  1
  O  O266  1  0.37752580  0.11794209  0.13220933  1
  O  O267  1  0.36420969  0.14223224  0.63152397  1
  O  O268  1  0.38286788  0.63685312  0.12153599  1
  O  O269  1  0.38201229  0.63523776  0.62841990  1
  O  O270  1  0.86871301  0.13437287  0.12535366  1
  O  O271  1  0.90036182  0.13220787  0.66266334  1
  O  O272  1  0.86276425  0.65037602  0.13475290  1
  O  O273  1  0.89035456  0.60451012  0.62396469  1
  O  O274  1  0.25027245  0.26138987  0.11393874  1
  O  O275  1  0.26944965  0.27006451  0.62463026  1
  O  O276  1  0.25428245  0.75489699  0.12615553  1
  O  O277  1  0.26602658  0.74917135  0.62526782  1
  O  O278  1  0.73353191  0.25446908  0.11884192  1
  O  O279  1  0.75911808  0.26981286  0.63721297  1
  O  O280  1  0.73755495  0.76733436  0.12670279  1
  O  O281  1  0.76516388  0.74307369  0.61450479  1
  O  O282  1  0.22764616  0.23795334  0.30922235  1
  O  O283  1  0.25739442  0.22724003  0.89548269  1
  O  O284  1  0.24210795  0.73570257  0.36426131  1
  O  O285  1  0.23061690  0.74785970  0.88649648  1
  O  O286  1  0.72751650  0.21649441  0.36883464  1
  O  O287  1  0.72850475  0.24626881  0.89481312  1
  O  O288  1  0.73495350  0.75032661  0.38056286  1
  O  O289  1  0.75054050  0.73311961  0.87092096  1
  O  O290  1  0.01475287  0.11997107  0.00244459  1
  O  O291  1  0.03357550  0.11754289  0.48227882  1
  O  O292  1  -0.01702914  0.60137298  0.00095441  1
  O  O293  1  0.01364528  0.61475667  0.50437095  1
  O  O294  1  0.50408453  0.12485275  -0.00740220  1
  O  O295  1  0.48496833  0.10760469  0.50263628  1
  O  O296  1  0.49589207  0.61279780  0.01628053  1
  O  O297  1  0.51263214  0.62028980  0.50824410  1
  O  O298  1  0.48813239  0.37348513  0.49246076  1
  O  O299  1  0.49212403  0.37966750  0.99469391  1
  O  O300  1  0.49553644  0.88205760  0.49410282  1
  O  O301  1  0.48224820  0.87762811  1.01208888  1
  O  O302  1  1.02256927  0.38701229  0.48279401  1
  O  O303  1  1.00897663  0.38964350  0.99687487  1
  O  O304  1  0.99258014  0.88962114  0.48356202  1
  O  O305  1  1.00765522  0.89231733  0.98998519  1
  O  O306  1  0.50428127  0.47986635  0.37453516  1
  O  O307  1  0.49456337  0.49507434  0.88513148  1
  O  O308  1  0.49280525  0.98788161  0.37782082  1
  O  O309  1  0.47709876  0.98533155  0.83974904  1
  O  O310  1  0.99857284  0.49295423  0.37705292  1
  O  O311  1  1.01255309  0.50245474  0.88990645  1
  O  O312  1  1.00177613  1.00265631  0.37999920  1
  O  O313  1  0.98791491  0.98990704  0.88367827  1
  O  O314  1  -0.00730983  -0.00562977  0.10999047  1
  O  O315  1  -0.03002142  0.01963022  0.57347762  1
  O  O316  1  -0.03260314  0.48454462  0.09564005  1
  O  O317  1  0.00950610  0.50151282  0.60376213  1
  O  O318  1  0.51300388  -0.00855012  0.12961540  1
  O  O319  1  0.49772753  -0.00461790  0.61526295  1
  O  O320  1  0.50428638  0.50368751  0.12338324  1
  O  O321  1  0.50629590  0.51186941  0.62211684  1
  O  O322  1  0.24419452  0.39260921  0.24458236  1
  O  O323  1  0.27720876  0.39044614  0.73595053  1
  O  O324  1  0.25652402  0.88303681  0.23996387  1
  O  O325  1  0.20088363  0.92379750  0.68675996  1
  O  O326  1  0.73187864  0.35431906  0.24889073  1
  O  O327  1  0.72323121  0.37352151  0.76768279  1
  O  O328  1  0.74542121  0.88433694  0.24494362  1
  O  O329  1  0.74001739  0.89986426  0.75617967  1
  O  O330  1  0.26604186  0.10397261  0.23846660  1
  O  O331  1  0.25611925  0.13079656  0.75642412  1
  O  O332  1  0.25503721  0.61524214  0.25438482  1
  O  O333  1  0.26499606  0.63385537  0.76518990  1
  O  O334  1  0.76537008  0.12704205  0.24644413  1
  O  O335  1  0.76003115  0.12733275  0.76708700  1
  O  O336  1  0.76678672  0.62192865  0.25001401  1
  O  O337  1  0.75838641  0.62462206  0.76628334  1
  O  O338  1  0.37684836  0.10984883  0.37045784  1
  O  O339  1  0.36504131  0.11929881  0.85786052  1
  O  O340  1  0.36147211  0.63341278  0.38400165  1
  O  O341  1  0.37335989  0.62425524  0.87062018  1
  O  O342  1  0.87216584  0.13373715  0.36965694  1
  O  O343  1  0.85678365  0.13231071  0.88561206  1
  O  O344  1  0.87831505  0.61464787  0.36521779  1
  O  O345  1  0.85571201  0.62872738  0.88007652  1
  O  O346  1  0.14111662  0.37706627  0.13123803  1
  O  O347  1  0.15115131  0.37065064  0.62208935  1
  O  O348  1  0.13840354  0.87061364  0.12762460  1
  O  O349  1  0.08821706  0.86467906  0.63481989  1
  O  O350  1  0.61938689  0.37737699  0.14198574  1
  O  O351  1  0.61308630  0.38176962  0.63882631  1
  O  O352  1  0.62921640  0.88559354  0.12531224  1
  O  O353  1  0.62798776  0.87901378  0.63968873  1
  O  O354  1  0.09861052  0.27232451  0.23457103  1
  O  O355  1  0.17754107  0.27624225  0.75977663  1
  O  O356  1  0.12265030  0.74440460  0.25754440  1
  O  O357  1  0.12945680  0.75489718  0.75692324  1
  O  O358  1  0.60787298  0.24790760  0.25909923  1
  O  O359  1  0.60996511  0.25999261  0.76205310  1
  O  O360  1  0.61405009  0.74768094  0.26141673  1
  O  O361  1  0.64353647  0.75992932  0.74321854  1
  O  O362  1  0.38451163  0.23213501  0.25237004  1
  O  O363  1  0.37730698  0.24302016  0.74310160  1
  O  O364  1  0.38787690  0.75684740  0.24439987  1
  O  O365  1  0.38200173  0.74224130  0.73379977  1
  O  O366  1  0.88083334  0.24719423  0.25544735  1
  O  O367  1  0.86205088  0.25448737  0.76586937  1
  O  O368  1  0.87528893  0.74142198  0.25363120  1
  O  O369  1  0.86647978  0.74865333  0.75685592  1
  O  O370  1  0.37889296  0.48852388  0.49586717  1
  O  O371  1  0.38506291  0.49267864  0.99285131  1
  O  O372  1  0.38455047  0.98710911  0.49338864  1
  O  O373  1  0.36391223  0.98314457  1.00336576  1
  O  O374  1  0.90019206  0.50455206  0.48566397  1
  O  O375  1  0.83855467  0.48413874  1.00321201  1
  O  O376  1  0.84802052  0.98282256  0.49137487  1
  O  O377  1  0.88949850  1.01744116  0.99090446  1
  O  O378  1  0.11467414  0.01530739  0.00213053  1
  O  O379  1  0.12220455  -0.01061112  0.50023177  1
  O  O380  1  0.12985997  0.50841036  0.00232088  1
  O  O381  1  0.11693182  0.51724538  0.48386158  1
  O  O382  1  0.62145754  0.01315041  0.00743672  1
  O  O383  1  0.60969455  -0.00155674  0.49923964  1
  O  O384  1  0.61343681  0.48993220  0.01978966  1
  O  O385  1  0.62443841  0.49791379  0.51150554  1
  O  O386  1  0.36546028  0.38105741  0.11359902  1
  O  O387  1  0.37164068  0.37339158  0.60850514  1
  O  O388  1  0.36713916  0.86212499  0.12227980  1
  O  O389  1  0.38218740  0.86475482  0.61718930  1
  O  O390  1  0.84647237  0.37124544  0.13875436  1
  O  O391  1  0.87215587  0.38500458  0.60166882  1
  O  O392  1  0.85724681  0.86474578  0.12835144  1
  O  O393  1  0.89996685  0.87248083  0.60158618  1
  O  O394  1  0.13946855  0.11980223  0.37441607  1
  O  O395  1  0.13582453  0.11848663  0.86437860  1
  O  O396  1  0.13330795  0.63475992  0.37514180  1
  O  O397  1  0.13335828  0.63853392  0.86269959  1
  O  O398  1  0.60170236  0.13301640  0.38304137  1
  O  O399  1  0.62496733  0.12962137  0.88674858  1
  O  O400  1  0.61421717  0.63203592  0.38671871  1
  O  O401  1  0.64772146  0.62240887  0.85686041  1
