# generated using pymatgen
data_V73Zn73O256
_symmetry_space_group_name_H-M   'P 1'
_cell_length_a   16.86210491
_cell_length_b   16.88524049
_cell_length_c   16.88971641
_cell_angle_alpha   90.04455861
_cell_angle_beta   90.21964305
_cell_angle_gamma   90.03587271
_symmetry_Int_Tables_number   1
_chemical_formula_structural   V73Zn73O256
_chemical_formula_sum   'V73 Zn73 O256'
_cell_volume   4808.81407801
_cell_formula_units_Z   1
loop_
 _symmetry_equiv_pos_site_id
 _symmetry_equiv_pos_as_xyz
  1  'x, y, z'
loop_
 _atom_site_type_symbol
 _atom_site_label
 _atom_site_symmetry_multiplicity
 _atom_site_fract_x
 _atom_site_fract_y
 _atom_site_fract_z
 _atom_site_occupancy
  V  V0  1  0.88376192  0.24537445  0.63342966  1
  V  V1  1  0.12072106  0.86826814  0.74498239  1
  V  V2  1  0.37027754  0.84613555  0.50253026  1
  V  V3  1  0.63260196  0.87910525  0.74470703  1
  V  V4  1  0.12472145  0.15336165  0.47370502  1
  V  V5  1  0.00631540  0.61643486  0.12948511  1
  V  V6  1  0.86911007  0.75588474  0.12559969  1
  V  V7  1  0.63014977  0.11323081  0.51851557  1
  V  V8  1  0.24578277  0.49504814  0.74165145  1
  V  V9  1  0.73968175  0.74999646  -0.00104033  1
  V  V10  1  0.87657658  0.62032110  0.74044696  1
  V  V11  1  0.62021441  0.13627366  0.00425264  1
  V  V12  1  0.62322158  -0.00744800  0.13190704  1
  V  V13  1  0.50049790  0.85040560  0.36913020  1
  V  V14  1  0.12117354  0.61939268  0.00704113  1
  V  V15  1  0.74975311  0.25195421  0.50241178  1
  V  V16  1  0.22249793  0.01323694  0.76256361  1
  V  V17  1  0.48480589  -0.00059690  0.50638283  1
  V  V18  1  0.74573646  -0.00970877  0.24528101  1
  V  V19  1  -0.00187280  0.87749388  0.38602856  1
  V  V20  1  0.47860743  0.37035682  0.88755182  1
  V  V21  1  0.10432512  -0.00182526  0.60945167  1
  V  V22  1  0.10931355  0.49868728  0.61783564  1
  V  V23  1  0.87986980  0.24998450  0.12649549  1
  V  V24  1  0.50904079  0.86973940  0.88030170  1
  V  V25  1  0.74823381  0.39036228  0.12938366  1
  V  V26  1  0.02127244  0.24841430  0.75675636  1
  V  V27  1  0.85395072  0.49809961  0.37241227  1
  V  V28  1  0.50108145  0.62733053  0.61912135  1
  V  V29  1  0.12593409  0.36763046  0.24605661  1
  V  V30  1  0.62100670  0.36881460  0.76397596  1
  V  V31  1  0.38536101  0.11716180  0.72406484  1
  V  V32  1  0.27742195  0.62186736  0.39328899  1
  V  V33  1  0.87490605  0.12952468  0.24794402  1
  V  V34  1  0.61529343  0.49905143  0.61833309  1
  V  V35  1  0.02344081  0.37415458  0.87643428  1
  V  V36  1  0.24436147  0.50879425  0.23740828  1
  V  V37  1  0.49650065  0.24074489  0.74401612  1
  V  V38  1  0.88873730  0.37434458  -0.00141917  1
  V  V39  1  0.24887834  0.23005681  -0.02395064  1
  V  V40  1  0.87818728  -0.00227955  0.38199717  1
  V  V41  1  0.74821411  0.37713541  0.62781345  1
  V  V42  1  0.75156186  0.25288427  -0.00640571  1
  V  V43  1  0.25551636  0.86795732  0.62554055  1
  V  V44  1  0.88089329  0.38273066  0.50141714  1
  V  V45  1  -0.00839604  0.74280230  0.73928998  1
  V  V46  1  0.74519652  0.12767637  0.37398330  1
  V  V47  1  -0.00761733  0.87995126  0.87576501  1
  V  V48  1  0.50178689  0.00441558  0.00659890  1
  V  V49  1  0.39049541  0.40639924  0.48423848  1
  V  V50  1  0.85731183  0.61698675  0.24693265  1
  V  V51  1  0.35383255  0.12433099  0.26517967  1
  V  V52  1  0.25600197  0.36258445  0.11991146  1
  V  V53  1  0.49521168  0.62304982  0.10002042  1
  V  V54  1  0.38329561  0.00883764  0.86968597  1
  V  V55  1  0.08978187  0.62648575  0.50085582  1
  V  V56  1  0.37161474  0.63636819  0.74936013  1
  V  V57  1  0.88674664  0.50445697  0.88155685  1
  V  V58  1  0.86913454  0.88522085  0.00513545  1
  V  V59  1  0.60612660  0.37746329  0.25756490  1
  V  V60  1  0.37278090  0.63804978  0.22881206  1
  V  V61  1  -0.00084843  0.75318931  0.25285460  1
  V  V62  1  0.75704983  0.11425863  0.87808483  1
  V  V63  1  0.24704280  0.76659476  0.01325248  1
  V  V64  1  0.36877867  0.87847823  0.01001481  1
  V  V65  1  0.51053447  0.74485066  0.76028557  1
  V  V66  1  0.25244973  0.61863680  0.88486337  1
  V  V67  1  0.01293216  0.12320520  0.12830578  1
  V  V68  1  0.01637735  0.00460700  0.00184392  1
  V  V69  1  0.74757800  0.74793724  0.50160752  1
  V  V70  1  0.12399676  0.75493608  0.87754551  1
  V  V71  1  0.13112364  0.88654597  0.24329961  1
  V  V72  1  0.00643085  0.37612302  0.37012350  1
  Zn  Zn73  1  0.74602659  0.50158723  0.75617372  1
  Zn  Zn74  1  0.87864951  0.11616206  0.75679112  1
  Zn  Zn75  1  0.38145619  0.49897539  0.88256930  1
  Zn  Zn76  1  0.61739791  0.26080693  0.37786027  1
  Zn  Zn77  1  0.13327824  0.74746197  0.38330520  1
  Zn  Zn78  1  0.74558605  0.62049290  0.88557353  1
  Zn  Zn79  1  0.75666633  -0.01294958  0.75855545  1
  Zn  Zn80  1  0.25672705  0.36169580  0.60237661  1
  Zn  Zn81  1  0.38889818  0.24160821  0.12768862  1
  Zn  Zn82  1  0.19441751  0.18647020  0.20750098  1
  Zn  Zn83  1  0.19438122  0.17403052  0.63574569  1
  Zn  Zn84  1  0.18560126  0.70157664  0.19256917  1
  Zn  Zn85  1  0.18346199  0.67856976  0.68052868  1
  Zn  Zn86  1  0.68064431  0.19481655  0.18535728  1
  Zn  Zn87  1  0.69110275  0.19180815  0.69681311  1
  Zn  Zn88  1  0.69859823  0.63616370  0.12243682  1
  Zn  Zn89  1  0.68535393  0.68261605  0.69908981  1
  Zn  Zn90  1  0.33287339  0.32827181  0.29979865  1
  Zn  Zn91  1  0.26405010  0.27703979  0.77016682  1
  Zn  Zn92  1  0.31032271  0.80754433  0.31785823  1
  Zn  Zn93  1  0.31347681  0.81774832  0.81650417  1
  Zn  Zn94  1  0.80919013  0.31186522  0.31181128  1
  Zn  Zn95  1  0.81557943  0.31567412  0.81632561  1
  Zn  Zn96  1  0.81286464  0.81253902  0.30997249  1
  Zn  Zn97  1  0.81176014  0.80431330  0.82135451  1
  Zn  Zn98  1  0.19183220  0.45162100  0.43623072  1
  Zn  Zn99  1  0.21065637  0.44644529  0.94448407  1
  Zn  Zn100  1  0.18979579  0.93827851  0.43185688  1
  Zn  Zn101  1  0.19975130  1.04084924  0.93948005  1
  Zn  Zn102  1  0.63266040  0.48623979  0.40246736  1
  Zn  Zn103  1  0.69578937  0.43987323  0.94184958  1
  Zn  Zn104  1  0.64936636  0.95773318  0.40574967  1
  Zn  Zn105  1  0.68598051  0.93854626  0.94344983  1
  Zn  Zn106  1  0.30748504  0.06880956  0.08182937  1
  Zn  Zn107  1  0.29399430  0.04932926  0.55863109  1
  Zn  Zn108  1  0.33927895  0.53619050  0.06651285  1
  Zn  Zn109  1  0.32983806  0.54559913  0.56411330  1
  Zn  Zn110  1  0.80889902  0.06533757  0.06557121  1
  Zn  Zn111  1  0.81994238  0.06579503  0.56292414  1
  Zn  Zn112  1  0.82984174  0.56213629  0.05698935  1
  Zn  Zn113  1  0.80648222  0.55635046  0.56183183  1
  Zn  Zn114  1  0.43215490  0.44756024  0.18685669  1
  Zn  Zn115  1  0.43073400  0.43609730  0.69053495  1
  Zn  Zn116  1  0.42824515  0.94114035  0.19559360  1
  Zn  Zn117  1  0.44855533  0.93024836  0.68509477  1
  Zn  Zn118  1  0.93898045  0.43676551  0.19110830  1
  Zn  Zn119  1  0.94180675  0.43124217  0.69652418  1
  Zn  Zn120  1  0.94212659  0.94215946  0.18967824  1
  Zn  Zn121  1  0.93273703  0.93839902  0.68905663  1
  Zn  Zn122  1  0.06639729  0.06614283  0.31648250  1
  Zn  Zn123  1  0.05083605  0.05918188  0.80526594  1
  Zn  Zn124  1  0.05867573  0.55130842  0.31707808  1
  Zn  Zn125  1  0.07020738  0.56048643  0.81286637  1
  Zn  Zn126  1  0.52368142  0.05018974  0.30774596  1
  Zn  Zn127  1  0.57258026  0.06221635  0.81714195  1
  Zn  Zn128  1  0.58265703  0.57387450  0.25323891  1
  Zn  Zn129  1  0.55693675  0.55039144  0.81127299  1
  Zn  Zn130  1  0.44045041  0.16765003  0.43825779  1
  Zn  Zn131  1  0.43251065  0.20025087  0.93879344  1
  Zn  Zn132  1  0.48583709  0.63403357  0.40185151  1
  Zn  Zn133  1  0.43221828  0.69417895  0.94042077  1
  Zn  Zn134  1  0.94296925  0.19094561  0.43897204  1
  Zn  Zn135  1  0.94525909  0.18927393  0.93759807  1
  Zn  Zn136  1  0.93240983  0.68110888  0.42697292  1
  Zn  Zn137  1  0.93920308  0.69401822  0.94211402  1
  Zn  Zn138  1  0.07511229  0.30271200  0.05952022  1
  Zn  Zn139  1  0.06499758  0.31771403  0.56353344  1
  Zn  Zn140  1  0.05677081  0.81665255  0.06598532  1
  Zn  Zn141  1  0.06193349  0.80894629  0.56141572  1
  Zn  Zn142  1  0.55916027  0.31827095  0.07125271  1
  Zn  Zn143  1  0.55872146  0.31191160  0.56317279  1
  Zn  Zn144  1  0.55494516  0.81108684  0.07486815  1
  Zn  Zn145  1  0.55370292  0.81433714  0.56875244  1
  O  O146  1  0.11021399  0.13244851  0.13893803  1
  O  O147  1  0.11112926  0.09642629  0.63997279  1
  O  O148  1  0.11487115  0.63699687  0.11828549  1
  O  O149  1  0.12079498  0.61723598  0.60944870  1
  O  O150  1  0.63402394  0.11799822  0.11046732  1
  O  O151  1  0.64038970  0.12612656  0.61702687  1
  O  O152  1  0.59518132  0.59993333  0.13865074  1
  O  O153  1  0.61666264  0.60867130  0.63912513  1
  O  O154  1  0.37704210  0.38236823  0.38375491  1
  O  O155  1  0.37836458  0.37397950  0.88560323  1
  O  O156  1  0.37468795  0.86143434  0.39741421  1
  O  O157  1  0.39145463  0.88384743  0.87915655  1
  O  O158  1  0.87035165  0.38548867  0.38144473  1
  O  O159  1  0.88463155  0.38339038  0.88301955  1
  O  O160  1  0.88014282  0.88993940  0.36754298  1
  O  O161  1  0.88445555  0.86783473  0.89023256  1
  O  O162  1  0.27331175  -0.02480376  0.37007256  1
  O  O163  1  0.27926769  -0.01115759  0.86275755  1
  O  O164  1  0.24001011  0.52675758  0.35873105  1
  O  O165  1  0.21201625  0.52327671  0.84954417  1
  O  O166  1  0.75459411  0.00728769  0.36237147  1
  O  O167  1  0.75315207  0.01113947  0.88307061  1
  O  O168  1  0.75498280  0.49768315  0.37185646  1
  O  O169  1  0.77417184  0.49896720  0.87459954  1
  O  O170  1  0.24968931  0.48334125  0.13175165  1
  O  O171  1  0.24764752  0.50696622  0.63728312  1
  O  O172  1  0.24898752  0.97779266  0.09964205  1
  O  O173  1  0.23176381  0.98569008  0.63935814  1
  O  O174  1  0.75724696  0.49054721  0.11100874  1
  O  O175  1  0.74030584  0.49155008  0.63164693  1
  O  O176  1  0.73966242  1.00344361  0.13710103  1
  O  O177  1  0.77891972  0.96426703  0.61672129  1
  O  O178  1  0.01351446  0.37830272  0.25628670  1
  O  O179  1  0.00517105  0.36333296  0.76640534  1
  O  O180  1  0.00100255  0.86832545  0.25780646  1
  O  O181  1  -0.00402573  0.86044330  0.75599670  1
  O  O182  1  0.50703662  0.37823701  0.23638398  1
  O  O183  1  0.50730214  0.36559698  0.75679762  1
  O  O184  1  0.47812702  0.87193796  0.27181868  1
  O  O185  1  0.51220591  0.86529704  0.75944476  1
  O  O186  1  0.50848902  0.16763507  0.28859398  1
  O  O187  1  0.50309548  0.13278753  0.75391611  1
  O  O188  1  0.47327488  0.61522060  0.23476113  1
  O  O189  1  0.49312656  0.63102724  0.75774085  1
  O  O190  1  0.98771839  0.11412024  0.23647347  1
  O  O191  1  0.99148132  0.14547013  0.76546349  1
  O  O192  1  0.99715939  0.63308518  0.24120825  1
  O  O193  1  0.99090300  0.63437687  0.75649192  1
  O  O194  1  0.35373944  0.24141664  0.00980099  1
  O  O195  1  0.35038809  0.24179278  0.48846032  1
  O  O196  1  0.35884197  0.76666844  -0.00495532  1
  O  O197  1  0.37256742  0.75193175  0.51446158  1
  O  O198  1  0.87240165  0.25777412  0.00542164  1
  O  O199  1  0.87138524  0.25751479  0.51492917  1
  O  O200  1  0.87322731  0.76159016  0.00967900  1
  O  O201  1  0.85227103  0.74235776  0.50267294  1
  O  O202  1  0.12724577  0.25415451  0.49334698  1
  O  O203  1  0.14875757  0.24577381  0.99706751  1
  O  O204  1  0.11726432  0.73156893  0.50025346  1
  O  O205  1  0.13096116  0.76419415  0.99211458  1
  O  O206  1  0.63574945  0.24191275  0.49954793  1
  O  O207  1  0.63606090  0.24036768  1.00739983  1
  O  O208  1  0.64365953  0.75308016  0.50160392  1
  O  O209  1  0.64212248  0.76059171  1.01227663  1
  O  O210  1  0.50162282  0.24026733  0.12090159  1
  O  O211  1  0.50218157  0.25172970  0.64457455  1
  O  O212  1  0.49743233  0.72633198  0.11763952  1
  O  O213  1  0.51029963  0.73363325  0.64278179  1
  O  O214  1  0.99050761  0.23379695  0.11314334  1
  O  O215  1  0.99104326  0.26328998  0.64117918  1
  O  O216  1  0.98869812  0.74635444  0.13584130  1
  O  O217  1  0.99451503  0.75405545  0.64111232  1
  O  O218  1  -0.01760762  0.27665728  0.37290350  1
  O  O219  1  0.00544410  0.26218223  0.86915034  1
  O  O220  1  -0.01716813  0.76383375  0.36532280  1
  O  O221  1  0.00668336  0.76017174  0.87397332  1
  O  O222  1  0.50832457  0.21687111  0.35378153  1
  O  O223  1  0.49403736  0.26181171  0.86117465  1
  O  O224  1  0.49233007  0.75087625  0.38171384  1
  O  O225  1  0.49805262  0.75913541  0.87222241  1
  O  O226  1  0.21737351  0.12683394  0.52641944  1
  O  O227  1  0.25197109  0.12372390  0.99462343  1
  O  O228  1  0.26992110  0.61589208  0.49273655  1
  O  O229  1  0.23025172  0.65151115  0.99639855  1
  O  O230  1  0.74893807  0.13389323  0.49756564  1
  O  O231  1  0.74603725  0.13339515  0.99512675  1
  O  O232  1  0.74500851  0.64219945  0.49819422  1
  O  O233  1  0.75251547  0.63822386  1.01336425  1
  O  O234  1  0.24861842  0.36560216  0.01667993  1
  O  O235  1  0.27355402  0.39977918  0.49462150  1
  O  O236  1  0.26123790  0.87404770  -0.00659857  1
  O  O237  1  0.25775229  0.87325898  0.51683457  1
  O  O238  1  0.76379190  0.37063984  0.00721964  1
  O  O239  1  0.76018441  0.36507891  0.51391845  1
  O  O240  1  0.76291764  0.86565173  -0.00444516  1
  O  O241  1  0.75532709  0.85046620  0.51177876  1
  O  O242  1  0.13484728  0.49288974  0.25012245  1
  O  O243  1  0.13233494  0.51502135  0.72747152  1
  O  O244  1  0.11922280  0.98573988  0.25698117  1
  O  O245  1  0.10840751  0.97701341  0.73560710  1
  O  O246  1  0.63913245  0.47296382  0.24673141  1
  O  O247  1  0.62732357  0.48299715  0.74373705  1
  O  O248  1  0.63056476  1.01052842  0.24122846  1
  O  O249  1  0.63368160  0.98537993  0.75394638  1
  O  O250  1  0.42057253  0.03535612  0.25515591  1
  O  O251  1  0.40076248  0.00785878  0.75908523  1
  O  O252  1  0.35154025  0.51111598  0.24786280  1
  O  O253  1  0.35865360  0.51303333  0.75915399  1
  O  O254  1  0.86106289  0.00934542  0.25047125  1
  O  O255  1  0.86811240  0.00345326  0.74973840  1
  O  O256  1  0.87196493  0.51034458  0.25342816  1
  O  O257  1  0.87986966  0.50905102  0.76194450  1
  O  O258  1  0.11054568  0.38772958  0.37316875  1
  O  O259  1  0.12066594  0.38525959  0.88676473  1
  O  O260  1  0.10753221  0.87019823  0.37177131  1
  O  O261  1  0.11105079  0.86774161  0.85957915  1
  O  O262  1  0.61289495  0.37822746  0.36548499  1
  O  O263  1  0.63075289  0.37790117  0.86367839  1
  O  O264  1  0.60517388  0.86015525  0.37595304  1
  O  O265  1  0.61414199  0.87919414  0.87452276  1
  O  O266  1  0.37501734  0.12649518  0.14542903  1
  O  O267  1  0.38621476  0.10965896  0.62633439  1
  O  O268  1  0.36886301  0.63711815  0.12294718  1
  O  O269  1  0.39261160  0.61571635  0.64006329  1
  O  O270  1  0.87755639  0.13259486  0.13059593  1
  O  O271  1  0.87433577  0.14251773  0.62799349  1
  O  O272  1  0.88780024  0.63226722  0.13280598  1
  O  O273  1  0.87026489  0.61341848  0.64206341  1
  O  O274  1  0.24374445  0.25998925  0.13145716  1
  O  O275  1  0.25060904  0.26433380  0.65944281  1
  O  O276  1  0.24092363  0.76244377  0.11108040  1
  O  O277  1  0.24416812  0.77025975  0.64524125  1
  O  O278  1  0.76528165  0.25759307  0.11327223  1
  O  O279  1  0.75972846  0.25779147  0.62194827  1
  O  O280  1  0.76364223  0.74659231  0.11709516  1
  O  O281  1  0.74543389  0.73922417  0.60621830  1
  O  O282  1  0.29062444  0.24565145  0.44393575  1
  O  O283  1  0.25645716  0.24244669  0.87642416  1
  O  O284  1  0.24449493  0.71983060  0.36717848  1
  O  O285  1  0.23750166  0.74522452  0.87652332  1
  O  O286  1  0.75809078  0.24331215  0.38941532  1
  O  O287  1  0.75450249  0.24841292  0.88938587  1
  O  O288  1  0.74897097  0.75315388  0.39784539  1
  O  O289  1  0.75377649  0.73792565  0.89527620  1
  O  O290  1  -0.00043114  0.11230446  0.00753740  1
  O  O291  1  0.02456840  0.13088018  0.49138038  1
  O  O292  1  0.01057514  0.63594198  0.01555043  1
  O  O293  1  -0.01061186  0.62652589  0.50729248  1
  O  O294  1  0.51444325  0.12001436  -0.00851246  1
  O  O295  1  0.51797207  0.10981884  0.50152351  1
  O  O296  1  0.49736227  0.62391908  -0.00166956  1
  O  O297  1  0.50184193  0.63418542  0.52169288  1
  O  O298  1  0.48141422  0.35378086  0.49576446  1
  O  O299  1  0.50892169  0.36778225  0.98387614  1
  O  O300  1  0.48310363  0.87333572  0.49920977  1
  O  O301  1  0.49257934  0.88096803  0.99773439  1
  O  O302  1  0.98580799  0.37564473  0.49274460  1
  O  O303  1  0.99796039  0.36340785  0.98882490  1
  O  O304  1  0.99497765  0.86567649  0.48438144  1
  O  O305  1  0.99119648  0.88745792  0.99659437  1
  O  O306  1  0.57626147  0.57650950  0.36586109  1
  O  O307  1  0.49233234  0.47715563  0.86694568  1
  O  O308  1  0.52107542  0.98289560  0.40136481  1
  O  O309  1  0.50098994  0.99302501  0.88775899  1
  O  O310  1  0.97756106  0.48403808  0.36825754  1
  O  O311  1  0.99668774  0.48577169  0.86830929  1
  O  O312  1  0.98675791  0.99096443  0.36933320  1
  O  O313  1  1.00127451  0.99199930  0.88885281  1
  O  O314  1  -0.00326465  0.01162152  0.11285108  1
  O  O315  1  0.00481251  -0.02438325  0.61238543  1
  O  O316  1  -0.00172492  0.51768981  0.12966752  1
  O  O317  1  0.00975586  0.49217582  0.62782722  1
  O  O318  1  0.51124671  0.00092072  0.11536714  1
  O  O319  1  0.50967706  -0.01668780  0.60331674  1
  O  O320  1  0.45197947  0.51660132  0.09987571  1
  O  O321  1  0.50998749  0.50863419  0.63512520  1
  O  O322  1  0.24035679  0.38725786  0.25001300  1
  O  O323  1  0.25036129  0.39754677  0.75953486  1
  O  O324  1  0.22953800  0.86511380  0.26089586  1
  O  O325  1  0.23666949  0.88760808  0.75067852  1
  O  O326  1  0.77279003  0.37879924  0.22704780  1
  O  O327  1  0.73998362  0.37053521  0.74295646  1
  O  O328  1  0.74997051  0.89147182  0.25426897  1
  O  O329  1  0.73674061  0.86629203  0.76369315  1
  O  O330  1  0.25562029  0.10155906  0.24935790  1
  O  O331  1  0.27745439  0.10515483  0.73555305  1
  O  O332  1  0.25153225  0.61739975  0.23261963  1
  O  O333  1  0.25742034  0.62941136  0.75774939  1
  O  O334  1  0.75706825  0.12323993  0.25691442  1
  O  O335  1  0.74819604  0.12535636  0.77065978  1
  O  O336  1  0.75990876  0.62417665  0.22879281  1
  O  O337  1  0.76506881  0.62451181  0.76192623  1
  O  O338  1  0.36337893  0.12548204  0.36873323  1
  O  O339  1  0.38732205  0.10902272  0.87386815  1
  O  O340  1  0.37515838  0.62427632  0.36121624  1
  O  O341  1  0.36289483  0.63159269  0.86758922  1
  O  O342  1  0.87089308  0.11764427  0.36695657  1
  O  O343  1  0.86071083  0.13172671  0.88173211  1
  O  O344  1  0.86976545  0.61348694  0.35731604  1
  O  O345  1  0.88444562  0.61072541  0.88044796  1
  O  O346  1  0.12978988  0.36936554  0.13989261  1
  O  O347  1  0.13645645  0.39585222  0.60974489  1
  O  O348  1  0.11514304  0.87208515  0.14404504  1
  O  O349  1  0.13041351  0.87441846  0.62921101  1
  O  O350  1  0.64572371  0.37061919  0.12823959  1
  O  O351  1  0.62985382  0.38093885  0.63262342  1
  O  O352  1  0.62175848  0.89298434  0.12578867  1
  O  O353  1  0.62279615  0.86636683  0.64556507  1
  O  O354  1  0.13648089  0.26974968  0.26428174  1
  O  O355  1  0.11754050  0.24214523  0.75026164  1
  O  O356  1  0.10905033  0.75514253  0.26014593  1
  O  O357  1  0.10974566  0.75006488  0.75604191  1
  O  O358  1  0.64702468  0.27321051  0.25901081  1
  O  O359  1  0.61672781  0.26143302  0.75066858  1
  O  O360  1  0.64266441  0.76296559  0.23481144  1
  O  O361  1  0.61806713  0.75350743  0.76036001  1
  O  O362  1  0.35801783  0.23228136  0.25100631  1
  O  O363  1  0.38610341  0.22424801  0.74828549  1
  O  O364  1  0.36408117  0.73647718  0.24575129  1
  O  O365  1  0.38649715  0.74391421  0.75531352  1
  O  O366  1  0.87161904  0.24004911  0.23954429  1
  O  O367  1  0.87343962  0.25276283  0.73841043  1
  O  O368  1  0.87635170  0.73895075  0.24555225  1
  O  O369  1  0.88314630  0.73481556  0.75894021  1
  O  O370  1  0.40728304  0.50659516  0.48604286  1
  O  O371  1  0.30290210  0.52494527  0.95983287  1
  O  O372  1  0.38348324  1.00401558  0.50171228  1
  O  O373  1  0.38570913  0.99330679  0.98811417  1
  O  O374  1  0.86410107  0.49485828  0.48570148  1
  O  O375  1  0.88764133  0.49025803  0.98990483  1
  O  O376  1  0.87149034  1.00697188  0.48005505  1
  O  O377  1  0.87313407  0.98731025  1.00716738  1
  O  O378  1  0.11460358  -0.00453377  0.00157671  1
  O  O379  1  0.12580454  -0.00770333  0.50933271  1
  O  O380  1  0.13016925  0.52244843  0.00134239  1
  O  O381  1  0.12134801  0.51645984  0.50752321  1
  O  O382  1  0.62158645  0.00781390  0.01280893  1
  O  O383  1  0.64448864  0.01329751  0.50657308  1
  O  O384  1  0.62729581  0.53194540  -0.03697181  1
  O  O385  1  0.62614029  0.49453402  0.51979852  1
  O  O386  1  0.35840216  0.36388275  0.14139775  1
  O  O387  1  0.37186462  0.39564154  0.60370481  1
  O  O388  1  0.38002105  0.88441698  0.10884254  1
  O  O389  1  0.36252813  0.87984881  0.62305035  1
  O  O390  1  0.88089159  0.36923158  0.11433113  1
  O  O391  1  0.86826391  0.37295701  0.62246652  1
  O  O392  1  0.88157237  0.86982115  0.11482091  1
  O  O393  1  0.83398041  0.91053161  0.61490673  1
  O  O394  1  0.13540745  0.13432849  0.37390347  1
  O  O395  1  0.16128570  0.06957917  0.83346753  1
  O  O396  1  0.10580676  0.62439381  0.39341235  1
  O  O397  1  0.12050958  0.63897541  0.89082261  1
  O  O398  1  0.64269019  0.12469553  0.38753057  1
  O  O399  1  0.64034959  0.12096765  0.89463551  1
  O  O400  1  0.61990750  0.71496256  0.28465249  1
  O  O401  1  0.63206832  0.58365694  0.89928272  1
