# generated using pymatgen
data_V73Zn73O256
_symmetry_space_group_name_H-M   'P 1'
_cell_length_a   16.84530547
_cell_length_b   16.86437809
_cell_length_c   16.83124245
_cell_angle_alpha   90.13882899
_cell_angle_beta   89.99721990
_cell_angle_gamma   90.04336177
_symmetry_Int_Tables_number   1
_chemical_formula_structural   V73Zn73O256
_chemical_formula_sum   'V73 Zn73 O256'
_cell_volume   4781.49820756
_cell_formula_units_Z   1
loop_
 _symmetry_equiv_pos_site_id
 _symmetry_equiv_pos_as_xyz
  1  'x, y, z'
loop_
 _atom_site_type_symbol
 _atom_site_label
 _atom_site_symmetry_multiplicity
 _atom_site_fract_x
 _atom_site_fract_y
 _atom_site_fract_z
 _atom_site_occupancy
  V  V0  1  0.77518744  0.37227183  0.61699976  1
  V  V1  1  0.12675878  0.63487504  0.50979943  1
  V  V2  1  0.00366213  0.76011395  0.24925305  1
  V  V3  1  0.24872792  0.62892236  0.37533153  1
  V  V4  1  0.51053881  0.36462131  0.86108480  1
  V  V5  1  0.62318148  0.49239816  0.63614376  1
  V  V6  1  0.85736687  0.00943709  0.38058727  1
  V  V7  1  -0.00117560  0.73701774  0.74657923  1
  V  V8  1  0.24224934  0.25075814  0.50405268  1
  V  V9  1  0.63739710  0.62709965  -0.00930833  1
  V  V10  1  0.75271367  0.00231467  0.23221480  1
  V  V11  1  0.24187940  -0.00398832  0.24810063  1
  V  V12  1  0.24316638  0.12180734  0.37991626  1
  V  V13  1  0.24621452  0.50200875  0.24972695  1
  V  V14  1  0.14024536  0.00711206  0.63058648  1
  V  V15  1  0.12744763  0.75848731  0.37345045  1
  V  V16  1  0.87453645  0.35885658  -0.00190521  1
  V  V17  1  -0.00759072  0.37478173  0.38378415  1
  V  V18  1  0.24770070  0.48096471  0.75108267  1
  V  V19  1  0.74092102  0.00063514  0.74630049  1
  V  V20  1  -0.00627419  0.50579848  0.50987975  1
  V  V21  1  0.24440263  0.12035899  0.87495236  1
  V  V22  1  0.12716830  0.13025128  0.02001830  1
  V  V23  1  0.13252916  0.48436923  0.62356986  1
  V  V24  1  0.87175334  0.50961345  0.36832071  1
  V  V25  1  0.36984287  0.49904489  0.37354296  1
  V  V26  1  0.86862574  0.75109849  0.13036613  1
  V  V27  1  0.87390048  0.00381220  0.86310141  1
  V  V28  1  -0.00070738  0.62269791  0.13134147  1
  V  V29  1  0.36750391  0.37764478  0.01311408  1
  V  V30  1  0.37420823  0.50184439  0.87530200  1
  V  V31  1  0.24779082  0.74894027  -0.00956265  1
  V  V32  1  0.50364764  0.76229188  0.76045361  1
  V  V33  1  0.63945967  0.37417925  0.24169743  1
  V  V34  1  0.87270030  0.87329724  -0.00238462  1
  V  V35  1  0.38488080  0.12150545  0.25253852  1
  V  V36  1  0.12645712  0.62834030  -0.00952193  1
  V  V37  1  0.62578288  0.86858623  0.22750837  1
  V  V38  1  0.12947757  0.25624962  0.85729589  1
  V  V39  1  0.38447411  0.74277544  0.13744594  1
  V  V40  1  0.38592582  -0.00275091  0.87748386  1
  V  V41  1  0.64890815  0.14376937  -0.00707463  1
  V  V42  1  0.39248899  -0.00230434  0.38124408  1
  V  V43  1  0.38372346  0.88166177  0.00509012  1
  V  V44  1  0.75300104  0.50273653  0.22755319  1
  V  V45  1  0.50493221  0.49855684  0.49386219  1
  V  V46  1  0.50438531  0.11036719  0.62301996  1
  V  V47  1  0.38195494  0.25768915  0.63062790  1
  V  V48  1  0.50459626  0.63127766  0.62076529  1
  V  V49  1  0.37217268  0.87485115  0.50788293  1
  V  V50  1  0.50539295  0.11391521  0.11755874  1
  V  V51  1  0.36303549  0.62618046  0.74980764  1
  V  V52  1  0.01137907  0.38666516  0.86927521  1
  V  V53  1  0.12444748  0.49844464  0.12269572  1
  V  V54  1  0.23668041  0.87368349  0.13152261  1
  V  V55  1  0.74938434  0.87492111  0.62120797  1
  V  V56  1  0.74212302  0.74298592  0.49353574  1
  V  V57  1  0.87948864  0.73836050  0.62048872  1
  V  V58  1  0.75651076  0.74636282  -0.02649420  1
  V  V59  1  0.87343549  0.51298811  0.87686051  1
  V  V60  1  0.37348462  0.37220638  0.49073890  1
  V  V61  1  0.12002364  0.37731893  0.24778538  1
  V  V62  1  0.63906297  0.25399576  0.38798120  1
  V  V63  1  0.37847920  0.12437446  0.75318532  1
  V  V64  1  0.00964275  0.87354585  0.86538853  1
  V  V65  1  0.50183292  0.26054830  0.25942453  1
  V  V66  1  0.51526796  0.50073506  0.00026427  1
  V  V67  1  0.35453336  0.74943100  0.61820809  1
  V  V68  1  -0.01259820  0.87541962  0.38554853  1
  V  V69  1  0.00510131  0.01208039  0.50654638  1
  V  V70  1  0.00520566  0.00732630  0.01100810  1
  V  V71  1  -0.00888836  0.24330823  0.23834400  1
  V  V72  1  0.62707616  0.10784840  0.49788299  1
  Zn  Zn73  1  0.75668235  0.51772414  0.75104245  1
  Zn  Zn74  1  0.12088710  0.24779315  0.37826235  1
  Zn  Zn75  1  0.50203483  0.85933782  0.36928409  1
  Zn  Zn76  1  0.50792707  0.62928193  0.13478598  1
  Zn  Zn77  1  0.14068376  0.87470007  0.74499471  1
  Zn  Zn78  1  0.74145041  0.62435794  0.37054508  1
  Zn  Zn79  1  0.60923675  0.73877041  0.36259327  1
  Zn  Zn80  1  0.36747813  0.25238262  0.12400713  1
  Zn  Zn81  1  0.56771761  -0.07005912  0.69058674  1
  Zn  Zn82  1  0.19080761  0.19636643  0.19311163  1
  Zn  Zn83  1  0.19100694  0.18052915  0.68510108  1
  Zn  Zn84  1  0.18834212  0.68852249  0.18828182  1
  Zn  Zn85  1  0.17951751  0.68848062  0.69542702  1
  Zn  Zn86  1  0.67678766  0.17640233  0.19495057  1
  Zn  Zn87  1  0.71630250  0.17364031  0.64657416  1
  Zn  Zn88  1  0.68391934  0.68222147  0.17912244  1
  Zn  Zn89  1  0.68632375  0.69207814  0.68906448  1
  Zn  Zn90  1  0.30316440  0.30635379  0.29545464  1
  Zn  Zn91  1  0.31576428  0.30840636  0.82316808  1
  Zn  Zn92  1  0.31488601  0.81282294  0.31648833  1
  Zn  Zn93  1  0.32650853  0.80905662  0.81672538  1
  Zn  Zn94  1  0.81333186  0.31359857  0.31842786  1
  Zn  Zn95  1  0.82482587  0.35650638  0.79381284  1
  Zn  Zn96  1  0.80460010  0.81773041  0.30875443  1
  Zn  Zn97  1  0.81778400  0.81956740  0.80062620  1
  Zn  Zn98  1  0.18397690  0.43561719  0.43767508  1
  Zn  Zn99  1  0.18881400  0.44025156  0.93997288  1
  Zn  Zn100  1  0.18770787  0.93707687  0.44466089  1
  Zn  Zn101  1  0.18996382  0.94021662  0.94051279  1
  Zn  Zn102  1  0.68840435  0.43285214  0.43732427  1
  Zn  Zn103  1  0.69455955  0.42670423  0.93271310  1
  Zn  Zn104  1  0.67938034  0.92009719  0.43789764  1
  Zn  Zn105  1  0.67152628  0.95905518  0.92385597  1
  Zn  Zn106  1  0.31110405  0.06478609  0.06519858  1
  Zn  Zn107  1  0.31938133  0.06730682  0.55921094  1
  Zn  Zn108  1  0.31139890  0.56170190  0.06273309  1
  Zn  Zn109  1  0.30894218  0.56212681  0.56106537  1
  Zn  Zn110  1  0.78289293  0.04902638  0.03172180  1
  Zn  Zn111  1  0.81679962  0.05778020  0.55527520  1
  Zn  Zn112  1  0.82421824  0.55945703  0.04750624  1
  Zn  Zn113  1  0.80880248  0.56520179  0.56404318  1
  Zn  Zn114  1  0.44995496  0.45864385  0.19503978  1
  Zn  Zn115  1  0.43622277  0.43844363  0.68336334  1
  Zn  Zn116  1  0.43960208  0.93095563  0.18763129  1
  Zn  Zn117  1  0.31092694  0.93766354  0.69472372  1
  Zn  Zn118  1  0.93459510  0.43026088  0.18342587  1
  Zn  Zn119  1  0.94378663  0.44137416  0.69383259  1
  Zn  Zn120  1  0.92938783  0.93757466  0.19090760  1
  Zn  Zn121  1  0.93343795  0.93277790  0.67806329  1
  Zn  Zn122  1  0.06072473  0.05463163  0.30951168  1
  Zn  Zn123  1  0.05456507  0.06796987  0.80402996  1
  Zn  Zn124  1  0.05996196  0.56834038  0.31469996  1
  Zn  Zn125  1  0.06660462  0.56189638  0.80758740  1
  Zn  Zn126  1  0.57823863  0.05971328  0.30913165  1
  Zn  Zn127  1  0.56358540  0.07449074  0.81521736  1
  Zn  Zn128  1  0.56287930  0.56739166  0.30468327  1
  Zn  Zn129  1  0.55566587  0.57054345  0.81315896  1
  Zn  Zn130  1  0.44427355  0.18746386  0.43852796  1
  Zn  Zn131  1  0.43661619  0.19481811  0.93999303  1
  Zn  Zn132  1  0.43619058  0.68517126  0.43647232  1
  Zn  Zn133  1  0.43573348  0.68574641  0.94323471  1
  Zn  Zn134  1  0.95258519  0.16485867  0.39388646  1
  Zn  Zn135  1  0.92155440  0.20226120  0.87435590  1
  Zn  Zn136  1  0.93690324  0.68765457  0.43928676  1
  Zn  Zn137  1  0.94932312  0.69142838  0.93861017  1
  Zn  Zn138  1  0.04556003  0.30508068  0.05411427  1
  Zn  Zn139  1  0.05176986  0.30789571  0.56332150  1
  Zn  Zn140  1  0.05972095  0.81335460  0.05875036  1
  Zn  Zn141  1  0.06533515  0.82065992  0.56888861  1
  Zn  Zn142  1  0.55087571  0.31150497  0.06364832  1
  Zn  Zn143  1  0.56021175  0.31359575  0.56354618  1
  Zn  Zn144  1  0.59512945  0.84618144  0.01943621  1
  Zn  Zn145  1  0.56052082  0.81368284  0.55313150  1
  O  O146  1  0.13654071  0.12732358  0.12014103  1
  O  O147  1  0.12777493  0.10936716  0.62255247  1
  O  O148  1  0.11695357  0.61889528  0.12370480  1
  O  O149  1  0.12907802  0.61963771  0.61194031  1
  O  O150  1  0.61118698  0.12962204  0.11327135  1
  O  O151  1  0.60662508  0.13439933  0.62303577  1
  O  O152  1  0.62070911  0.62906442  0.10034408  1
  O  O153  1  0.60631809  0.61990140  0.62219515  1
  O  O154  1  0.36588864  0.38288483  0.38216909  1
  O  O155  1  0.37830611  0.38685210  0.88454934  1
  O  O156  1  0.37988769  0.88871657  0.37569706  1
  O  O157  1  0.37289544  0.88866340  0.89046534  1
  O  O158  1  0.88721499  0.38781224  0.37765374  1
  O  O159  1  0.89494095  0.38571673  0.87859610  1
  O  O160  1  0.88605290  0.87423681  0.37723250  1
  O  O161  1  0.88553763  0.87927600  0.88068007  1
  O  O162  1  0.25633156  0.00753784  0.36980465  1
  O  O163  1  0.25598693  0.01495854  0.87903142  1
  O  O164  1  0.24929057  0.50850183  0.37208549  1
  O  O165  1  0.25544095  0.49740370  0.85853770  1
  O  O166  1  0.75914321  -0.01138791  0.38628168  1
  O  O167  1  0.76167221  -0.01394193  0.85566173  1
  O  O168  1  0.76666635  0.50016487  0.37955703  1
  O  O169  1  0.76802549  0.49551776  0.87168316  1
  O  O170  1  0.23752399  0.50736700  0.13815987  1
  O  O171  1  0.24082193  0.49652890  0.63146353  1
  O  O172  1  0.25705602  0.98897733  0.13915199  1
  O  O173  1  0.24772032  1.00348719  0.62247141  1
  O  O174  1  0.76144127  0.50113534  0.12905483  1
  O  O175  1  0.72716771  0.50579102  0.61698277  1
  O  O176  1  0.77974232  1.00012335  0.13579639  1
  O  O177  1  0.76034823  0.98351091  0.62996682  1
  O  O178  1  0.00271964  0.36800152  0.26204471  1
  O  O179  1  0.00221660  0.37352837  0.76643361  1
  O  O180  1  -0.00231805  0.86664199  0.26143572  1
  O  O181  1  -0.00076216  0.87764785  0.76084376  1
  O  O182  1  0.50880491  0.36398600  0.25254145  1
  O  O183  1  0.49169003  0.38114942  0.76166701  1
  O  O184  1  0.52007477  0.88187341  0.25003185  1
  O  O185  1  0.49302196  0.86170063  0.74252151  1
  O  O186  1  0.49992896  0.12726517  0.24489779  1
  O  O187  1  0.48765240  0.12615189  0.74210105  1
  O  O188  1  0.48691026  0.56606588  0.22610717  1
  O  O189  1  0.48286337  0.62540543  0.73384289  1
  O  O190  1  1.00035550  0.14597727  0.28036573  1
  O  O191  1  0.97686912  0.14491545  0.78739388  1
  O  O192  1  1.00175470  0.63901952  0.23908994  1
  O  O193  1  1.00434062  0.63766863  0.75003364  1
  O  O194  1  0.37746998  0.27159401  0.00750558  1
  O  O195  1  0.37097493  0.25575410  0.50402526  1
  O  O196  1  0.36303039  0.76068567  0.00808254  1
  O  O197  1  0.37205014  0.75457542  0.51248848  1
  O  O198  1  0.89269536  0.26024319  -0.02628728  1
  O  O199  1  0.92075770  0.20141706  0.58039249  1
  O  O200  1  0.87157310  0.75249246  0.00382181  1
  O  O201  1  0.87174485  0.74669483  0.51292220  1
  O  O202  1  0.13843693  0.25380139  0.50124085  1
  O  O203  1  0.12040696  0.23110445  0.99889703  1
  O  O204  1  0.11639600  0.73895291  0.49623816  1
  O  O205  1  0.13794818  0.74367698  1.00445178  1
  O  O206  1  0.62138248  0.25003725  0.49045341  1
  O  O207  1  0.61552356  0.24084185  1.00479914  1
  O  O208  1  0.63920497  0.74768405  0.49641563  1
  O  O209  1  0.65076589  0.74212102  0.99679334  1
  O  O210  1  0.49108447  0.24187084  0.14608240  1
  O  O211  1  0.48432279  0.24538412  0.62182351  1
  O  O212  1  0.48446306  0.74709826  0.12199485  1
  O  O213  1  0.49269903  0.73752695  0.62425424  1
  O  O214  1  1.00152631  0.24020883  0.13935221  1
  O  O215  1  0.98079924  0.23663113  0.62321176  1
  O  O216  1  0.99859806  0.74555054  0.13311897  1
  O  O217  1  0.98871990  0.75603866  0.63113587  1
  O  O218  1  -0.00015175  0.26889674  0.39277539  1
  O  O219  1  0.02544156  0.26035824  0.87301557  1
  O  O220  1  0.00382903  0.75864416  0.37077667  1
  O  O221  1  -0.00336316  0.76333880  0.86076584  1
  O  O222  1  0.51681301  0.24292048  0.36596782  1
  O  O223  1  0.48937876  0.26492876  0.86974008  1
  O  O224  1  0.49249900  0.74343409  0.36339630  1
  O  O225  1  0.47872789  0.74948851  0.85884494  1
  O  O226  1  0.25877377  0.13436825  0.48605076  1
  O  O227  1  0.23642024  0.11892470  0.99302977  1
  O  O228  1  0.23432156  0.62046740  0.49059707  1
  O  O229  1  0.24119363  0.64019039  1.00724794  1
  O  O230  1  0.72679164  0.12575065  0.53051061  1
  O  O231  1  0.75096471  0.15577208  0.99853701  1
  O  O232  1  0.75383138  0.63849449  0.49588468  1
  O  O233  1  0.74708788  0.63161964  0.99469766  1
  O  O234  1  0.26737592  0.39004382  0.00553954  1
  O  O235  1  0.25606247  0.35839034  0.49316037  1
  O  O236  1  0.25178066  0.86798967  0.01284668  1
  O  O237  1  0.27201838  0.87323789  0.48605093  1
  O  O238  1  0.77211922  0.36591899  -0.01312625  1
  O  O239  1  0.74980137  0.38534884  0.51797922  1
  O  O240  1  0.76581698  0.85706114  -0.00833601  1
  O  O241  1  0.75033607  0.86075516  0.51097342  1
  O  O242  1  0.12421302  0.49769581  0.24395853  1
  O  O243  1  0.13780430  0.50418985  0.73557303  1
  O  O244  1  0.14263400  1.00239871  0.25212951  1
  O  O245  1  0.11996669  1.00269626  0.73603136  1
  O  O246  1  0.64286429  0.48280936  0.25338374  1
  O  O247  1  0.61906145  0.50975066  0.73684447  1
  O  O248  1  0.64120994  0.98715105  0.24699906  1
  O  O249  1  0.63422671  0.99776777  0.75821718  1
  O  O250  1  0.37101419  0.00473442  0.26337256  1
  O  O251  1  0.37267721  0.00905137  0.76760325  1
  O  O252  1  0.35552235  0.48536016  0.26394121  1
  O  O253  1  0.36130536  0.50495686  0.74943052  1
  O  O254  1  0.86341769  -0.00904890  0.26987619  1
  O  O255  1  0.87086702  -0.00547917  0.75791984  1
  O  O256  1  0.86406598  0.49137246  0.25859734  1
  O  O257  1  0.88486481  0.50379275  0.76923469  1
  O  O258  1  0.10838151  0.38008621  0.36768205  1
  O  O259  1  0.12727490  0.36611061  0.87805224  1
  O  O260  1  0.11820696  0.86280355  0.38256519  1
  O  O261  1  0.11202413  0.88267657  0.87396122  1
  O  O262  1  0.63036289  0.36128334  0.36547844  1
  O  O263  1  0.61071280  0.37639573  0.87350858  1
  O  O264  1  0.61953522  0.85890613  0.36645264  1
  O  O265  1  0.60601564  0.87370144  0.91087303  1
  O  O266  1  0.37787754  0.12631010  0.14108560  1
  O  O267  1  0.38499803  0.13145616  0.63091481  1
  O  O268  1  0.37082522  0.64030545  0.12090302  1
  O  O269  1  0.37394642  0.63458657  0.62747381  1
  O  O270  1  0.82864665  0.20452873  0.11957129  1
  O  O271  1  0.88281222  0.14606592  0.62149188  1
  O  O272  1  0.89324242  0.63673119  0.11246293  1
  O  O273  1  0.87264641  0.63754962  0.62842123  1
  O  O274  1  0.27424854  0.26859896  0.18428707  1
  O  O275  1  0.26250529  0.23709647  0.60789954  1
  O  O276  1  0.25458653  0.76315929  0.12534853  1
  O  O277  1  0.25633381  0.74622262  0.62516037  1
  O  O278  1  0.77117624  0.24580892  0.13954532  1
  O  O279  1  0.76015316  0.27361800  0.63315769  1
  O  O280  1  0.76937433  0.74025613  0.11980689  1
  O  O281  1  0.75682335  0.75287214  0.61618598  1
  O  O282  1  0.24954389  0.23643562  0.38105859  1
  O  O283  1  0.24219899  0.23792200  0.87952095  1
  O  O284  1  0.24076188  0.74060954  0.36819979  1
  O  O285  1  0.25642845  0.75209605  0.89198832  1
  O  O286  1  0.73931453  0.24741278  0.37507784  1
  O  O287  1  0.74328002  0.22189292  0.83730308  1
  O  O288  1  0.76082484  0.74717471  0.38740640  1
  O  O289  1  0.76431449  0.74601806  0.87550243  1
  O  O290  1  0.01259381  0.11041662  0.00227076  1
  O  O291  1  0.00559731  0.11030319  0.48233329  1
  O  O292  1  0.02003937  0.63957087  0.01594300  1
  O  O293  1  0.01545588  0.61212646  0.49156696  1
  O  O294  1  0.48429778  0.12884471  0.01902957  1
  O  O295  1  0.50784337  0.12406777  0.51357443  1
  O  O296  1  0.50388036  0.61133214  0.00175154  1
  O  O297  1  0.48391508  0.60983149  0.51389592  1
  O  O298  1  0.48627408  0.38937545  0.50425454  1
  O  O299  1  0.49384241  0.38661751  0.98556102  1
  O  O300  1  0.48004844  0.86695565  0.49170067  1
  O  O301  1  0.48065233  0.87451804  1.01301466  1
  O  O302  1  1.00678760  0.39319970  0.49160245  1
  O  O303  1  1.00024400  0.37607171  0.98058146  1
  O  O304  1  1.00130984  0.88122993  0.48819630  1
  O  O305  1  0.99460902  0.87836619  0.98758455  1
  O  O306  1  0.48484625  0.50733676  0.38949562  1
  O  O307  1  0.49041949  0.49401911  0.87831052  1
  O  O308  1  0.49190025  1.00459682  0.37292336  1
  O  O309  1  0.48392164  1.00972667  0.87944713  1
  O  O310  1  0.99122504  0.49498075  0.37920429  1
  O  O311  1  1.00697512  0.49208913  0.87421941  1
  O  O312  1  0.99506912  0.98659508  0.37722423  1
  O  O313  1  0.98985979  0.98986986  0.88128167  1
  O  O314  1  -0.00918848  -0.00800464  0.10990188  1
  O  O315  1  -0.00472771  0.00327710  0.60957618  1
  O  O316  1  0.00503017  0.51703064  0.13360833  1
  O  O317  1  0.01203038  0.50153697  0.61475251  1
  O  O318  1  0.49322083  0.01488762  0.12903438  1
  O  O319  1  0.50244204  0.01110751  0.63159927  1
  O  O320  1  0.51354224  0.48594628  0.09853425  1
  O  O321  1  0.50255616  0.50831443  0.61624334  1
  O  O322  1  0.22706952  0.39191260  0.26689581  1
  O  O323  1  0.25477616  0.38286793  0.74917215  1
  O  O324  1  0.25335219  0.88580616  0.24381594  1
  O  O325  1  0.25259911  0.87001887  0.75999047  1
  O  O326  1  0.74669688  0.37992580  0.24793856  1
  O  O327  1  0.75418098  0.40431924  0.72422015  1
  O  O328  1  0.74041730  0.88650934  0.24727393  1
  O  O329  1  0.74582654  0.88017331  0.73443687  1
  O  O330  1  0.26211785  0.11339834  0.26216427  1
  O  O331  1  0.26375856  0.12756033  0.76390117  1
  O  O332  1  0.23956498  0.61351455  0.26320099  1
  O  O333  1  0.25901371  0.62250846  0.74628159  1
  O  O334  1  0.74064429  0.10306504  0.25164039  1
  O  O335  1  0.75077497  0.09925413  0.72826251  1
  O  O336  1  0.74563917  0.60480051  0.24726080  1
  O  O337  1  0.75067569  0.62844253  0.75178969  1
  O  O338  1  0.37253856  0.11237696  0.37319778  1
  O  O339  1  0.36695169  0.12017225  0.87536418  1
  O  O340  1  0.35844073  0.61144311  0.38600898  1
  O  O341  1  0.37941884  0.61170612  0.86429656  1
  O  O342  1  0.85610734  0.11054344  0.38029618  1
  O  O343  1  0.86713089  0.09902193  0.88775159  1
  O  O344  1  0.87913452  0.61182457  0.36995748  1
  O  O345  1  0.88656271  0.61244794  0.88927390  1
  O  O346  1  0.10732307  0.38887417  0.13492719  1
  O  O347  1  0.12044379  0.38574125  0.62045713  1
  O  O348  1  0.13757924  0.87272728  0.12479975  1
  O  O349  1  0.12379403  0.89586995  0.62762650  1
  O  O350  1  0.62452552  0.36193839  0.14360017  1
  O  O351  1  0.61578539  0.39138462  0.62627260  1
  O  O352  1  0.62451626  0.86971902  0.12689044  1
  O  O353  1  0.63720032  0.87093230  0.61947656  1
  O  O354  1  0.11130464  0.26083075  0.25779073  1
  O  O355  1  0.13596675  0.25153785  0.75723295  1
  O  O356  1  0.11589545  0.74748695  0.26158426  1
  O  O357  1  0.10472391  0.75999663  0.73842277  1
  O  O358  1  0.62069601  0.25447097  0.26051924  1
  O  O359  1  0.68777739  0.24122479  0.79160885  1
  O  O360  1  0.63933974  0.76270723  0.24533614  1
  O  O361  1  0.60178038  0.74142564  0.74877347  1
  O  O362  1  0.39651596  0.23604470  0.27455594  1
  O  O363  1  0.36614311  0.24446882  0.73530617  1
  O  O364  1  0.37180449  0.75536689  0.23719893  1
  O  O365  1  0.38065529  0.74338687  0.73399583  1
  O  O366  1  0.89274422  0.25908466  0.25812705  1
  O  O367  1  0.82393104  0.24115035  0.80386551  1
  O  O368  1  0.88186957  0.75562786  0.23582535  1
  O  O369  1  0.88935032  0.75289674  0.73859258  1
  O  O370  1  0.37152167  0.48886063  0.49431957  1
  O  O371  1  0.38329302  0.49989265  0.99203230  1
  O  O372  1  0.37671469  0.99121938  0.49008928  1
  O  O373  1  0.36707552  0.98998179  0.99453594  1
  O  O374  1  0.89036074  0.51114061  0.49352027  1
  O  O375  1  0.88181577  0.48533230  0.98419248  1
  O  O376  1  0.88955846  0.99908899  0.48812109  1
  O  O377  1  0.87949531  0.98807868  0.99118866  1
  O  O378  1  0.11310568  0.00647683  -0.00004954  1
  O  O379  1  0.11422198  -0.00401500  0.50999365  1
  O  O380  1  0.13684625  0.51747852  0.01130011  1
  O  O381  1  0.12115013  0.50661464  0.51052089  1
  O  O382  1  0.66748732  0.02810674  0.01093068  1
  O  O383  1  0.62415647  0.00893943  0.49414393  1
  O  O384  1  0.62198563  0.50899651  -0.01380911  1
  O  O385  1  0.60648949  0.49652183  0.50040170  1
  O  O386  1  0.38781539  0.39016189  0.11374833  1
  O  O387  1  0.37387037  0.36232534  0.61562185  1
  O  O388  1  0.36465047  0.86936420  0.11798129  1
  O  O389  1  0.37074694  0.86443028  0.61613390  1
  O  O390  1  0.89236052  0.36931313  0.10058056  1
  O  O391  1  0.87690842  0.38694726  0.61866716  1
  O  O392  1  0.88502575  0.85793700  0.11206028  1
  O  O393  1  0.85959338  0.85951522  0.62667196  1
  O  O394  1  0.14114856  0.12302975  0.37218715  1
  O  O395  1  0.13656503  0.13253996  0.87293142  1
  O  O396  1  0.12911757  0.63459477  0.38440085  1
  O  O397  1  0.12200973  0.62269346  0.89142375  1
  O  O398  1  0.62488531  0.13190189  0.39233117  1
  O  O399  1  0.62151772  0.12456042  0.89530101  1
  O  O400  1  0.62733396  0.62644326  0.36997074  1
  O  O401  1  0.61342142  0.63106221  0.89153932  1
