# generated using pymatgen
data_V73Zn73O256
_symmetry_space_group_name_H-M   'P 1'
_cell_length_a   16.89081380
_cell_length_b   17.02482609
_cell_length_c   17.04811185
_cell_angle_alpha   89.38606972
_cell_angle_beta   89.99542272
_cell_angle_gamma   90.49148034
_symmetry_Int_Tables_number   1
_chemical_formula_structural   V73Zn73O256
_chemical_formula_sum   'V73 Zn73 O256'
_cell_volume   4901.94718984
_cell_formula_units_Z   1
loop_
 _symmetry_equiv_pos_site_id
 _symmetry_equiv_pos_as_xyz
  1  'x, y, z'
loop_
 _atom_site_type_symbol
 _atom_site_label
 _atom_site_symmetry_multiplicity
 _atom_site_fract_x
 _atom_site_fract_y
 _atom_site_fract_z
 _atom_site_occupancy
  V  V0  1  0.86932774  0.62424580  0.25785426  1
  V  V1  1  0.63153526  0.14799146  0.01329052  1
  V  V2  1  0.23376768  0.24944963  0.50153429  1
  V  V3  1  0.62848438  0.75148578  0.88177109  1
  V  V4  1  0.38143317  0.76209188  0.12746615  1
  V  V5  1  0.37745150  0.24160207  0.12167435  1
  V  V6  1  0.38074523  0.40139633  0.01111363  1
  V  V7  1  0.75512127  0.34917267  0.62510822  1
  V  V8  1  0.24363582  0.00608606  0.25910050  1
  V  V9  1  0.01972093  0.00071426  0.01490488  1
  V  V10  1  0.13021941  0.87611999  0.74086252  1
  V  V11  1  0.65030244  0.13281771  0.49187104  1
  V  V12  1  0.02453011  0.37015933  0.36641747  1
  V  V13  1  0.00789413  -0.00962653  0.49511170  1
  V  V14  1  0.38624269  0.12222049  0.26154391  1
  V  V15  1  0.61713827  0.62242542  0.00418797  1
  V  V16  1  0.12470584  0.87483802  0.24499586  1
  V  V17  1  0.13047614  0.50406179  0.11973012  1
  V  V18  1  0.48084896  0.36332496  0.87174680  1
  V  V19  1  0.62607426  0.49357217  0.13467719  1
  V  V20  1  0.60923954  0.87141300  0.25313182  1
  V  V21  1  0.61674820  -0.00590225  0.12085272  1
  V  V22  1  0.50074940  0.62611491  0.13833958  1
  V  V23  1  0.75287620  0.75130667  0.00439875  1
  V  V24  1  0.24466681  0.37216561  0.12841303  1
  V  V25  1  0.74970272  0.49389228  0.26204506  1
  V  V26  1  0.37488515  0.36612547  0.52010425  1
  V  V27  1  0.24045009  0.14615635  0.90053885  1
  V  V28  1  -0.01213838  0.86572276  0.36531089  1
  V  V29  1  0.38584972  -0.01256975  0.38975884  1
  V  V30  1  0.01760830  0.22585188  0.76002223  1
  V  V31  1  -0.02343177  0.50699255  0.01136358  1
  V  V32  1  0.87034781  0.01305235  0.37663498  1
  V  V33  1  -0.00526219  0.61728023  0.62225745  1
  V  V34  1  0.26972574  -0.00663466  0.74504130  1
  V  V35  1  0.50619395  0.49590932  0.51741972  1
  V  V36  1  0.87060669  0.13169263  0.22574758  1
  V  V37  1  0.62521036  0.73335550  0.38127665  1
  V  V38  1  0.49551451  0.26660374  0.26332384  1
  V  V39  1  0.63047090  0.25959661  0.37175985  1
  V  V40  1  0.00724230  0.88254341  0.87024817  1
  V  V41  1  0.63345187  0.87230896  0.75190468  1
  V  V42  1  0.77305431  0.13086788  0.85829598  1
  V  V43  1  0.86828133  0.36622204  0.48583859  1
  V  V44  1  0.26299672  0.75386572  0.49421834  1
  V  V45  1  0.12325946  0.61949983  0.50023872  1
  V  V46  1  0.12872442  0.73403812  0.87849301  1
  V  V47  1  0.87846740  0.88070765  -0.00412758  1
  V  V48  1  0.50073447  0.73446874  0.75751740  1
  V  V49  1  0.63890788  0.61809128  0.51800660  1
  V  V50  1  -0.00130234  0.12613252  0.61125591  1
  V  V51  1  0.65468569  -0.05394606  0.56458886  1
  V  V52  1  0.25128120  0.73784919  -0.00072601  1
  V  V53  1  0.25443419  0.62275377  0.37303652  1
  V  V54  1  0.24889584  0.88639628  0.11392365  1
  V  V55  1  0.36949385  0.14687624  0.74371531  1
  V  V56  1  0.86727863  0.76037765  0.60580908  1
  V  V57  1  0.87681660  0.75250627  0.12624985  1
  V  V58  1  0.38294874  0.74889691  0.62987766  1
  V  V59  1  0.25583264  0.87395510  0.61524748  1
  V  V60  1  0.00995350  0.63623173  0.12976254  1
  V  V61  1  0.48739685  0.87108913  0.88091747  1
  V  V62  1  0.76453970  0.61116141  0.87930890  1
  V  V63  1  0.00396645  0.24992695  0.23950296  1
  V  V64  1  0.36621842  0.54200840  0.85092059  1
  V  V65  1  0.24639364  0.49641585  0.25598706  1
  V  V66  1  0.75135653  0.48782977  0.73584330  1
  V  V67  1  0.12494185  0.75019690  0.36837101  1
  V  V68  1  0.75360974  -0.00723492  0.22879175  1
  V  V69  1  0.01152997  0.41481964  0.87371931  1
  V  V70  1  0.38624475  0.49296344  0.37529620  1
  V  V71  1  0.49314634  0.13464694  0.60467502  1
  V  V72  1  -0.00616359  0.74659455  0.74652902  1
  Zn  Zn73  1  -0.00700666  0.49865435  0.47599704  1
  Zn  Zn74  1  0.74702714  0.00471109  0.74792801  1
  Zn  Zn75  1  0.13028159  0.12194932  0.48157780  1
  Zn  Zn76  1  0.37036206  0.00796402  0.88799393  1
  Zn  Zn77  1  0.17951860  0.33863220  0.68962570  1
  Zn  Zn78  1  0.76324098  0.35994990  0.11923226  1
  Zn  Zn79  1  0.50869487  0.00281102  -0.00634581  1
  Zn  Zn80  1  0.38234153  0.63478478  0.25879815  1
  Zn  Zn81  1  0.50179500  0.61635552  0.64005048  1
  Zn  Zn82  1  0.19548243  0.19588993  0.20461297  1
  Zn  Zn83  1  0.18443345  0.16964214  0.66356919  1
  Zn  Zn84  1  0.19580983  0.69151208  0.18859007  1
  Zn  Zn85  1  0.17944949  0.70049409  0.67662215  1
  Zn  Zn86  1  0.68097097  0.18057364  0.20191491  1
  Zn  Zn87  1  0.69500090  0.16911960  0.66703719  1
  Zn  Zn88  1  0.68852673  0.69349798  0.19195303  1
  Zn  Zn89  1  0.69668349  0.68108981  0.70054938  1
  Zn  Zn90  1  0.30697404  0.31429542  0.32152674  1
  Zn  Zn91  1  0.30012746  0.31488903  0.83282100  1
  Zn  Zn92  1  0.31346343  0.81783001  0.30769147  1
  Zn  Zn93  1  0.31202864  0.80086307  0.80815430  1
  Zn  Zn94  1  0.81155107  0.31090078  0.30481273  1
  Zn  Zn95  1  0.84355080  0.31343801  0.80408218  1
  Zn  Zn96  1  0.80211013  0.80177927  0.30098177  1
  Zn  Zn97  1  0.84300797  0.85444234  0.78083757  1
  Zn  Zn98  1  0.18882480  0.43799379  0.55569500  1
  Zn  Zn99  1  0.19585160  0.43960525  0.93474596  1
  Zn  Zn100  1  0.18826027  0.93318321  0.43048959  1
  Zn  Zn101  1  0.18890815  0.93546365  0.92822425  1
  Zn  Zn102  1  0.68772629  0.43269657  0.44482138  1
  Zn  Zn103  1  0.67141605  0.42913585  0.94038467  1
  Zn  Zn104  1  0.72228458  0.89083180  0.40627183  1
  Zn  Zn105  1  0.69795084  0.94288959  0.93205845  1
  Zn  Zn106  1  0.32198280  0.06586233  0.06503138  1
  Zn  Zn107  1  0.31414930  0.06778187  0.56265037  1
  Zn  Zn108  1  0.31276675  0.56938658  0.07108329  1
  Zn  Zn109  1  0.32164134  0.56795554  0.55986664  1
  Zn  Zn110  1  0.80019995  0.19904416  0.05110589  1
  Zn  Zn111  1  0.81174775  0.05498026  0.55784138  1
  Zn  Zn112  1  0.80519777  0.57058083  0.07540893  1
  Zn  Zn113  1  0.82300414  0.55045386  0.56078402  1
  Zn  Zn114  1  0.43226887  0.44111101  0.19167234  1
  Zn  Zn115  1  0.32850320  0.44238235  0.69714103  1
  Zn  Zn116  1  0.43508796  0.94345081  0.19103523  1
  Zn  Zn117  1  0.45059846  0.94449658  0.57338586  1
  Zn  Zn118  1  0.93626065  0.43972766  0.19794657  1
  Zn  Zn119  1  0.92995751  0.43351454  0.69339093  1
  Zn  Zn120  1  0.93772967  0.94053363  0.18365032  1
  Zn  Zn121  1  0.91307695  0.96393989  0.66105519  1
  Zn  Zn122  1  0.05261256  0.06474460  0.30604665  1
  Zn  Zn123  1  0.07244843  0.06069702  0.80228530  1
  Zn  Zn124  1  0.06196445  0.56103985  0.30675752  1
  Zn  Zn125  1  0.05452544  0.55967583  0.80408834  1
  Zn  Zn126  1  0.59674422  0.01929908  0.36633437  1
  Zn  Zn127  1  0.51068676  0.01886912  0.75305564  1
  Zn  Zn128  1  0.56655808  0.56509432  0.31228015  1
  Zn  Zn129  1  0.55723490  0.51466100  0.81862608  1
  Zn  Zn130  1  0.42352640  0.18944516  0.43053471  1
  Zn  Zn131  1  0.44059061  0.16464515  0.93473790  1
  Zn  Zn132  1  0.44987611  0.68412733  0.43980193  1
  Zn  Zn133  1  0.43712536  0.68986822  0.94888987  1
  Zn  Zn134  1  0.93948505  0.19122558  0.43149372  1
  Zn  Zn135  1  0.94473190  0.17400964  0.93479358  1
  Zn  Zn136  1  0.93443572  0.69133884  0.43848857  1
  Zn  Zn137  1  0.94375235  0.68877289  0.94144153  1
  Zn  Zn138  1  -0.06284097  0.32215291  0.05467008  1
  Zn  Zn139  1  0.05222372  0.31251343  0.55413380  1
  Zn  Zn140  1  0.06886781  0.81381369  0.05860758  1
  Zn  Zn141  1  0.06066707  0.81109478  0.55626452  1
  Zn  Zn142  1  0.55143011  0.31678759  0.07365163  1
  Zn  Zn143  1  0.56444275  0.31022501  0.56206191  1
  Zn  Zn144  1  0.56566023  0.81966916  0.06216835  1
  Zn  Zn145  1  0.57669706  0.79361748  0.57046771  1
  O  O146  1  0.12758780  0.14498651  0.10210105  1
  O  O147  1  0.10395958  0.11007582  0.60513899  1
  O  O148  1  0.11514382  0.62412340  0.13686974  1
  O  O149  1  0.11523256  0.63867095  0.60359270  1
  O  O150  1  0.63146758  0.10878753  0.11410290  1
  O  O151  1  0.61451595  0.13315784  0.59599969  1
  O  O152  1  0.61400870  0.63354038  0.12445065  1
  O  O153  1  0.62556837  0.62849074  0.61927863  1
  O  O154  1  0.37348290  0.39325981  0.38172757  1
  O  O155  1  0.36855443  0.37022217  0.91128591  1
  O  O156  1  0.37207986  0.88895205  0.37131479  1
  O  O157  1  0.38784871  0.85580120  0.87518835  1
  O  O158  1  0.86008967  0.37545807  0.38440063  1
  O  O159  1  0.92671339  0.35933297  0.87347011  1
  O  O160  1  0.88760744  0.86406927  0.35971657  1
  O  O161  1  0.90068551  0.85967067  0.88669848  1
  O  O162  1  0.25886065  -0.00564026  0.36096402  1
  O  O163  1  0.26269386  -0.02186474  0.85217668  1
  O  O164  1  0.26288926  0.51311452  0.37007075  1
  O  O165  1  0.27723528  0.50373795  0.88788467  1
  O  O166  1  0.76972096  -0.01148098  0.36646185  1
  O  O167  1  0.73097085  0.02737870  0.86869251  1
  O  O168  1  0.73831183  0.49560565  0.35957140  1
  O  O169  1  0.74299723  0.51470535  0.90068198  1
  O  O170  1  0.25080898  0.49796202  0.13940185  1
  O  O171  1  0.26105309  0.49748956  0.61811969  1
  O  O172  1  0.26046427  0.98796445  0.13189085  1
  O  O173  1  0.26112149  0.97977322  0.62827415  1
  O  O174  1  0.73242363  0.50293610  0.13315980  1
  O  O175  1  0.74955906  0.50307218  0.63652191  1
  O  O176  1  0.74672091  0.99370430  0.13090611  1
  O  O177  1  0.72300537  1.00373154  0.62287310  1
  O  O178  1  -0.00382606  0.36330662  0.25783807  1
  O  O179  1  0.01616273  0.45102574  0.77393954  1
  O  O180  1  0.01162694  0.88021369  0.25721169  1
  O  O181  1  0.01237612  0.86283116  0.76040439  1
  O  O182  1  0.49021506  0.36521239  0.25518250  1
  O  O183  1  0.45546240  0.37464764  0.77844765  1
  O  O184  1  0.50959806  0.87624637  0.24605192  1
  O  O185  1  0.51808121  0.85234642  0.77003644  1
  O  O186  1  0.48312584  0.12705383  0.25149271  1
  O  O187  1  0.46839756  0.12896207  0.76536291  1
  O  O188  1  0.50336794  0.63790638  0.24074063  1
  O  O189  1  0.51340838  0.63330404  0.75832693  1
  O  O190  1  0.98053427  0.13210914  0.24529370  1
  O  O191  1  1.00804034  0.12254914  0.72795225  1
  O  O192  1  0.98748845  0.61848626  0.23548670  1
  O  O193  1  1.01247655  0.63573540  0.72904367  1
  O  O194  1  0.38187138  0.23395345  0.02447565  1
  O  O195  1  0.38252783  0.26689337  0.50292712  1
  O  O196  1  0.36072056  0.75122933  0.01461243  1
  O  O197  1  0.36607564  0.74737029  0.49566824  1
  O  O198  1  0.88596333  0.24396321  -0.00478056  1
  O  O199  1  0.88009673  0.26562426  0.49428330  1
  O  O200  1  0.87182722  0.75275344  0.00910372  1
  O  O201  1  0.87186425  0.75342631  0.50534302  1
  O  O202  1  0.13133245  0.24981938  0.49290319  1
  O  O203  1  0.11233834  0.19639089  1.05263658  1
  O  O204  1  0.13383675  0.74376007  0.48318972  1
  O  O205  1  0.13608410  0.75182455  0.98776225  1
  O  O206  1  0.62116236  0.24011154  0.48156921  1
  O  O207  1  0.61441773  0.24456535  1.01903361  1
  O  O208  1  0.62765543  0.72581934  0.49451407  1
  O  O209  1  0.63369226  0.74686683  1.00191619  1
  O  O210  1  0.48142964  0.25363856  0.14638049  1
  O  O211  1  0.50680102  0.23277115  0.62648027  1
  O  O212  1  0.48525435  0.75328777  0.12089701  1
  O  O213  1  0.49932056  0.74638392  0.64115149  1
  O  O214  1  0.99197984  0.26247737  0.14148293  1
  O  O215  1  0.99049889  0.22403976  0.60269095  1
  O  O216  1  0.99859525  0.74107124  0.12196973  1
  O  O217  1  0.99199718  0.74704984  0.62800136  1
  O  O218  1  -0.00791420  0.26184417  0.35841765  1
  O  O219  1  0.02072030  0.21528354  0.85827876  1
  O  O220  1  0.01064207  0.75992262  0.37456777  1
  O  O221  1  0.01554221  0.74810505  0.86922626  1
  O  O222  1  0.49927399  0.24956790  0.36559573  1
  O  O223  1  0.48166373  0.26264619  0.88853498  1
  O  O224  1  0.52485786  0.75325358  0.38364058  1
  O  O225  1  0.50976991  0.75125819  0.87823365  1
  O  O226  1  0.24532919  0.14140875  0.51362355  1
  O  O227  1  0.24459979  0.10884294  0.99387651  1
  O  O228  1  0.24099107  0.63451169  0.49017686  1
  O  O229  1  0.24684317  0.64032960  1.01019562  1
  O  O230  1  0.75000934  0.13351111  0.50107173  1
  O  O231  1  0.72788031  0.14018045  0.97079994  1
  O  O232  1  0.73647687  0.60702687  0.50573255  1
  O  O233  1  0.73700964  0.63423522  1.00375745  1
  O  O234  1  0.26250447  0.38453186  0.02445495  1
  O  O235  1  0.26752125  0.36695694  0.50414399  1
  O  O236  1  0.24937145  0.87546387  0.01304325  1
  O  O237  1  0.24074097  0.86221090  0.50439125  1
  O  O238  1  0.72460219  0.36775702  0.01330082  1
  O  O239  1  0.76060674  0.37482907  0.51111246  1
  O  O240  1  0.77101909  0.86543090  -0.01561858  1
  O  O241  1  0.71820798  0.88759284  0.51803067  1
  O  O242  1  0.14076445  0.50586774  0.24135872  1
  O  O243  1  0.16947017  0.54093495  0.74654704  1
  O  O244  1  0.13644416  0.99019097  0.25277890  1
  O  O245  1  0.14014303  0.97874454  0.74738418  1
  O  O246  1  0.63639496  0.51171130  0.24168418  1
  O  O247  1  0.65070036  0.49522610  0.76407517  1
  O  O248  1  0.63722429  0.99608087  0.23504450  1
  O  O249  1  0.62027369  0.97349883  0.75493180  1
  O  O250  1  0.36587464  0.00938284  0.25351324  1
  O  O251  1  0.36943922  -0.00389286  0.74521924  1
  O  O252  1  0.36940775  0.50864173  0.26270548  1
  O  O253  1  0.36720804  0.53558581  0.75041289  1
  O  O254  1  0.86976161  0.00563807  0.25001280  1
  O  O255  1  0.85389019  -0.03704738  0.75223421  1
  O  O256  1  0.86186732  0.51567280  0.24642154  1
  O  O257  1  0.85184165  0.49475563  0.76020561  1
  O  O258  1  0.12024106  0.36602515  0.36890502  1
  O  O259  1  0.10851584  0.38353180  0.88761833  1
  O  O260  1  0.12234612  0.86578758  0.36105747  1
  O  O261  1  0.11922411  0.86300122  0.86444213  1
  O  O262  1  0.62520712  0.35855864  0.38136288  1
  O  O263  1  0.58079885  0.40284378  0.87961091  1
  O  O264  1  0.61914662  0.90409565  0.35266031  1
  O  O265  1  0.61949381  0.85955819  0.88303911  1
  O  O266  1  0.36255523  0.13888174  0.14656834  1
  O  O267  1  0.38237481  0.13026036  0.63498874  1
  O  O268  1  0.38951715  0.63727961  0.12881737  1
  O  O269  1  0.38651808  0.64546073  0.61143437  1
  O  O270  1  0.86691941  0.12675428  0.12856258  1
  O  O271  1  0.90043625  0.08119772  0.62402170  1
  O  O272  1  0.88504531  0.63651415  0.13291509  1
  O  O273  1  0.89300853  0.63510680  0.61079988  1
  O  O274  1  0.26229205  0.26617114  0.14120492  1
  O  O275  1  0.23645054  0.25937665  0.61167332  1
  O  O276  1  0.25437722  0.76031398  0.11335075  1
  O  O277  1  0.26209269  0.75274618  0.61430763  1
  O  O278  1  0.74003655  0.24742861  0.13225656  1
  O  O279  1  0.76661219  0.25075403  0.63164690  1
  O  O280  1  0.75996748  0.74719134  0.11279771  1
  O  O281  1  0.77311727  0.73589183  0.63677610  1
  O  O282  1  0.26309026  0.25117722  0.40160982  1
  O  O283  1  0.24004579  0.24604045  0.90300587  1
  O  O284  1  0.24732730  0.74319694  0.37702581  1
  O  O285  1  0.24094754  0.75542225  0.88850929  1
  O  O286  1  0.72764610  0.24574147  0.35150156  1
  O  O287  1  0.77475328  0.23548803  0.85165961  1
  O  O288  1  0.72576516  0.77825639  0.38311174  1
  O  O289  1  0.73863939  0.72980482  0.89214743  1
  O  O290  1  0.00359105  0.09542906  -0.00976585  1
  O  O291  1  -0.00491129  0.10492821  0.49700148  1
  O  O292  1  -0.00199355  0.62083554  0.02268130  1
  O  O293  1  0.01114270  0.62508211  0.49936548  1
  O  O294  1  0.55105071  0.11367258  -0.04119000  1
  O  O295  1  0.48327044  0.12611349  0.50657871  1
  O  O296  1  0.51185534  0.63757314  0.02022896  1
  O  O297  1  0.51214465  0.60984223  0.50285558  1
  O  O298  1  0.49500009  0.38954872  0.50448861  1
  O  O299  1  0.48117360  0.37767590  1.00833178  1
  O  O300  1  0.55288700  0.90222926  0.54379337  1
  O  O301  1  0.50275184  0.87902210  0.98467305  1
  O  O302  1  0.99230959  0.37399605  0.47603645  1
  O  O303  1  1.00042102  0.40691006  1.00016755  1
  O  O304  1  1.00755350  0.87915489  0.47375743  1
  O  O305  1  1.00276951  0.87633505  0.98641978  1
  O  O306  1  0.48775952  0.50800489  0.37177287  1
  O  O307  1  0.46076445  0.50001253  0.87705442  1
  O  O308  1  0.48325546  1.00045549  0.37612703  1
  O  O309  1  0.48692297  0.97659750  0.86164328  1
  O  O310  1  1.00735186  0.47977423  0.36226935  1
  O  O311  1  1.00454105  0.52108303  0.90657250  1
  O  O312  1  0.98460796  0.98511996  0.37055968  1
  O  O313  1  1.01123111  0.98185672  0.86765555  1
  O  O314  1  0.01051589  -0.00769640  0.11458169  1
  O  O315  1  0.00655012  -0.02520070  0.59433000  1
  O  O316  1  0.00981975  0.51122413  0.12150282  1
  O  O317  1  -0.00452468  0.51895821  0.62344084  1
  O  O318  1  0.51298290  -0.00264906  0.12159813  1
  O  O319  1  0.50089734  0.02867207  0.63879611  1
  O  O320  1  0.50793875  0.52019856  0.14047776  1
  O  O321  1  0.49961436  0.50159058  0.61519767  1
  O  O322  1  0.26435513  0.38848105  0.24265864  1
  O  O323  1  0.25321993  0.38243418  0.75898908  1
  O  O324  1  0.24301318  0.88608592  0.24005508  1
  O  O325  1  0.25103498  0.87336868  0.73530683  1
  O  O326  1  0.75635386  0.39371221  0.24092480  1
  O  O327  1  0.76208430  0.37513163  0.73424382  1
  O  O328  1  0.74544508  0.88851008  0.24885621  1
  O  O329  1  0.73004376  0.86428246  0.78347708  1
  O  O330  1  0.24987994  0.10759815  0.24584128  1
  O  O331  1  0.25784310  0.09917182  0.72754008  1
  O  O332  1  0.25384712  0.61903549  0.26042500  1
  O  O333  1  0.21682592  0.59881932  0.74140621  1
  O  O334  1  0.76029440  0.10456781  0.24715225  1
  O  O335  1  0.74266485  0.12127417  0.75422900  1
  O  O336  1  0.76184832  0.61889315  0.24446994  1
  O  O337  1  0.74899683  0.61248697  0.77645143  1
  O  O338  1  0.37012536  0.10937339  0.36575653  1
  O  O339  1  0.34304399  0.12569638  0.85789304  1
  O  O340  1  0.36888719  0.62175448  0.37821413  1
  O  O341  1  0.36992989  0.64073485  0.87520902  1
  O  O342  1  0.87539046  0.11246580  0.36927230  1
  O  O343  1  0.86998144  0.11241810  0.86771265  1
  O  O344  1  0.88354205  0.63562786  0.35500773  1
  O  O345  1  0.86300107  0.62654547  0.89117190  1
  O  O346  1  0.14523447  0.38705801  0.13111604  1
  O  O347  1  0.10832304  0.38588852  0.61589595  1
  O  O348  1  0.14010679  0.86679799  0.13325865  1
  O  O349  1  0.14027767  0.85465963  0.63167344  1
  O  O350  1  0.60998223  0.39644464  0.13245562  1
  O  O351  1  0.65266343  0.35949679  0.61594087  1
  O  O352  1  0.62365915  0.88341738  0.13952201  1
  O  O353  1  0.64287313  0.85824413  0.65096598  1
  O  O354  1  0.10436994  0.23781849  0.24696977  1
  O  O355  1  0.11501177  0.24755652  0.72860167  1
  O  O356  1  0.13563325  0.75954665  0.25971727  1
  O  O357  1  0.12560456  0.75580679  0.76137932  1
  O  O358  1  0.60125115  0.24192288  0.25942039  1
  O  O359  1  0.60660291  0.24752360  0.75422075  1
  O  O360  1  0.63086796  0.76597463  0.26272715  1
  O  O361  1  0.62284304  0.74632120  0.76788621  1
  O  O362  1  0.37918461  0.23875249  0.25922670  1
  O  O363  1  0.35260874  0.24194205  0.75263285  1
  O  O364  1  0.36238026  0.74876577  0.23079891  1
  O  O365  1  0.38654139  0.74977931  0.73914049  1
  O  O366  1  0.87263198  0.23328808  0.24851831  1
  O  O367  1  0.94174241  0.29000371  0.73720724  1
  O  O368  1  0.86774852  0.73964826  0.23527140  1
  O  O369  1  0.89313492  0.75387797  0.75182902  1
  O  O370  1  0.38924920  0.49680141  0.49008466  1
  O  O371  1  0.38269112  0.50035099  1.01764574  1
  O  O372  1  0.37416776  0.99493423  0.49456270  1
  O  O373  1  0.40503899  1.05241582  0.98806979  1
  O  O374  1  0.88274309  0.48324351  0.49774266  1
  O  O375  1  0.87824744  0.50882590  1.01361934  1
  O  O376  1  0.88307758  0.99449838  0.47968375  1
  O  O377  1  0.89324522  0.97710766  0.99887410  1
  O  O378  1  0.11841171  -0.01384107  -0.00306290  1
  O  O379  1  0.11039734  0.00041204  0.47721745  1
  O  O380  1  0.14027132  0.50576278  0.02120948  1
  O  O381  1  0.12541876  0.51959207  0.49521740  1
  O  O382  1  0.63129386  -0.01502398  0.01851577  1
  O  O383  1  0.63358624  0.02045764  0.48996394  1
  O  O384  1  0.62135024  0.51991834  0.02289453  1
  O  O385  1  0.61363652  0.50736015  0.49473699  1
  O  O386  1  0.37144828  0.36843255  0.12128872  1
  O  O387  1  0.38304127  0.37633392  0.61697863  1
  O  O388  1  0.36405722  0.86827305  0.12934325  1
  O  O389  1  0.37069572  0.85932494  0.61101254  1
  O  O390  1  0.87427573  0.38676269  0.12191108  1
  O  O391  1  0.86599720  0.38056984  0.61266570  1
  O  O392  1  0.89037009  0.86181409  0.10826370  1
  O  O393  1  0.87772625  0.85863995  0.62286965  1
  O  O394  1  0.11952348  0.12336059  0.37018700  1
  O  O395  1  0.15590768  0.11104513  0.85787386  1
  O  O396  1  0.13149772  0.63204790  0.37823003  1
  O  O397  1  0.12482701  0.63695700  0.86961934  1
  O  O398  1  0.62214116  0.12903576  0.38949710  1
  O  O399  1  0.62928846  0.25159253  0.82237260  1
  O  O400  1  0.63377120  0.63294576  0.37603122  1
  O  O401  1  0.62012870  0.63053044  0.90074098  1
