# generated using pymatgen
data_V73Zn73O256
_symmetry_space_group_name_H-M   'P 1'
_cell_length_a   16.84993575
_cell_length_b   16.90913161
_cell_length_c   16.95731593
_cell_angle_alpha   89.99998378
_cell_angle_beta   90.17344172
_cell_angle_gamma   90.09341968
_symmetry_Int_Tables_number   1
_chemical_formula_structural   V73Zn73O256
_chemical_formula_sum   'V73 Zn73 O256'
_cell_volume   4831.41227114
_cell_formula_units_Z   1
loop_
 _symmetry_equiv_pos_site_id
 _symmetry_equiv_pos_as_xyz
  1  'x, y, z'
loop_
 _atom_site_type_symbol
 _atom_site_label
 _atom_site_symmetry_multiplicity
 _atom_site_fract_x
 _atom_site_fract_y
 _atom_site_fract_z
 _atom_site_occupancy
  V  V0  1  0.12851220  0.50308584  0.13021455  1
  V  V1  1  0.23081003  0.24526524  0.49523243  1
  V  V2  1  0.12744977  -0.00683106  0.64283204  1
  V  V3  1  0.01004223  0.00258955  0.50304166  1
  V  V4  1  0.86762449  0.37167614  0.00149255  1
  V  V5  1  0.62322801  0.62519792  -0.00184598  1
  V  V6  1  0.75360917  0.75091648  0.49764163  1
  V  V7  1  0.77546631  0.25107165  0.50274263  1
  V  V8  1  0.75283217  0.49873770  0.25074435  1
  V  V9  1  0.35040902  0.74572397  0.11766150  1
  V  V10  1  0.05742104  0.44161606  0.44564382  1
  V  V11  1  -0.00829202  0.24853221  0.75579069  1
  V  V12  1  0.86472015  0.61677599  0.75248157  1
  V  V13  1  0.87974817  0.87570912  0.50333852  1
  V  V14  1  0.86328312  0.49910965  0.87381809  1
  V  V15  1  0.25113036  -0.02670153  0.75904787  1
  V  V16  1  -0.00847301  0.87761360  0.86320656  1
  V  V17  1  0.13074404  0.73940772  0.88394178  1
  V  V18  1  0.00544127  0.50028686  0.00192755  1
  V  V19  1  0.50763230  0.87173339  0.88404853  1
  V  V20  1  0.02529272  0.13206957  0.12629896  1
  V  V21  1  0.12732499  0.36879683  0.75626892  1
  V  V22  1  0.87107018  0.10866012  0.76362157  1
  V  V23  1  0.22645690  0.75073990  0.50470867  1
  V  V24  1  -0.01060103  0.01399312  0.00372545  1
  V  V25  1  0.23000693  0.63693350  0.37363205  1
  V  V26  1  0.01525356  0.26195342  0.26424279  1
  V  V27  1  0.63224097  0.88814750  0.25360369  1
  V  V28  1  0.72672731  0.13151692  0.88008378  1
  V  V29  1  0.59894748  0.50456245  0.62200615  1
  V  V30  1  0.36104686  0.16359658  0.78595484  1
  V  V31  1  0.61192232  0.36740439  0.26299808  1
  V  V32  1  0.87150035  0.74937562  0.62517336  1
  V  V33  1  0.24433775  0.11060900  0.38754543  1
  V  V34  1  0.25263707  0.37049042  0.11013032  1
  V  V35  1  0.87612362  0.63564024  0.24982074  1
  V  V36  1  0.74697044  0.37252967  0.12671806  1
  V  V37  1  0.01385944  0.74229664  0.74612171  1
  V  V38  1  0.61083245  0.51020979  0.12532081  1
  V  V39  1  0.88124181  -0.00018476  0.37248749  1
  V  V40  1  0.87292259  0.12252053  0.25190442  1
  V  V41  1  0.62001785  0.75154511  0.37556094  1
  V  V42  1  0.38808158  0.49848746  0.90122780  1
  V  V43  1  0.00296291  0.61740472  0.61075958  1
  V  V44  1  0.50332595  0.12109831  0.63787952  1
  V  V45  1  0.50328105  0.74628518  0.74822720  1
  V  V46  1  0.37302961  0.61261465  0.74664945  1
  V  V47  1  0.62104879  0.00123534  0.10401735  1
  V  V48  1  0.24430672  -0.00074923  0.22171465  1
  V  V49  1  -0.00180481  0.12885786  0.62617837  1
  V  V50  1  0.02243874  0.75114426  0.25064013  1
  V  V51  1  0.01856120  0.87203560  0.37167905  1
  V  V52  1  0.86828328  0.24709284  0.12884203  1
  V  V53  1  0.37141441  -0.00428104  0.87852105  1
  V  V54  1  -0.00422381  0.63110736  0.11858157  1
  V  V55  1  0.38278942  0.24847832  0.62006935  1
  V  V56  1  0.47173787  -0.00834581  0.51386971  1
  V  V57  1  0.38928397  0.24911262  0.13270128  1
  V  V58  1  0.12676645  0.50233320  0.63092302  1
  V  V59  1  0.74409386  0.12048839  0.38374659  1
  V  V60  1  0.87875163  0.48437788  0.37985377  1
  V  V61  1  0.24990731  0.37391090  0.62913199  1
  V  V62  1  0.51009228  0.75084797  0.22423613  1
  V  V63  1  0.37670819  0.63605805  0.25905779  1
  V  V64  1  0.25389955  0.49702525  0.25920249  1
  V  V65  1  0.00531384  0.36990973  0.88007748  1
  V  V66  1  0.37575425  0.75607897  0.61922867  1
  V  V67  1  0.76471649  0.87862987  0.11319463  1
  V  V68  1  0.63739488  0.74590713  0.87640105  1
  V  V69  1  0.37917037  0.38136553  0.48700352  1
  V  V70  1  0.51285908  0.36715817  0.87369620  1
  V  V71  1  0.71483532  -0.02182504  0.74403569  1
  V  V72  1  0.35438228  0.86889698  0.00320036  1
  Zn  Zn73  1  0.51027566  0.11550296  0.15339212  1
  Zn  Zn74  1  0.12077267  0.88633492  0.19425819  1
  Zn  Zn75  1  0.38098076  0.12243067  0.26393099  1
  Zn  Zn76  1  0.75340283  0.62565789  0.37456690  1
  Zn  Zn77  1  0.77786975  0.74596800  0.00308672  1
  Zn  Zn78  1  0.62914724  0.38546061  0.74500791  1
  Zn  Zn79  1  0.37744486  0.96860428  0.36710997  1
  Zn  Zn80  1  0.63034544  0.61917447  0.49822066  1
  Zn  Zn81  1  0.24865041  0.61159223  -0.11627648  1
  Zn  Zn82  1  0.20359333  0.19274068  0.20426559  1
  Zn  Zn83  1  0.18563384  0.18639936  0.69007085  1
  Zn  Zn84  1  0.18145068  0.68042642  0.06125411  1
  Zn  Zn85  1  0.19850925  0.68087455  0.68889445  1
  Zn  Zn86  1  0.68419657  0.18228295  0.19762842  1
  Zn  Zn87  1  0.69224688  0.21168691  0.69833071  1
  Zn  Zn88  1  0.69589296  0.69295152  0.18021214  1
  Zn  Zn89  1  0.68227244  0.67820533  0.68466027  1
  Zn  Zn90  1  0.30960170  0.30234076  0.31575331  1
  Zn  Zn91  1  0.32306735  0.33524602  0.81089332  1
  Zn  Zn92  1  0.26608126  0.82601026  0.31325122  1
  Zn  Zn93  1  0.31639892  0.80336931  0.81394065  1
  Zn  Zn94  1  0.80504248  0.30461977  0.31474477  1
  Zn  Zn95  1  0.80040815  0.30488061  0.81788128  1
  Zn  Zn96  1  0.81196866  0.82004608  0.31161877  1
  Zn  Zn97  1  0.81072088  0.81268157  0.80016455  1
  Zn  Zn98  1  0.22361737  0.45601561  0.45402741  1
  Zn  Zn99  1  0.19404526  0.44652647  0.93605604  1
  Zn  Zn100  1  0.19284836  0.93671295  0.45411534  1
  Zn  Zn101  1  0.13451319  0.86323092  1.00124637  1
  Zn  Zn102  1  0.68814387  0.43282243  0.44661450  1
  Zn  Zn103  1  0.67933780  0.43712399  0.94259483  1
  Zn  Zn104  1  0.69689164  0.93537713  0.43312245  1
  Zn  Zn105  1  0.70057974  0.94682876  0.93200428  1
  Zn  Zn106  1  0.32840718  0.07161080  0.05686748  1
  Zn  Zn107  1  0.30281260  0.06517382  0.57616282  1
  Zn  Zn108  1  0.31762807  0.55972132  0.06662390  1
  Zn  Zn109  1  0.32388742  0.57332636  0.55728065  1
  Zn  Zn110  1  0.80408333  0.06354515  0.06060233  1
  Zn  Zn111  1  0.78613207  0.09774985  0.59405359  1
  Zn  Zn112  1  0.80945810  0.56258990  0.06048331  1
  Zn  Zn113  1  0.81980364  0.56332383  0.55813664  1
  Zn  Zn114  1  0.43069173  0.44039012  0.19408624  1
  Zn  Zn115  1  0.44373032  0.43270671  0.68806186  1
  Zn  Zn116  1  0.43584318  0.93259275  0.18709331  1
  Zn  Zn117  1  0.44214743  0.93031991  0.69593285  1
  Zn  Zn118  1  0.93601037  0.43902858  0.19223629  1
  Zn  Zn119  1  0.94430730  0.43906033  0.69028080  1
  Zn  Zn120  1  0.94935096  0.94375158  0.18691234  1
  Zn  Zn121  1  0.93743583  0.93833547  0.69379250  1
  Zn  Zn122  1  0.06803565  0.06421470  0.30745263  1
  Zn  Zn123  1  0.06373443  0.06167829  0.82201281  1
  Zn  Zn124  1  0.06133601  0.56106889  0.30596294  1
  Zn  Zn125  1  0.05751163  0.55965571  0.80971409  1
  Zn  Zn126  1  0.55270706  0.05961196  0.33339943  1
  Zn  Zn127  1  0.54954935  0.06552996  0.80766896  1
  Zn  Zn128  1  0.56920595  0.57411617  0.30485286  1
  Zn  Zn129  1  0.56336321  0.56103043  0.80938640  1
  Zn  Zn130  1  0.42826322  0.16997061  0.45682776  1
  Zn  Zn131  1  0.41466596  0.23839440  0.93851784  1
  Zn  Zn132  1  0.40877795  0.76909697  0.41146209  1
  Zn  Zn133  1  0.44031799  0.68352572  0.93932666  1
  Zn  Zn134  1  0.94153840  0.19027526  0.44049517  1
  Zn  Zn135  1  0.93337883  0.18862072  0.94198961  1
  Zn  Zn136  1  0.94293981  0.68881064  0.42999876  1
  Zn  Zn137  1  0.93581416  0.68782582  0.93078140  1
  Zn  Zn138  1  0.04802230  0.33106039  0.09388987  1
  Zn  Zn139  1  0.05920147  0.30913038  0.57040606  1
  Zn  Zn140  1  -0.03816374  0.82633901  0.05927220  1
  Zn  Zn141  1  0.05774360  0.81698322  0.57198197  1
  Zn  Zn142  1  0.55052066  0.33130159  0.07290040  1
  Zn  Zn143  1  0.55754433  0.32547066  0.56101331  1
  Zn  Zn144  1  0.57495117  0.82180999  0.05472422  1
  Zn  Zn145  1  0.56296098  0.81238317  0.55989901  1
  O  O146  1  0.12318474  0.13867302  0.12643280  1
  O  O147  1  0.10850720  0.11211698  0.64043204  1
  O  O148  1  0.10603564  0.61452991  0.12378477  1
  O  O149  1  0.12259176  0.60762729  0.63288871  1
  O  O150  1  0.62830386  0.10596770  0.13285364  1
  O  O151  1  0.59722702  0.14400442  0.66459520  1
  O  O152  1  0.62798986  0.61489918  0.12418812  1
  O  O153  1  0.62337216  0.61522885  0.61347239  1
  O  O154  1  0.36831382  0.36615534  0.38824775  1
  O  O155  1  0.39362966  0.38977511  0.87792714  1
  O  O156  1  0.36219699  0.85673418  0.36272607  1
  O  O157  1  0.37877738  0.87050599  0.88940022  1
  O  O158  1  0.87007320  0.38593901  0.36700707  1
  O  O159  1  0.87951038  0.37756632  0.88435217  1
  O  O160  1  0.88872650  0.88280312  0.37891922  1
  O  O161  1  0.89267692  0.85374107  0.86686320  1
  O  O162  1  0.26023139  0.00564326  0.39240323  1
  O  O163  1  0.26281016  -0.00729627  0.86457544  1
  O  O164  1  0.25148561  0.52088432  0.36332881  1
  O  O165  1  0.27840865  0.49417402  0.87807136  1
  O  O166  1  0.77182666  0.00595347  0.38035338  1
  O  O167  1  0.73804419  0.01260000  0.84731093  1
  O  O168  1  0.75968214  0.50249112  0.36360168  1
  O  O169  1  0.76444021  0.49298399  0.88190282  1
  O  O170  1  0.24779643  0.49282182  0.13753569  1
  O  O171  1  0.23541993  0.48706819  0.62108123  1
  O  O172  1  0.25154214  1.01510594  0.12436703  1
  O  O173  1  0.23654784  1.00118251  0.64300937  1
  O  O174  1  0.75037722  0.49052114  0.13651579  1
  O  O175  1  0.75637785  0.49050920  0.62553202  1
  O  O176  1  0.73752736  0.98881006  0.12043588  1
  O  O177  1  0.74019331  1.01569611  0.65176600  1
  O  O178  1  0.00250261  0.36176911  0.24115405  1
  O  O179  1  0.00490417  0.36792551  0.76055868  1
  O  O180  1  0.00803940  0.86903255  0.25505463  1
  O  O181  1  -0.00761553  0.84411730  0.74423304  1
  O  O182  1  0.51251005  0.38593001  0.25187883  1
  O  O183  1  0.50769363  0.37746575  0.76214813  1
  O  O184  1  0.51749259  0.85904934  0.24108771  1
  O  O185  1  0.49364216  0.85469371  0.76833974  1
  O  O186  1  0.49558405  0.12430871  0.26489526  1
  O  O187  1  0.46197002  0.12392063  0.74566581  1
  O  O188  1  0.49144937  0.64134188  0.25106527  1
  O  O189  1  0.48824063  0.63925378  0.76020507  1
  O  O190  1  0.99517387  0.13331965  0.23871332  1
  O  O191  1  0.99499024  0.13021439  0.75293517  1
  O  O192  1  0.99312095  0.63147020  0.24341215  1
  O  O193  1  0.99278386  0.62863091  0.73644519  1
  O  O194  1  0.36584789  0.25222389  0.03396626  1
  O  O195  1  0.36614447  0.26095024  0.50943274  1
  O  O196  1  0.37264462  0.75349352  0.00992073  1
  O  O197  1  0.39510438  0.74265512  0.52069247  1
  O  O198  1  0.87943278  0.26259786  0.01622234  1
  O  O199  1  0.87597239  0.25666890  0.50678210  1
  O  O200  1  0.89118656  0.75505118  0.00465992  1
  O  O201  1  0.87566568  0.75560624  0.50470036  1
  O  O202  1  0.13233918  0.24515189  0.50866397  1
  O  O203  1  0.16564453  0.16812023  0.90522712  1
  O  O204  1  0.12805445  0.74405380  0.51833186  1
  O  O205  1  0.11797497  0.74036947  0.98701848  1
  O  O206  1  0.58824209  0.25181264  0.46591092  1
  O  O207  1  0.59843367  0.21666455  1.00810070  1
  O  O208  1  0.63682614  0.75266712  0.49394113  1
  O  O209  1  0.63172324  0.74323032  0.98822666  1
  O  O210  1  0.49048109  0.26118443  0.13916665  1
  O  O211  1  0.48814307  0.24383893  0.61465217  1
  O  O212  1  0.51663461  0.74762148  0.12606766  1
  O  O213  1  0.50144534  0.75617888  0.64256744  1
  O  O214  1  0.99132387  0.24354574  0.13913914  1
  O  O215  1  1.00509969  0.23493539  0.63848901  1
  O  O216  1  0.99575669  0.73243586  0.13455776  1
  O  O217  1  0.99270222  0.73721140  0.63048205  1
  O  O218  1  -0.00395658  0.24938760  0.36215795  1
  O  O219  1  -0.00140774  0.26355634  0.87528379  1
  O  O220  1  0.00046925  0.76075748  0.36271602  1
  O  O221  1  0.00847457  0.73950003  0.85508426  1
  O  O222  1  0.53365004  0.23563155  0.41554684  1
  O  O223  1  0.49833850  0.26433496  0.86984140  1
  O  O224  1  0.51854776  0.75614614  0.37592768  1
  O  O225  1  0.50818133  0.75488019  0.87105504  1
  O  O226  1  0.25092377  0.13505798  0.49849778  1
  O  O227  1  0.25706684  0.14920029  0.99883279  1
  O  O228  1  0.25809354  0.63599722  0.48059375  1
  O  O229  1  0.24452330  0.61202182  0.99946730  1
  O  O230  1  0.77604573  0.12321568  0.48288156  1
  O  O231  1  0.73685481  0.10018217  0.97659405  1
  O  O232  1  0.75860158  0.64065148  0.49493431  1
  O  O233  1  0.73835071  0.63528310  1.01228363  1
  O  O234  1  0.25222871  0.38056004  0.01174971  1
  O  O235  1  0.25079489  0.35740282  0.51221806  1
  O  O236  1  0.25484913  0.86991846  0.00020199  1
  O  O237  1  0.24737069  0.84943869  0.50133684  1
  O  O238  1  0.75762499  0.38156480  0.01353139  1
  O  O239  1  0.73664530  0.34416013  0.50013195  1
  O  O240  1  0.75180648  0.87686509  0.00933301  1
  O  O241  1  0.77074841  0.86395220  0.49185903  1
  O  O242  1  0.14292464  0.51110692  0.24120953  1
  O  O243  1  0.11917283  0.48509656  0.73975012  1
  O  O244  1  0.13687484  1.00181270  0.23917428  1
  O  O245  1  0.14186132  1.00771470  0.75315387  1
  O  O246  1  0.63378896  0.50124916  0.24026460  1
  O  O247  1  0.62222803  0.50830185  0.72795102  1
  O  O248  1  0.61979356  0.98605306  0.26158796  1
  O  O249  1  0.61333549  0.98679015  0.74910805  1
  O  O250  1  0.35790716  -0.00586212  0.24922821  1
  O  O251  1  0.36159577  -0.01608905  0.76212289  1
  O  O252  1  0.36615105  0.52405644  0.24576916  1
  O  O253  1  0.38047955  0.51237017  0.74471206  1
  O  O254  1  0.88926031  0.01084823  0.26030199  1
  O  O255  1  0.86558483  0.00831643  0.75102864  1
  O  O256  1  0.87026805  0.50614945  0.25859691  1
  O  O257  1  0.88231459  0.50914465  0.75868937  1
  O  O258  1  0.12621227  0.39627407  0.39166970  1
  O  O259  1  0.11566852  0.38585882  0.86932774  1
  O  O260  1  0.11806090  0.88224923  0.38049312  1
  O  O261  1  0.10293239  0.84968102  0.88162828  1
  O  O262  1  0.62974416  0.38594281  0.35997900  1
  O  O263  1  0.61975555  0.38705306  0.86396332  1
  O  O264  1  0.63736628  0.86700287  0.36030237  1
  O  O265  1  0.61499423  0.86083727  0.88463507  1
  O  O266  1  0.39494329  0.13411828  0.12704111  1
  O  O267  1  0.37703215  0.14335794  0.62018802  1
  O  O268  1  0.36677546  0.64158574  0.13441416  1
  O  O269  1  0.37521799  0.63276072  0.63979960  1
  O  O270  1  0.86215272  0.13466382  0.13641442  1
  O  O271  1  0.89254603  0.12122100  0.64677148  1
  O  O272  1  0.88747800  0.61065293  0.14029598  1
  O  O273  1  0.88388510  0.62650093  0.63273716  1
  O  O274  1  0.23193604  0.27277596  0.12623471  1
  O  O275  1  0.25354543  0.25410451  0.61775656  1
  O  O276  1  0.25157515  0.75207193  0.12511804  1
  O  O277  1  0.26357041  0.73550054  0.60957414  1
  O  O278  1  0.75649763  0.26162121  0.13571711  1
  O  O279  1  0.74010797  0.21068680  0.59325393  1
  O  O280  1  0.74833391  0.77312902  0.12076779  1
  O  O281  1  0.76404334  0.74371952  0.61605946  1
  O  O282  1  0.24306354  0.24121913  0.39157714  1
  O  O283  1  0.32656921  0.22870351  0.86139233  1
  O  O284  1  0.23426583  0.74432697  0.38668980  1
  O  O285  1  0.23221920  0.74871275  0.87079244  1
  O  O286  1  0.75489151  0.23208424  0.38976289  1
  O  O287  1  0.75811483  0.22848610  0.89157230  1
  O  O288  1  0.74564193  0.75030592  0.38104767  1
  O  O289  1  0.73866799  0.75537113  0.87369660  1
  O  O290  1  -0.00390465  0.14175683  0.02738617  1
  O  O291  1  -0.00613434  0.11755030  0.51887915  1
  O  O292  1  -0.01253754  0.61334947  0.01329358  1
  O  O293  1  -0.00453778  0.62689430  0.51147640  1
  O  O294  1  0.54249739  0.16877534  -0.00138878  1
  O  O295  1  0.49958868  0.10804925  0.52677132  1
  O  O296  1  0.52283024  0.63333507  0.00511468  1
  O  O297  1  0.48306308  0.56463909  0.44968152  1
  O  O298  1  0.47831382  0.38398731  0.50108186  1
  O  O299  1  0.51740282  0.37542618  0.97885515  1
  O  O300  1  0.49283079  0.89245870  0.52086645  1
  O  O301  1  0.49124709  0.86653517  0.98689454  1
  O  O302  1  1.00335560  0.37553006  0.49849872  1
  O  O303  1  0.99182147  0.38040566  0.99978425  1
  O  O304  1  0.99837113  0.87948860  0.49188089  1
  O  O305  1  0.99112537  0.90921639  0.97218480  1
  O  O306  1  0.48982213  0.52147344  0.38963594  1
  O  O307  1  0.49235354  0.49867679  0.87409685  1
  O  O308  1  0.48333967  1.00518605  0.40756701  1
  O  O309  1  0.48636228  0.97748872  0.86534706  1
  O  O310  1  0.99343757  0.49731994  0.37517736  1
  O  O311  1  0.99130879  0.48969337  0.88438085  1
  O  O312  1  1.00125418  0.99535964  0.38321684  1
  O  O313  1  0.99552394  0.96603053  0.81752948  1
  O  O314  1  0.00417691  0.02190696  0.11503931  1
  O  O315  1  0.00661900  0.00760750  0.62534374  1
  O  O316  1  0.00690560  0.50267508  0.12184577  1
  O  O317  1  0.01379208  0.50305536  0.62466980  1
  O  O318  1  0.51701158  -0.00521717  0.12891210  1
  O  O319  1  0.49105179  0.01205851  0.63121241  1
  O  O320  1  0.51243140  0.49983168  0.12993449  1
  O  O321  1  0.49861285  0.50714349  0.61676150  1
  O  O322  1  0.25838876  0.39738562  0.26138235  1
  O  O323  1  0.24036112  0.36666023  0.74086703  1
  O  O324  1  0.23457095  0.89005936  0.22892801  1
  O  O325  1  0.24400389  0.87540177  0.75436870  1
  O  O326  1  0.74428649  0.38287178  0.24395088  1
  O  O327  1  0.78658091  0.41967138  0.64891273  1
  O  O328  1  0.73929941  0.87450207  0.23817852  1
  O  O329  1  0.73993599  0.87885249  0.74406406  1
  O  O330  1  0.25176258  0.10593668  0.26600943  1
  O  O331  1  0.27336693  0.12730588  0.74885238  1
  O  O332  1  0.26231484  0.63039301  0.26603148  1
  O  O333  1  0.26928234  0.62916168  0.76188010  1
  O  O334  1  0.76302686  0.12980912  0.27025552  1
  O  O335  1  0.76737436  0.13622484  0.76122526  1
  O  O336  1  0.76405276  0.61883654  0.24502960  1
  O  O337  1  0.76603407  0.62331230  0.74422618  1
  O  O338  1  0.35662129  0.12973744  0.37933510  1
  O  O339  1  0.38838403  0.09738196  0.87734428  1
  O  O340  1  0.37637938  0.65904272  0.35724376  1
  O  O341  1  0.37930790  0.61221658  0.87119440  1
  O  O342  1  0.88406929  0.11569186  0.36664026  1
  O  O343  1  0.88378024  0.12320758  0.86399690  1
  O  O344  1  0.87937224  0.61685011  0.35886932  1
  O  O345  1  0.88041098  0.61528658  0.85997006  1
  O  O346  1  0.13655518  0.39336909  0.12433070  1
  O  O347  1  0.12960312  0.37843949  0.63618279  1
  O  O348  1  0.07162525  0.87128591  0.09423065  1
  O  O349  1  0.11214742  0.89411566  0.63891080  1
  O  O350  1  0.63179295  0.39007913  0.13251279  1
  O  O351  1  0.61550037  0.39466359  0.62575086  1
  O  O352  1  0.63395077  0.88775363  0.13255650  1
  O  O353  1  0.64000024  0.90928209  0.58306337  1
  O  O354  1  0.11439543  0.24673681  0.25475961  1
  O  O355  1  0.11492542  0.26066470  0.75119393  1
  O  O356  1  0.11969102  0.75357835  0.24340839  1
  O  O357  1  0.11616281  0.74219851  0.74382665  1
  O  O358  1  0.62767896  0.26805085  0.24822315  1
  O  O359  1  0.71538625  0.31135935  0.74423732  1
  O  O360  1  0.61939840  0.74804602  0.25434508  1
  O  O361  1  0.61562920  0.73654110  0.76449158  1
  O  O362  1  0.34360117  0.23558030  0.23189476  1
  O  O363  1  0.37403146  0.25680107  0.72774208  1
  O  O364  1  0.39222979  0.74993632  0.22612761  1
  O  O365  1  0.38524296  0.74021326  0.74424618  1
  O  O366  1  0.88054534  0.24206314  0.24434960  1
  O  O367  1  0.88970172  0.24928470  0.75594508  1
  O  O368  1  0.87607214  0.73694835  0.25210113  1
  O  O369  1  0.87961536  0.73338698  0.74035722  1
  O  O370  1  0.34163122  0.47991769  0.49683766  1
  O  O371  1  0.39227618  0.50324724  1.00075786  1
  O  O372  1  0.37074570  0.99406656  0.51791468  1
  O  O373  1  0.36846348  0.98260346  0.98868139  1
  O  O374  1  0.86920920  0.50109816  0.47763609  1
  O  O375  1  0.88253160  0.48998028  0.99665944  1
  O  O376  1  0.89453688  0.98895633  0.49258299  1
  O  O377  1  0.89161956  1.02876064  0.99051768  1
  O  O378  1  0.05588423  0.04696725  -0.06576007  1
  O  O379  1  0.11661748  -0.00357173  0.52092791  1
  O  O380  1  0.11079521  0.49710275  0.00636801  1
  O  O381  1  0.12270806  0.49378911  0.51391824  1
  O  O382  1  0.61840645  -0.00737806  0.00551756  1
  O  O383  1  0.63192996  -0.03464260  0.52918993  1
  O  O384  1  0.63269180  0.51321197  0.01632894  1
  O  O385  1  0.63210979  0.50297607  0.51369189  1
  O  O386  1  0.35956177  0.36663858  0.13944510  1
  O  O387  1  0.36627323  0.36735296  0.62050202  1
  O  O388  1  0.37860070  0.86192193  0.10901044  1
  O  O389  1  0.37308018  0.85407157  0.63678696  1
  O  O390  1  0.86746579  0.36923472  0.12186383  1
  O  O391  1  0.85845503  0.40214624  0.61762075  1
  O  O392  1  0.86953499  0.88670726  0.12427922  1
  O  O393  1  0.88917042  0.86218385  0.61403812  1
  O  O394  1  0.14276482  0.11430701  0.37890707  1
  O  O395  1  0.20566964  0.11744774  0.94477337  1
  O  O396  1  0.13117750  0.62416898  0.37290828  1
  O  O397  1  0.12559869  0.63274950  0.86564829  1
  O  O398  1  0.64611616  0.10305901  0.38774252  1
  O  O399  1  0.62733236  0.13451382  0.85625543  1
  O  O400  1  0.63228806  0.63525155  0.38018678  1
  O  O401  1  0.62642103  0.63293829  0.88714716  1
