# generated using pymatgen
data_V73Zn73O256
_symmetry_space_group_name_H-M   'P 1'
_cell_length_a   16.85153077
_cell_length_b   16.86300156
_cell_length_c   16.84553522
_cell_angle_alpha   90.07423075
_cell_angle_beta   90.09371761
_cell_angle_gamma   90.08700909
_symmetry_Int_Tables_number   1
_chemical_formula_structural   V73Zn73O256
_chemical_formula_sum   'V73 Zn73 O256'
_cell_volume   4786.93581350
_cell_formula_units_Z   1
loop_
 _symmetry_equiv_pos_site_id
 _symmetry_equiv_pos_as_xyz
  1  'x, y, z'
loop_
 _atom_site_type_symbol
 _atom_site_label
 _atom_site_symmetry_multiplicity
 _atom_site_fract_x
 _atom_site_fract_y
 _atom_site_fract_z
 _atom_site_occupancy
  V  V0  1  0.25127124  0.75294352  0.49875852  1
  V  V1  1  0.49193701  0.50295635  0.01073504  1
  V  V2  1  0.24777729  0.76132852  0.00147892  1
  V  V3  1  0.51347320  0.75402145  0.75419709  1
  V  V4  1  0.37361902  0.49695855  0.37255479  1
  V  V5  1  0.00110050  0.37322367  0.86607091  1
  V  V6  1  0.37652012  0.49793196  0.87360186  1
  V  V7  1  -0.00940449  0.51733029  0.49097756  1
  V  V8  1  0.11774613  -0.00746366  0.61384819  1
  V  V9  1  0.24626057  0.62501482  0.37959730  1
  V  V10  1  0.50441022  0.24930411  0.73534916  1
  V  V11  1  0.62188765  0.12891404  -0.00000495  1
  V  V12  1  0.37506288  0.75742256  0.62026658  1
  V  V13  1  0.61850772  0.63277546  -0.00866278  1
  V  V14  1  0.63921918  0.24583945  0.37575453  1
  V  V15  1  0.75562237  0.86868385  0.12363732  1
  V  V16  1  0.12525142  0.11301190  0.00480097  1
  V  V17  1  0.63500029  0.50567746  0.12856593  1
  V  V18  1  0.62107849  0.86893307  0.25547300  1
  V  V19  1  0.62580878  -0.00657090  0.62879478  1
  V  V20  1  0.25272055  0.37682083  0.11689068  1
  V  V21  1  0.88736606  0.37558767  0.00343775  1
  V  V22  1  -0.00324250  0.74038417  0.21708257  1
  V  V23  1  0.50037572  0.36631269  0.88302371  1
  V  V24  1  0.39080436  0.75563798  0.11904714  1
  V  V25  1  0.63397290  0.49227953  0.63252775  1
  V  V26  1  -0.00072660  0.13483454  0.61366864  1
  V  V27  1  0.63746499  0.37349241  0.75479768  1
  V  V28  1  0.84668237  0.60678620  0.73883471  1
  V  V29  1  0.24227622  0.62435580  0.88183654  1
  V  V30  1  0.12809288  0.52364429  0.11763025  1
  V  V31  1  0.63627939  0.13239606  0.50405454  1
  V  V32  1  0.24720025  0.50383909  0.24695015  1
  V  V33  1  0.49445997  0.36660682  0.37616824  1
  V  V34  1  0.35853386  0.24674691  0.62189483  1
  V  V35  1  0.37654761  0.23903155  0.12253778  1
  V  V36  1  0.74984816  0.00311470  0.26032429  1
  V  V37  1  0.00954289  0.51628439  0.00269558  1
  V  V38  1  0.37001431  0.62382589  0.75443947  1
  V  V39  1  0.88176805  0.13183112  0.75642879  1
  V  V40  1  0.24108532  -0.00369111  0.75263614  1
  V  V41  1  0.49695222  0.61660660  0.62565602  1
  V  V42  1  0.74599227  0.25812821  0.00354851  1
  V  V43  1  0.25050716  0.24923620  -0.00838210  1
  V  V44  1  0.63085450  0.37627008  0.24334286  1
  V  V45  1  0.49389275  0.87303437  0.38057781  1
  V  V46  1  0.36372458  0.01237754  0.36200596  1
  V  V47  1  0.11595910  0.74888422  0.37643853  1
  V  V48  1  0.74762096  -0.00477717  0.75003361  1
  V  V49  1  0.52264735  0.87751879  0.87352370  1
  V  V50  1  0.75107618  0.75122811  -0.02097437  1
  V  V51  1  0.49232831  0.23623875  0.24677950  1
  V  V52  1  0.13682761  0.14134493  0.48960850  1
  V  V53  1  0.86519125  0.26300965  0.61531812  1
  V  V54  1  0.87189661  0.61313684  0.21848168  1
  V  V55  1  0.11533232  0.24269088  0.86758934  1
  V  V56  1  0.37487817  -0.00674171  0.87370447  1
  V  V57  1  -0.01030763  0.37428401  0.37817712  1
  V  V58  1  0.62148019  0.00852584  0.12627929  1
  V  V59  1  0.12132292  0.76875159  0.86251064  1
  V  V60  1  0.89514289  0.75737752  0.62718765  1
  V  V61  1  0.38958273  0.63134899  0.24325479  1
  V  V62  1  0.37428661  0.12314739  0.75122230  1
  V  V63  1  0.87919875  0.24873225  0.12901832  1
  V  V64  1  0.49030657  0.00919995  0.50585551  1
  V  V65  1  0.12392232  0.52126535  0.61533784  1
  V  V66  1  0.49697651  0.00085885  0.00208687  1
  V  V67  1  -0.00014578  0.10510910  0.11962084  1
  V  V68  1  0.49787611  0.48838532  0.50699960  1
  V  V69  1  -0.01322708  0.87973522  0.37738872  1
  V  V70  1  0.74683137  0.13097872  0.87545805  1
  V  V71  1  0.87298100  0.11852575  0.26160954  1
  V  V72  1  0.35637213  0.36848976  0.50467613  1
  Zn  Zn73  1  0.18212960  0.40821032  0.71421452  1
  Zn  Zn74  1  0.25249520  0.88085038  0.13128302  1
  Zn  Zn75  1  0.00622030  0.24606104  0.25879216  1
  Zn  Zn76  1  0.12615455  0.87779809  0.24186994  1
  Zn  Zn77  1  0.56060695  0.70078347  0.30630572  1
  Zn  Zn78  1  0.66859344  0.69641680  0.45329160  1
  Zn  Zn79  1  0.24455408  0.87409898  0.62380911  1
  Zn  Zn80  1  0.12521000  0.36852108  0.25116182  1
  Zn  Zn81  1  0.76524564  0.60819656  0.36003662  1
  Zn  Zn82  1  0.19352298  0.18485397  0.18798914  1
  Zn  Zn83  1  0.18624128  0.17860865  0.68568182  1
  Zn  Zn84  1  0.20239827  0.71309503  0.20149003  1
  Zn  Zn85  1  0.18488987  0.68401777  0.69002304  1
  Zn  Zn86  1  0.69054970  0.19080891  0.18898040  1
  Zn  Zn87  1  0.68825601  0.18736268  0.68737393  1
  Zn  Zn88  1  0.69115577  0.68217713  0.17890234  1
  Zn  Zn89  1  0.68686684  0.68804555  0.64629961  1
  Zn  Zn90  1  0.30193367  0.30469295  0.30785875  1
  Zn  Zn91  1  0.31616588  0.30847431  0.81332633  1
  Zn  Zn92  1  0.31658617  0.81709417  0.31323166  1
  Zn  Zn93  1  0.31383620  0.81327778  0.80916829  1
  Zn  Zn94  1  0.77738375  0.39566338  0.36676408  1
  Zn  Zn95  1  0.82155355  0.30880778  0.81539263  1
  Zn  Zn96  1  0.82602596  0.76607547  0.32441282  1
  Zn  Zn97  1  0.76357854  0.77941029  0.77298980  1
  Zn  Zn98  1  0.17173323  0.43620775  0.43798094  1
  Zn  Zn99  1  0.20211482  0.42087071  0.90641160  1
  Zn  Zn100  1  0.18351593  0.93458415  0.43482251  1
  Zn  Zn101  1  0.19230327  0.93423279  0.93669588  1
  Zn  Zn102  1  0.72759017  0.49467862  0.48544937  1
  Zn  Zn103  1  0.68678096  0.44491292  0.93616871  1
  Zn  Zn104  1  0.68151720  0.94227331  0.43914540  1
  Zn  Zn105  1  0.71322587  0.94792680  0.94610335  1
  Zn  Zn106  1  0.31251710  0.06410431  0.06055468  1
  Zn  Zn107  1  0.30620101  0.06517075  0.56305179  1
  Zn  Zn108  1  0.31354392  0.57125933  0.06037865  1
  Zn  Zn109  1  0.30684570  0.55837295  0.56700525  1
  Zn  Zn110  1  0.81287135  0.05742074  0.06220918  1
  Zn  Zn111  1  0.80626951  0.07235077  0.56748291  1
  Zn  Zn112  1  0.80528522  0.55967808  0.03428993  1
  Zn  Zn113  1  0.83788001  0.60904687  0.54280745  1
  Zn  Zn114  1  0.43317357  0.43013703  0.19025406  1
  Zn  Zn115  1  0.43200666  0.42842054  0.69283236  1
  Zn  Zn116  1  0.43562006  0.93918042  0.18931511  1
  Zn  Zn117  1  0.44232569  0.93762953  0.68875261  1
  Zn  Zn118  1  0.94315245  0.43633879  0.18838860  1
  Zn  Zn119  1  0.94141164  0.44970731  0.67571391  1
  Zn  Zn120  1  0.93669145  0.92714223  0.19760237  1
  Zn  Zn121  1  0.92067393  0.95574418  0.66807368  1
  Zn  Zn122  1  0.06500261  0.06539022  0.31084330  1
  Zn  Zn123  1  0.06078865  0.06092916  0.81303126  1
  Zn  Zn124  1  0.05529426  0.56514498  0.30798758  1
  Zn  Zn125  1  0.05778251  0.55848275  0.81378387  1
  Zn  Zn126  1  0.55876118  0.06162402  0.31879368  1
  Zn  Zn127  1  0.56388684  0.07005016  0.81534762  1
  Zn  Zn128  1  0.60509183  0.53411189  0.34746232  1
  Zn  Zn129  1  0.56074816  0.55967256  0.81232029  1
  Zn  Zn130  1  0.43606110  0.18472517  0.44144506  1
  Zn  Zn131  1  0.43436389  0.18202260  0.93556847  1
  Zn  Zn132  1  0.44749477  0.67658022  0.43637709  1
  Zn  Zn133  1  0.44126280  0.69071576  0.93812002  1
  Zn  Zn134  1  0.93657832  0.19446301  0.43856949  1
  Zn  Zn135  1  0.93840542  0.18431008  0.94177439  1
  Zn  Zn136  1  0.93019161  0.69048518  0.43662736  1
  Zn  Zn137  1  0.96299919  0.72845264  0.97510833  1
  Zn  Zn138  1  0.06996274  0.30545127  0.06919522  1
  Zn  Zn139  1  0.06201027  0.32344925  0.56015757  1
  Zn  Zn140  1  0.07251868  0.83702312  0.05752420  1
  Zn  Zn141  1  0.05506533  0.80818799  0.55576219  1
  Zn  Zn142  1  0.56000498  0.31522542  0.06555316  1
  Zn  Zn143  1  0.69421322  0.32254489  0.55329553  1
  Zn  Zn144  1  0.56713610  0.82185817  0.06241288  1
  Zn  Zn145  1  0.56246709  0.81606623  0.56211125  1
  O  O146  1  0.11067024  0.12718230  0.11599457  1
  O  O147  1  0.11289445  0.12051734  0.61802080  1
  O  O148  1  0.13813921  0.62054509  0.12370309  1
  O  O149  1  0.12618264  0.62378931  0.61663233  1
  O  O150  1  0.62941238  0.11849880  0.11603445  1
  O  O151  1  0.62569397  0.12674970  0.60909233  1
  O  O152  1  0.61786634  0.61016219  0.12318796  1
  O  O153  1  0.60455178  0.60237837  0.63865467  1
  O  O154  1  0.37265831  0.37214886  0.37918070  1
  O  O155  1  0.39156736  0.38415759  0.87343499  1
  O  O156  1  0.38967981  0.88679579  0.37024991  1
  O  O157  1  0.38418292  0.88973968  0.86722081  1
  O  O158  1  0.89006761  0.38573898  0.36123122  1
  O  O159  1  0.88978220  0.36514458  0.89226751  1
  O  O160  1  0.88806582  0.85774965  0.36032919  1
  O  O161  1  0.91412076  0.89426448  0.89605726  1
  O  O162  1  0.26624918  -0.01179711  0.37907843  1
  O  O163  1  0.25819699  -0.00299772  0.85977660  1
  O  O164  1  0.25321470  0.50665735  0.36618216  1
  O  O165  1  0.26397327  0.51834847  0.89266290  1
  O  O166  1  0.74332850  -0.00097920  0.35901115  1
  O  O167  1  0.73385678  0.01962145  0.85616405  1
  O  O168  1  0.71650252  0.50236856  0.36630020  1
  O  O169  1  0.77123164  0.51597262  0.93296121  1
  O  O170  1  0.24511681  0.49878737  0.12423316  1
  O  O171  1  0.23029068  0.50046522  0.62542028  1
  O  O172  1  0.25498368  1.00464466  0.14712253  1
  O  O173  1  0.23726110  0.99898668  0.63192505  1
  O  O174  1  0.73231301  0.49845701  0.11735124  1
  O  O175  1  0.72958939  0.50491493  0.61831901  1
  O  O176  1  0.73512511  0.99338714  0.13143188  1
  O  O177  1  0.73636187  1.00902975  0.63655199  1
  O  O178  1  0.00525456  0.36961850  0.25384269  1
  O  O179  1  -0.00977572  0.38472849  0.76908209  1
  O  O180  1  0.00678210  0.85277939  0.24999552  1
  O  O181  1  -0.03993735  0.93222269  0.85063905  1
  O  O182  1  0.50053053  0.36484157  0.25934485  1
  O  O183  1  0.50284937  0.36217753  0.76105950  1
  O  O184  1  0.51384849  0.88769899  0.26387383  1
  O  O185  1  0.50302140  0.86472124  0.75817721  1
  O  O186  1  0.50448855  0.13793560  0.24824479  1
  O  O187  1  0.49323300  0.14275147  0.75599647  1
  O  O188  1  0.48855098  0.62288352  0.25135499  1
  O  O189  1  0.49152268  0.63594760  0.74904229  1
  O  O190  1  0.98758794  0.12222515  0.23803050  1
  O  O191  1  0.98536650  0.12041261  0.74494066  1
  O  O192  1  0.99038799  0.63284342  0.24038271  1
  O  O193  1  0.95782943  0.62323920  0.79664177  1
  O  O194  1  0.36177111  0.24014677  0.00663053  1
  O  O195  1  0.37403296  0.25557333  0.51232519  1
  O  O196  1  0.37513883  0.74778058  0.01255034  1
  O  O197  1  0.37394357  0.74191728  0.51544969  1
  O  O198  1  0.86871636  0.25259543  0.00930479  1
  O  O199  1  0.87128995  0.24467540  0.51594430  1
  O  O200  1  0.84883443  0.73863470  -0.01310066  1
  O  O201  1  0.86905170  0.73044100  0.52561611  1
  O  O202  1  0.11916674  0.23920381  0.50648219  1
  O  O203  1  0.13431577  0.23954660  0.99510795  1
  O  O204  1  0.13475298  0.75029040  0.48512882  1
  O  O205  1  0.14456258  0.75714812  0.98729513  1
  O  O206  1  0.62823229  0.24335476  0.48804942  1
  O  O207  1  0.63832230  0.24691750  1.01259503  1
  O  O208  1  0.64095396  0.73962244  0.55085525  1
  O  O209  1  0.60994480  0.73554863  1.00024175  1
  O  O210  1  0.48668140  0.25467219  0.13101026  1
  O  O211  1  0.48687157  0.25505900  0.63826871  1
  O  O212  1  0.49009586  0.75776445  0.12309962  1
  O  O213  1  0.48914780  0.74140551  0.63403206  1
  O  O214  1  0.98767764  0.23746831  0.12455120  1
  O  O215  1  0.99205937  0.23721951  0.62474383  1
  O  O216  1  1.01866830  0.74245634  0.12008800  1
  O  O217  1  0.99687876  0.74625362  0.63024726  1
  O  O218  1  -0.00566704  0.26500007  0.37382837  1
  O  O219  1  0.00685590  0.25524773  0.87652979  1
  O  O220  1  0.01230821  0.75409732  0.37933269  1
  O  O221  1  0.02511480  0.74248617  0.87708925  1
  O  O222  1  0.49262743  0.25108507  0.36142003  1
  O  O223  1  0.49516404  0.26334933  0.87688160  1
  O  O224  1  0.49195777  0.76894285  0.38033406  1
  O  O225  1  0.49972845  0.76391310  0.86492367  1
  O  O226  1  0.23743528  0.13109462  0.50240171  1
  O  O227  1  0.23545470  0.13566640  1.01014781  1
  O  O228  1  0.26211690  0.63366879  0.48699447  1
  O  O229  1  0.25870820  0.64084090  0.98622626  1
  O  O230  1  0.73562943  0.11929335  0.49219884  1
  O  O231  1  0.74130938  0.13486983  0.99381312  1
  O  O232  1  0.74227002  0.60719891  0.48484421  1
  O  O233  1  0.72667183  0.64705483  1.01242829  1
  O  O234  1  0.24528949  0.35810691  0.00088032  1
  O  O235  1  0.25873288  0.37304333  0.48941117  1
  O  O236  1  0.26036099  0.86630809  0.00204412  1
  O  O237  1  0.24864145  0.85800397  0.50315447  1
  O  O238  1  0.76261495  0.36134641  -0.00293493  1
  O  O239  1  0.74813285  0.38532274  0.47926354  1
  O  O240  1  0.72565879  0.85556291  0.01433279  1
  O  O241  1  0.78670687  0.91245222  0.49937940  1
  O  O242  1  0.13557703  0.50724088  0.23431408  1
  O  O243  1  0.10936800  0.50908369  0.72849441  1
  O  O244  1  0.15507339  1.00809546  0.24556295  1
  O  O245  1  0.13687005  1.00811647  0.74268252  1
  O  O246  1  0.61136194  0.48610200  0.23860611  1
  O  O247  1  0.61581924  0.48358732  0.74323504  1
  O  O248  1  0.63092400  1.00242782  0.24526413  1
  O  O249  1  0.62894862  1.01508867  0.73581934  1
  O  O250  1  0.37976886  0.00611404  0.26186004  1
  O  O251  1  0.37318459  0.00696208  0.75123624  1
  O  O252  1  0.36781685  0.50947751  0.25104112  1
  O  O253  1  0.38377419  0.51002162  0.76264717  1
  O  O254  1  0.86062186  0.00758617  0.24580116  1
  O  O255  1  0.85719976  0.01818943  0.74097887  1
  O  O256  1  0.88250057  0.51465271  0.24098894  1
  O  O257  1  0.86125420  0.50582012  0.73487046  1
  O  O258  1  0.11086707  0.37814883  0.36548892  1
  O  O259  1  0.10975102  0.35546863  0.88313476  1
  O  O260  1  0.12158744  0.86027492  0.36608300  1
  O  O261  1  0.12457882  0.87004627  0.87262615  1
  O  O262  1  0.60814599  0.35720351  0.36308808  1
  O  O263  1  0.61227139  0.38492238  0.86631128  1
  O  O264  1  0.61860164  0.87844921  0.36410311  1
  O  O265  1  0.61988837  0.88633745  0.87354273  1
  O  O266  1  0.37042590  0.13986156  0.12812427  1
  O  O267  1  0.37307025  0.13976774  0.63194719  1
  O  O268  1  0.37508387  0.63506950  0.13582470  1
  O  O269  1  0.37881228  0.62751257  0.63707696  1
  O  O270  1  0.88517646  0.12611553  0.12154103  1
  O  O271  1  0.88424512  0.12799171  0.63070621  1
  O  O272  1  0.86813905  0.61450662  0.11691937  1
  O  O273  1  0.88388907  0.63155681  0.64204150  1
  O  O274  1  0.25959857  0.25570103  0.11555705  1
  O  O275  1  0.26003192  0.25316543  0.63647003  1
  O  O276  1  0.25912282  0.74340214  0.10545129  1
  O  O277  1  0.26238981  0.74732490  0.62003819  1
  O  O278  1  0.76463990  0.24053467  0.11276207  1
  O  O279  1  0.75745588  0.25490022  0.62437983  1
  O  O280  1  0.74663286  0.76739137  0.12847016  1
  O  O281  1  0.77062029  0.76455037  0.65747494  1
  O  O282  1  0.23893751  0.21195557  0.29225746  1
  O  O283  1  0.24152854  0.24605826  0.88725915  1
  O  O284  1  0.24731145  0.74321931  0.38169492  1
  O  O285  1  0.25299813  0.74447448  0.88237319  1
  O  O286  1  0.73454371  0.25307231  0.36436162  1
  O  O287  1  0.75698827  0.24268066  0.89153518  1
  O  O288  1  0.72497570  0.72730414  0.35820070  1
  O  O289  1  0.73445942  0.76000587  0.88063411  1
  O  O290  1  0.00750678  0.12093382  0.01069973  1
  O  O291  1  -0.00087989  0.12227434  0.51205325  1
  O  O292  1  -0.00552653  0.61285560  -0.00758295  1
  O  O293  1  0.00522597  0.61729630  0.48348127  1
  O  O294  1  0.51039844  0.11498944  -0.00802530  1
  O  O295  1  0.51053567  0.11272949  0.49727078  1
  O  O296  1  0.50454523  0.61097010  0.00019063  1
  O  O297  1  0.48297504  0.60323622  0.51748659  1
  O  O298  1  0.48070536  0.37525877  0.48785256  1
  O  O299  1  0.50753635  0.38540753  0.98910249  1
  O  O300  1  0.51095915  0.88957356  0.48788044  1
  O  O301  1  0.50722498  0.88772062  0.98376234  1
  O  O302  1  0.99862970  0.38461951  0.48409647  1
  O  O303  1  0.99339465  0.36621541  0.99987529  1
  O  O304  1  1.00147159  0.87661574  0.47836020  1
  O  O305  1  0.97813503  0.83851151  1.00338353  1
  O  O306  1  0.49447781  0.48491429  0.38547829  1
  O  O307  1  0.49292936  0.49298678  0.88530533  1
  O  O308  1  0.49189092  0.99570699  0.38789887  1
  O  O309  1  0.49826856  0.99177673  0.87637623  1
  O  O310  1  1.00699212  0.49402208  0.38179137  1
  O  O311  1  1.01277819  0.48165879  0.89532977  1
  O  O312  1  1.00391977  0.97649106  0.34841225  1
  O  O313  1  0.99894287  0.99604961  0.88726413  1
  O  O314  1  -0.00489275  0.00644420  0.12950264  1
  O  O315  1  0.01245216  0.01224893  0.63289758  1
  O  O316  1  0.01967172  0.49995947  0.11543940  1
  O  O317  1  0.00819712  0.50380983  0.60237876  1
  O  O318  1  0.50658789  -0.00643622  0.11266050  1
  O  O319  1  0.50926704  -0.00141917  0.61505349  1
  O  O320  1  0.49691535  0.48932473  0.11230385  1
  O  O321  1  0.49220432  0.49946585  0.62410099  1
  O  O322  1  0.25218382  0.39290262  0.24086296  1
  O  O323  1  0.24649888  0.39268242  0.79928567  1
  O  O324  1  0.23508807  0.83053551  0.23810199  1
  O  O325  1  0.25731615  0.89204906  0.74207412  1
  O  O326  1  0.72855448  0.37178496  0.25748036  1
  O  O327  1  0.73540404  0.36903809  0.76847397  1
  O  O328  1  0.73460823  0.88863385  0.24095040  1
  O  O329  1  0.75179362  0.89806730  0.76161785  1
  O  O330  1  0.21686001  0.04764051  0.20915922  1
  O  O331  1  0.26330069  0.11024758  0.74375302  1
  O  O332  1  0.25936157  0.61937364  0.25824446  1
  O  O333  1  0.26313700  0.63155675  0.76637723  1
  O  O334  1  0.76006326  0.11400089  0.24448100  1
  O  O335  1  0.75605391  0.12780573  0.75890318  1
  O  O336  1  0.76594087  0.62243291  0.23822079  1
  O  O337  1  0.74627577  0.62605707  0.74004720  1
  O  O338  1  0.37231527  0.11182263  0.38247425  1
  O  O339  1  0.37994255  0.11165717  0.86142675  1
  O  O340  1  0.37118005  0.61794736  0.36441602  1
  O  O341  1  0.37588741  0.61932268  0.86993103  1
  O  O342  1  0.88161615  0.12557447  0.35963140  1
  O  O343  1  0.86900996  0.13128037  0.86288703  1
  O  O344  1  0.87108182  0.65323612  0.34759709  1
  O  O345  1  0.89347703  0.61693875  0.84574313  1
  O  O346  1  0.14182573  0.37917491  0.12546924  1
  O  O347  1  0.11754157  0.39218868  0.62722217  1
  O  O348  1  0.13706768  0.89000584  0.12616189  1
  O  O349  1  0.11940603  0.88955749  0.61805162  1
  O  O350  1  0.62106709  0.38174099  0.13662552  1
  O  O351  1  0.63098600  0.38016396  0.64132818  1
  O  O352  1  0.62495284  0.88916338  0.13803682  1
  O  O353  1  0.62517537  0.89461620  0.62635052  1
  O  O354  1  0.11868240  0.25181865  0.23778935  1
  O  O355  1  0.13057969  0.23620706  0.76906090  1
  O  O356  1  0.10725714  0.73775779  0.26305868  1
  O  O357  1  0.13943397  0.75553962  0.76267982  1
  O  O358  1  0.61288153  0.25535970  0.25128036  1
  O  O359  1  0.61352416  0.26019543  0.74488371  1
  O  O360  1  0.61992383  0.76699281  0.23614783  1
  O  O361  1  0.61019858  0.74483123  0.74158493  1
  O  O362  1  0.38553239  0.25203720  0.23675824  1
  O  O363  1  0.38079304  0.24506332  0.74342585  1
  O  O364  1  0.37569028  0.73656788  0.24307332  1
  O  O365  1  0.38104065  0.74257179  0.74068597  1
  O  O366  1  0.87063819  0.22978856  0.23336080  1
  O  O367  1  0.87045313  0.23658375  0.73789301  1
  O  O368  1  0.89213263  0.74412320  0.22233021  1
  O  O369  1  0.86796269  0.73621689  0.74011278  1
  O  O370  1  0.37504931  0.48387983  0.49654371  1
  O  O371  1  0.38613871  0.50484793  0.99361526  1
  O  O372  1  0.38804892  1.00409187  0.50555817  1
  O  O373  1  0.38513187  1.01034569  0.98916175  1
  O  O374  1  0.88827860  0.51126730  0.49829735  1
  O  O375  1  0.89872632  0.48038085  1.01637660  1
  O  O376  1  0.83866493  0.96839208  0.50198455  1
  O  O377  1  0.81859482  0.98582481  0.97842650  1
  O  O378  1  0.13585559  0.01453275  -0.00401030  1
  O  O379  1  0.12919951  0.00942161  0.51201534  1
  O  O380  1  0.12022840  0.50426938  0.00943191  1
  O  O381  1  0.11739989  0.50672742  0.50641711  1
  O  O382  1  0.61970841  0.01013603  0.00697586  1
  O  O383  1  0.62024498  0.01078400  0.51004329  1
  O  O384  1  0.61221373  0.50572850  0.01308121  1
  O  O385  1  0.60369130  0.48445328  0.52207490  1
  O  O386  1  0.36066531  0.36567725  0.12439375  1
  O  O387  1  0.37053806  0.36486514  0.61449519  1
  O  O388  1  0.36993318  0.85975617  0.13653119  1
  O  O389  1  0.37804193  0.85925202  0.62803641  1
  O  O390  1  0.88174540  0.35761053  0.11784651  1
  O  O391  1  0.88453343  0.35934021  0.62938042  1
  O  O392  1  0.85342844  0.88633906  0.12656978  1
  O  O393  1  0.89026948  0.86060548  0.62751146  1
  O  O394  1  0.11556195  0.12399768  0.39157165  1
  O  O395  1  0.11069915  0.13425141  0.89145860  1
  O  O396  1  0.13765742  0.63491242  0.36875856  1
  O  O397  1  0.14165572  0.62558646  0.87037480  1
  O  O398  1  0.61897793  0.13880732  0.38294516  1
  O  O399  1  0.63167544  0.13156862  0.88819900  1
  O  O400  1  0.58271344  0.63486447  0.39444091  1
  O  O401  1  0.62115967  0.61574729  0.89219565  1
