# generated using pymatgen
data_V73Zn73O256
_symmetry_space_group_name_H-M   'P 1'
_cell_length_a   16.89355584
_cell_length_b   16.91748417
_cell_length_c   16.87905955
_cell_angle_alpha   90.07157392
_cell_angle_beta   90.12496492
_cell_angle_gamma   89.74799434
_symmetry_Int_Tables_number   1
_chemical_formula_structural   V73Zn73O256
_chemical_formula_sum   'V73 Zn73 O256'
_cell_volume   4823.91368780
_cell_formula_units_Z   1
loop_
 _symmetry_equiv_pos_site_id
 _symmetry_equiv_pos_as_xyz
  1  'x, y, z'
loop_
 _atom_site_type_symbol
 _atom_site_label
 _atom_site_symmetry_multiplicity
 _atom_site_fract_x
 _atom_site_fract_y
 _atom_site_fract_z
 _atom_site_occupancy
  V  V0  1  0.12847231  0.11771035  0.01647353  1
  V  V1  1  0.50063731  0.76678998  0.74703374  1
  V  V2  1  0.37572231  0.86358490  0.49525059  1
  V  V3  1  0.37997027  0.37014148  0.49817854  1
  V  V4  1  0.49979225  0.12748241  0.62852100  1
  V  V5  1  0.49753047  0.50592953  0.00848561  1
  V  V6  1  0.38562763  0.77769779  0.15637486  1
  V  V7  1  0.36683840  0.61816529  0.24636936  1
  V  V8  1  0.75103777  0.50613126  0.75419639  1
  V  V9  1  -0.01391783  0.12018724  0.12482099  1
  V  V10  1  0.88537259  0.24042388  0.64140097  1
  V  V11  1  0.74610362  0.72306120  0.49682128  1
  V  V12  1  0.08715795  0.01631813  0.61108295  1
  V  V13  1  0.86985803  0.37233014  0.01198734  1
  V  V14  1  0.36678447  0.11667245  0.75570884  1
  V  V15  1  0.74901369  0.87648001  0.61428940  1
  V  V16  1  0.74878917  0.62989662  0.88045865  1
  V  V17  1  0.24334834  0.25483444  0.50406800  1
  V  V18  1  0.75030096  -0.00526552  0.24345685  1
  V  V19  1  0.75954929  -0.00874845  0.76020731  1
  V  V20  1  0.62699311  0.12727093  0.49354584  1
  V  V21  1  0.10508231  0.23320911  0.38847352  1
  V  V22  1  0.00406584  0.50989276  0.01121440  1
  V  V23  1  0.50260395  -0.00325384  0.50029892  1
  V  V24  1  0.74452975  0.25001892  0.50468733  1
  V  V25  1  0.02122740  0.86834878  0.88117690  1
  V  V26  1  0.24401425  0.11928323  0.37422249  1
  V  V27  1  -0.01070333  0.60629846  0.62373631  1
  V  V28  1  0.15041935  0.49436696  0.62178305  1
  V  V29  1  0.75688252  0.50694953  0.25831222  1
  V  V30  1  0.01271790  0.38159302  0.87703170  1
  V  V31  1  0.50552742  0.50166437  0.48513651  1
  V  V32  1  0.75836697  0.12748498  0.86892169  1
  V  V33  1  0.36835496  0.75013197  0.61950249  1
  V  V34  1  0.75222783  0.25201409  0.01835961  1
  V  V35  1  0.50291582  -0.01060455  -0.00316261  1
  V  V36  1  0.62347091  0.74250983  0.37178503  1
  V  V37  1  -0.01125530  0.38062023  0.37536085  1
  V  V38  1  0.87622598  0.50624326  0.87733802  1
  V  V39  1  0.12393015  0.36447342  0.25773175  1
  V  V40  1  0.12471536  0.62120993  0.49037146  1
  V  V41  1  0.62508222  -0.00298905  0.63683379  1
  V  V42  1  0.07293709  0.20479886  0.82500324  1
  V  V43  1  0.49677138  0.62253228  0.62983599  1
  V  V44  1  0.87918461  0.65201304  0.23937353  1
  V  V45  1  0.62915538  0.25041816  0.87535484  1
  V  V46  1  0.49708300  0.38219371  0.87800882  1
  V  V47  1  0.24937980  0.37007491  0.13698875  1
  V  V48  1  0.88279874  -0.01871659  0.38751994  1
  V  V49  1  0.76776557  0.12911876  0.37454482  1
  V  V50  1  0.61587324  0.12907518  0.01263188  1
  V  V51  1  0.50029758  0.24953281  0.74978537  1
  V  V52  1  0.61977257  0.62720373  0.00190827  1
  V  V53  1  0.24338607  -0.02992534  0.73476035  1
  V  V54  1  0.62183622  0.50459884  0.62545269  1
  V  V55  1  0.24370741  0.24988705  -0.00319027  1
  V  V56  1  0.63483163  0.49105491  0.12517038  1
  V  V57  1  0.62130432  0.76171682  0.87065986  1
  V  V58  1  0.37543217  0.37714117  0.00333873  1
  V  V59  1  0.62640541  0.36618306  0.26352206  1
  V  V60  1  0.01821297  0.75328972  0.74855286  1
  V  V61  1  0.37751192  0.00378957  0.37717778  1
  V  V62  1  0.33915443  0.87159910  -0.02403719  1
  V  V63  1  0.38383662  0.12318132  0.24825476  1
  V  V64  1  0.86898393  0.74786381  0.63913540  1
  V  V65  1  0.87424455  0.38083112  0.50091237  1
  V  V66  1  0.38603616  0.24870581  0.13185040  1
  V  V67  1  0.74542477  0.37452833  0.63086162  1
  V  V68  1  0.23164317  0.64370324  0.93008783  1
  V  V69  1  0.12424946  0.49584842  0.13692660  1
  V  V70  1  0.85500029  0.86444592  0.00488724  1
  V  V71  1  0.34202519  0.49582502  0.37036750  1
  V  V72  1  -0.02412039  0.24820771  0.24085473  1
  Zn  Zn73  1  0.36706599  0.25529041  0.63051309  1
  Zn  Zn74  1  0.51573810  0.86552946  0.34401846  1
  Zn  Zn75  1  0.89654256  0.00146960  0.88488490  1
  Zn  Zn76  1  0.02566780  0.66648134  0.12151011  1
  Zn  Zn77  1  0.50584758  0.25133598  0.26683569  1
  Zn  Zn78  1  0.62190155  0.37685824  0.75201417  1
  Zn  Zn79  1  0.25011417  0.11645672  0.87750056  1
  Zn  Zn80  1  0.87404822  0.52080818  0.38535417  1
  Zn  Zn81  1  0.13258111  0.38004641  0.74657871  1
  Zn  Zn82  1  0.18981345  0.18419125  0.19530831  1
  Zn  Zn83  1  0.17834333  0.18489561  0.67654074  1
  Zn  Zn84  1  0.20764265  0.68699929  0.14389453  1
  Zn  Zn85  1  0.16218381  0.71350184  0.63046135  1
  Zn  Zn86  1  0.68416399  0.16842490  0.20176110  1
  Zn  Zn87  1  0.68977156  0.18445886  0.68831624  1
  Zn  Zn88  1  0.67702453  0.67781717  0.19536667  1
  Zn  Zn89  1  0.68319297  0.68825523  0.68973819  1
  Zn  Zn90  1  0.31177024  0.30475131  0.32191771  1
  Zn  Zn91  1  0.31875244  0.30514347  0.81883535  1
  Zn  Zn92  1  0.31329681  0.83588866  0.30444325  1
  Zn  Zn93  1  0.30580557  0.77730556  0.81146060  1
  Zn  Zn94  1  0.80101650  0.31666327  0.31276914  1
  Zn  Zn95  1  0.81734797  0.31914874  0.82031157  1
  Zn  Zn96  1  0.79434198  0.81861586  0.31483505  1
  Zn  Zn97  1  0.81830681  0.81616662  0.82504251  1
  Zn  Zn98  1  0.17409033  0.42884091  0.44587793  1
  Zn  Zn99  1  0.19082544  0.45516379  0.94000437  1
  Zn  Zn100  1  0.19715229  0.91956192  0.54753593  1
  Zn  Zn101  1  0.18653179  0.94025009  0.92300042  1
  Zn  Zn102  1  0.69375060  0.44683240  0.44001150  1
  Zn  Zn103  1  0.68760521  0.43743749  0.93932988  1
  Zn  Zn104  1  0.68841599  0.94081123  0.43199944  1
  Zn  Zn105  1  0.68285999  0.94154312  0.94540572  1
  Zn  Zn106  1  0.32588283  0.04450476  0.07188975  1
  Zn  Zn107  1  0.31013663  0.06645348  0.56101481  1
  Zn  Zn108  1  0.31466361  0.55562478  0.07618975  1
  Zn  Zn109  1  0.31632244  0.57191826  0.54283501  1
  Zn  Zn110  1  0.80910723  0.06035695  0.04828075  1
  Zn  Zn111  1  0.82346502  0.06111506  0.56527059  1
  Zn  Zn112  1  0.81316433  0.57078981  0.06352838  1
  Zn  Zn113  1  0.81486924  0.56094493  0.57123852  1
  Zn  Zn114  1  0.44191261  0.44048294  0.19363148  1
  Zn  Zn115  1  0.43230831  0.43308297  0.68382961  1
  Zn  Zn116  1  0.45868142  0.95498778  0.17874778  1
  Zn  Zn117  1  0.42920205  0.93851205  0.68306266  1
  Zn  Zn118  1  0.93599119  0.43515306  0.19136391  1
  Zn  Zn119  1  0.93043704  0.42761016  0.69678867  1
  Zn  Zn120  1  0.89735999  0.96169655  0.16656691  1
  Zn  Zn121  1  0.93609018  0.93324973  0.69025848  1
  Zn  Zn122  1  0.05055113  0.05704532  0.30874359  1
  Zn  Zn123  1  0.08036946  0.03505207  0.80588273  1
  Zn  Zn124  1  0.04732090  0.57131892  0.30148502  1
  Zn  Zn125  1  0.08929304  0.58377173  0.79013427  1
  Zn  Zn126  1  0.56024689  0.03975048  0.29357556  1
  Zn  Zn127  1  0.56128546  0.06076665  0.82090898  1
  Zn  Zn128  1  0.56343014  0.57240117  0.30450876  1
  Zn  Zn129  1  0.56025149  0.56602994  0.81189725  1
  Zn  Zn130  1  0.43798256  0.18301307  0.43827064  1
  Zn  Zn131  1  0.43282487  0.19244582  0.93533991  1
  Zn  Zn132  1  0.44947104  0.66839184  0.40535109  1
  Zn  Zn133  1  0.42755158  0.69848087  0.93664147  1
  Zn  Zn134  1  0.93505063  0.19932441  0.44671930  1
  Zn  Zn135  1  0.93698077  0.18758214  0.94804577  1
  Zn  Zn136  1  0.92434401  0.68507372  0.44501428  1
  Zn  Zn137  1  0.94308223  0.69272061  0.93598221  1
  Zn  Zn138  1  0.05844938  0.31308009  0.06455557  1
  Zn  Zn139  1  0.05794411  0.32001994  0.56800266  1
  Zn  Zn140  1  0.13718765  0.79667918  0.01544816  1
  Zn  Zn141  1  0.04642698  0.81389571  0.55240890  1
  Zn  Zn142  1  0.56586584  0.31316632  0.06609397  1
  Zn  Zn143  1  0.56530390  0.31437664  0.44382238  1
  Zn  Zn144  1  0.53968164  0.79432163  0.05528025  1
  Zn  Zn145  1  0.56620873  0.81113812  0.55725395  1
  O  O146  1  0.12318503  0.12630414  0.12052980  1
  O  O147  1  0.10616934  0.11639543  0.62900180  1
  O  O148  1  0.12741146  0.59412162  0.14792708  1
  O  O149  1  0.10922898  0.60427832  0.61784176  1
  O  O150  1  0.62137124  0.13951069  0.11089861  1
  O  O151  1  0.61792541  0.11726943  0.62161779  1
  O  O152  1  0.62690353  0.61868912  0.10949712  1
  O  O153  1  0.61684318  0.61124617  0.62814529  1
  O  O154  1  0.37041728  0.38578862  0.38206798  1
  O  O155  1  0.38634430  0.36571867  0.89300761  1
  O  O156  1  0.38862487  0.88678421  0.37906877  1
  O  O157  1  0.34174876  0.86571132  0.87627781  1
  O  O158  1  0.87319750  0.37368475  0.38633252  1
  O  O159  1  0.88493492  0.38857128  0.88720669  1
  O  O160  1  0.86482394  0.88240445  0.37832283  1
  O  O161  1  0.89355492  0.87417990  0.88856750  1
  O  O162  1  0.26741707  0.01617692  0.38576328  1
  O  O163  1  0.22758623  0.00845931  0.83912918  1
  O  O164  1  0.24327965  0.48801191  0.37226631  1
  O  O165  1  0.26249918  0.53285782  0.90756321  1
  O  O166  1  0.75639612  0.01680557  0.37350681  1
  O  O167  1  0.73935300  0.00932865  0.86566915  1
  O  O168  1  0.75294244  0.50639206  0.36289809  1
  O  O169  1  0.75501916  0.50681971  0.87298178  1
  O  O170  1  0.23468391  0.47953385  0.12446360  1
  O  O171  1  0.24908153  0.50483869  0.61381078  1
  O  O172  1  0.24679363  1.01190027  0.14241478  1
  O  O173  1  0.25934028  0.98907466  0.62824253  1
  O  O174  1  0.73845541  0.50318133  0.12875078  1
  O  O175  1  0.74367689  0.49622212  0.63568309  1
  O  O176  1  0.77419500  1.00539153  0.14302320  1
  O  O177  1  0.74804573  0.99111614  0.63792851  1
  O  O178  1  0.00363973  0.36233825  0.25172847  1
  O  O179  1  0.00323973  0.38457989  0.77420243  1
  O  O180  1  0.03339716  0.83553712  0.25931282  1
  O  O181  1  -0.00914257  0.85561805  0.75504470  1
  O  O182  1  0.52315827  0.38033089  0.24974811  1
  O  O183  1  0.49701811  0.36775093  0.75896575  1
  O  O184  1  0.53337466  0.93293438  0.25744223  1
  O  O185  1  0.49955738  0.86583452  0.74225194  1
  O  O186  1  0.48756877  0.12928656  0.25621856  1
  O  O187  1  0.49079816  0.12843057  0.74845285  1
  O  O188  1  0.46842450  0.63100514  0.28743173  1
  O  O189  1  0.49495415  0.62529551  0.73515349  1
  O  O190  1  0.99512260  0.13998607  0.24062421  1
  O  O191  1  1.01963804  0.13731983  0.77634575  1
  O  O192  1  0.98918994  0.64068632  0.22944199  1
  O  O193  1  1.00559240  0.63900453  0.73321733  1
  O  O194  1  0.36844332  0.25718115  0.01213865  1
  O  O195  1  0.36884369  0.26015169  0.49617243  1
  O  O196  1  0.40237208  0.79409563  0.00470832  1
  O  O197  1  0.38945493  0.76046963  0.50097505  1
  O  O198  1  0.86778158  0.26575504  -0.00379801  1
  O  O199  1  0.86407475  0.26034875  0.51683862  1
  O  O200  1  0.87649077  0.76270969  -0.00826723  1
  O  O201  1  0.85405239  0.74330775  0.51895368  1
  O  O202  1  0.14022755  0.27007080  0.49978932  1
  O  O203  1  0.14064612  0.24787677  1.00997986  1
  O  O204  1  0.11627131  0.72524661  0.52248380  1
  O  O205  1  0.17613026  0.72926176  0.92897485  1
  O  O206  1  0.63551919  0.24339396  0.50778951  1
  O  O207  1  0.63419215  0.25016393  0.99350527  1
  O  O208  1  0.64355597  0.74400956  0.50809967  1
  O  O209  1  0.60662452  0.73722536  0.97944542  1
  O  O210  1  0.48840191  0.25957230  0.13193068  1
  O  O211  1  0.50169974  0.23810482  0.64012114  1
  O  O212  1  0.48312159  0.74686208  0.13564492  1
  O  O213  1  0.50311363  0.74226873  0.63194244  1
  O  O214  1  1.00101069  0.24593876  0.13729712  1
  O  O215  1  0.98429056  0.25915728  0.62726478  1
  O  O216  1  1.11017902  0.74300396  0.11101509  1
  O  O217  1  0.97903128  0.75292354  0.63273698  1
  O  O218  1  -0.01178364  0.26336256  0.35562033  1
  O  O219  1  0.00579610  0.26490071  0.88332323  1
  O  O220  1  -0.00687720  0.77493587  0.39524678  1
  O  O221  1  0.00697300  0.74730923  0.85548379  1
  O  O222  1  0.50354289  0.24887568  0.37968183  1
  O  O223  1  0.50787970  0.25875480  0.86807773  1
  O  O224  1  0.51604019  0.75850282  0.38913614  1
  O  O225  1  0.50387195  0.74466678  0.85484764  1
  O  O226  1  0.25897748  0.14100687  0.48587136  1
  O  O227  1  0.24646804  0.13713458  1.00238788  1
  O  O228  1  0.22587888  0.62061175  0.49303151  1
  O  O229  1  0.24112976  0.62928422  1.03236452  1
  O  O230  1  0.74391375  0.13324516  0.50512901  1
  O  O231  1  0.73724357  0.13510647  0.99089548  1
  O  O232  1  0.74810520  0.62286036  0.50144322  1
  O  O233  1  0.73663570  0.62186329  0.98909866  1
  O  O234  1  0.25694399  0.36618627  0.01062862  1
  O  O235  1  0.26285607  0.36218071  0.49196652  1
  O  O236  1  0.23582830  0.86967400  0.00101448  1
  O  O237  1  0.27557426  0.87183871  0.48484112  1
  O  O238  1  0.76190130  0.36962527  -0.00309102  1
  O  O239  1  0.75258649  0.36933707  0.51017410  1
  O  O240  1  0.75336678  0.86824037  -0.00682848  1
  O  O241  1  0.75156407  0.87933624  0.51570555  1
  O  O242  1  0.11053498  0.47716923  0.24491523  1
  O  O243  1  0.13276282  0.49793158  0.72963276  1
  O  O244  1  0.12476261  0.97963741  0.24448714  1
  O  O245  1  0.13731090  0.99201959  0.71716155  1
  O  O246  1  0.63300806  0.50562372  0.23807795  1
  O  O247  1  0.63106697  0.49733603  0.74438138  1
  O  O248  1  0.66030987  1.05251059  0.24338540  1
  O  O249  1  0.62887542  1.00696845  0.74109257  1
  O  O250  1  0.38049829  0.01740171  0.26208906  1
  O  O251  1  0.36087665  0.01012370  0.74495459  1
  O  O252  1  0.37071960  0.50109047  0.26480976  1
  O  O253  1  0.32987128  0.44865397  0.75094531  1
  O  O254  1  0.85849900  0.00044548  0.27006193  1
  O  O255  1  0.86181359  -0.00352041  0.76121610  1
  O  O256  1  0.86019821  0.49811959  0.24758788  1
  O  O257  1  0.86395435  0.49602762  0.76648463  1
  O  O258  1  0.10742583  0.35976243  0.37484708  1
  O  O259  1  0.11624640  0.38747216  0.88023303  1
  O  O260  1  0.17311394  0.93808220  0.29076741  1
  O  O261  1  0.11905429  0.87300962  0.85539923  1
  O  O262  1  0.63240835  0.37578131  0.36890983  1
  O  O263  1  0.61713442  0.36578814  0.87708295  1
  O  O264  1  0.62619991  0.85796351  0.39214444  1
  O  O265  1  0.62631177  0.85917294  0.87680885  1
  O  O266  1  0.36841777  0.13561098  0.14137993  1
  O  O267  1  0.38620997  0.12767968  0.63357438  1
  O  O268  1  0.39017340  0.60424436  0.14846191  1
  O  O269  1  0.38430215  0.64146903  0.60818955  1
  O  O270  1  0.88944012  0.13143137  0.10234869  1
  O  O271  1  0.87136331  0.14150002  0.62793169  1
  O  O272  1  0.87055677  0.63359614  0.13640348  1
  O  O273  1  0.88024093  0.63370299  0.63166986  1
  O  O274  1  0.25932741  0.25686478  0.12149876  1
  O  O275  1  0.25137656  0.24281908  0.60834774  1
  O  O276  1  0.29889366  0.74834436  0.11316927  1
  O  O277  1  0.26980346  0.74838550  0.62021886  1
  O  O278  1  0.74696640  0.24193343  0.11576179  1
  O  O279  1  0.75382400  0.25894183  0.62448795  1
  O  O280  1  0.71626474  0.78323689  0.12926466  1
  O  O281  1  0.74988058  0.75764895  0.62320469  1
  O  O282  1  0.23178423  0.23972255  0.38525226  1
  O  O283  1  0.25306844  0.25151040  0.89404016  1
  O  O284  1  0.21870613  0.76419132  0.36828021  1
  O  O285  1  0.24158134  0.64891750  0.74774309  1
  O  O286  1  0.75820314  0.24210704  0.39497764  1
  O  O287  1  0.74408284  0.24647663  0.87832783  1
  O  O288  1  0.74396686  0.74671891  0.39372044  1
  O  O289  1  0.73217877  0.73968255  0.86225848  1
  O  O290  1  0.01881497  0.13630445  0.01353917  1
  O  O291  1  0.04703245  0.17350973  0.44863534  1
  O  O292  1  -0.00385563  0.61359669  0.01297072  1
  O  O293  1  -0.00608847  0.62459496  0.51951962  1
  O  O294  1  0.51644988  0.14280032  -0.00657114  1
  O  O295  1  0.50656748  0.11950444  0.51265668  1
  O  O296  1  0.50056406  0.61300193  -0.01417219  1
  O  O297  1  0.49372193  0.60464234  0.50718588  1
  O  O298  1  0.48810679  0.38622519  0.49622492  1
  O  O299  1  0.49524862  0.38164905  0.99722216  1
  O  O300  1  0.49707382  0.88975109  0.50400577  1
  O  O301  1  0.53281751  0.89464385  1.00700070  1
  O  O302  1  0.98478162  0.36656376  0.48806550  1
  O  O303  1  0.99032075  0.38007062  0.99560962  1
  O  O304  1  1.01270375  0.83556025  0.43660287  1
  O  O305  1  1.03303313  0.84933459  0.98018604  1
  O  O306  1  0.51080398  0.50143535  0.38644956  1
  O  O307  1  0.50640931  0.48757657  0.88400028  1
  O  O308  1  0.49263290  1.01481461  0.39237878  1
  O  O309  1  0.49444736  1.01204665  0.89563404  1
  O  O310  1  0.98866277  0.48237578  0.35803467  1
  O  O311  1  0.99442584  0.49486758  0.89568650  1
  O  O312  1  0.98288703  0.99452014  0.37032232  1
  O  O313  1  1.00907712  0.97794152  0.86995704  1
  O  O314  1  -0.00549838  0.02105650  0.13989126  1
  O  O315  1  -0.01448092  0.00598803  0.62078697  1
  O  O316  1  0.00740164  0.49123020  0.11946532  1
  O  O317  1  -0.01645945  0.50720092  0.63228652  1
  O  O318  1  0.47655996  0.02512198  0.09170218  1
  O  O319  1  0.50581640  0.00773347  0.62277582  1
  O  O320  1  0.51461826  0.49613522  0.11570689  1
  O  O321  1  0.50327987  0.50357671  0.62446268  1
  O  O322  1  0.23745157  0.35960373  0.24714356  1
  O  O323  1  0.27799265  0.38796829  0.74744879  1
  O  O324  1  0.22481579  0.89311547  0.24820324  1
  O  O325  1  0.25502555  0.87265303  0.74480935  1
  O  O326  1  0.73508084  0.39251742  0.25168166  1
  O  O327  1  0.74818607  0.38727241  0.74831950  1
  O  O328  1  0.73032536  0.89784850  0.25851322  1
  O  O329  1  0.74829932  0.88883618  0.75394002  1
  O  O330  1  0.26719933  0.13636992  0.26736333  1
  O  O331  1  0.26602067  0.13590272  0.74311181  1
  O  O332  1  0.26553111  0.63475633  0.23888556  1
  O  O333  1  0.29470166  0.59778539  0.74330008  1
  O  O334  1  0.77104663  0.14696206  0.27566239  1
  O  O335  1  0.74669393  0.11434389  0.76068033  1
  O  O336  1  0.76038950  0.61373376  0.24465039  1
  O  O337  1  0.74237128  0.61310986  0.76126013  1
  O  O338  1  0.36880098  0.12252595  0.36867370  1
  O  O339  1  0.36995486  0.13003325  0.86069150  1
  O  O340  1  0.35615615  0.59967484  0.38333433  1
  O  O341  1  0.32272723  0.68571905  0.88665255  1
  O  O342  1  0.86807977  0.12063800  0.39566463  1
  O  O343  1  0.86246005  0.12071762  0.88939619  1
  O  O344  1  0.89188221  0.62819986  0.35097314  1
  O  O345  1  0.86539595  0.61407194  0.88808229  1
  O  O346  1  0.13065839  0.37058942  0.13818904  1
  O  O347  1  0.12726835  0.38914824  0.62589392  1
  O  O348  1  0.04956429  0.84994734  0.19023018  1
  O  O349  1  0.10571898  0.89006693  0.60729416  1
  O  O350  1  0.62957736  0.38776342  0.13094265  1
  O  O351  1  0.63901937  0.38645044  0.62983925  1
  O  O352  1  0.66046525  0.83171615  0.12093677  1
  O  O353  1  0.63742751  0.88475577  0.62378215  1
  O  O354  1  0.11468512  0.25226201  0.26513302  1
  O  O355  1  0.13333933  0.25975579  0.75835802  1
  O  O356  1  0.15003592  0.76665403  0.34205740  1
  O  O357  1  0.11638965  0.75323303  0.72915882  1
  O  O358  1  0.62999193  0.26461803  0.24719341  1
  O  O359  1  0.61764119  0.25110500  0.75854104  1
  O  O360  1  0.63408283  0.74999428  0.27017664  1
  O  O361  1  0.61092943  0.74641304  0.75778446  1
  O  O362  1  0.38009569  0.24458395  0.24831431  1
  O  O363  1  0.38559562  0.24151753  0.74880357  1
  O  O364  1  0.37069943  0.74582545  0.25821512  1
  O  O365  1  0.38836594  0.75413381  0.72880530  1
  O  O366  1  0.87762819  0.26282857  0.24227683  1
  O  O367  1  0.87112748  0.25861004  0.74084790  1
  O  O368  1  0.85769937  0.74877357  0.24742628  1
  O  O369  1  0.86446230  0.74591054  0.74098144  1
  O  O370  1  0.38065032  0.48887929  0.48653149  1
  O  O371  1  0.38415216  0.48558176  1.01425891  1
  O  O372  1  0.38496416  0.99490492  0.49685233  1
  O  O373  1  0.37685754  0.96900886  0.99676623  1
  O  O374  1  0.86409173  0.48656649  0.49820446  1
  O  O375  1  0.88294861  0.49322056  1.00028011  1
  O  O376  1  0.86973818  0.99476660  0.48922968  1
  O  O377  1  0.86895288  0.98006743  0.99437760  1
  O  O378  1  0.13717102  0.02139552  -0.00486035  1
  O  O379  1  0.12411126  0.00943632  0.51546362  1
  O  O380  1  0.10993946  0.48935817  0.02005340  1
  O  O381  1  0.11911800  0.50371790  0.51381178  1
  O  O382  1  0.61747632  0.02188631  -0.00152632  1
  O  O383  1  0.62008838  0.00812198  0.51261215  1
  O  O384  1  0.61965055  0.50398900  0.00925280  1
  O  O385  1  0.61241160  0.48957225  0.51155031  1
  O  O386  1  0.36849100  0.36959098  0.12560639  1
  O  O387  1  0.37662328  0.37154977  0.60436935  1
  O  O388  1  0.37637782  0.87917884  0.16256421  1
  O  O389  1  0.38340898  0.86302070  0.60689627  1
  O  O390  1  0.87622636  0.37931990  0.11035067  1
  O  O391  1  0.86156756  0.37308675  0.62119398  1
  O  O392  1  0.88182362  0.87049870  0.10504488  1
  O  O393  1  0.85719423  0.86212159  0.63375757  1
  O  O394  1  0.14189189  0.11850830  0.35410902  1
  O  O395  1  0.12921623  0.14148576  0.88810755  1
  O  O396  1  0.09836663  0.61603249  0.39279404  1
  O  O397  1  0.14526009  0.59099299  0.88473907  1
  O  O398  1  0.63947725  0.12032527  0.39318798  1
  O  O399  1  0.63289576  0.13984185  0.87927409  1
  O  O400  1  0.61985587  0.64002226  0.38001783  1
  O  O401  1  0.63084900  0.62505174  0.88292316  1
