# generated using pymatgen
data_V73Zn73O256
_symmetry_space_group_name_H-M   'P 1'
_cell_length_a   16.89982667
_cell_length_b   16.91800084
_cell_length_c   16.88630535
_cell_angle_alpha   89.88910719
_cell_angle_beta   90.03520694
_cell_angle_gamma   89.93046004
_symmetry_Int_Tables_number   1
_chemical_formula_structural   V73Zn73O256
_chemical_formula_sum   'V73 Zn73 O256'
_cell_volume   4827.97168761
_cell_formula_units_Z   1
loop_
 _symmetry_equiv_pos_site_id
 _symmetry_equiv_pos_as_xyz
  1  'x, y, z'
loop_
 _atom_site_type_symbol
 _atom_site_label
 _atom_site_symmetry_multiplicity
 _atom_site_fract_x
 _atom_site_fract_y
 _atom_site_fract_z
 _atom_site_occupancy
  V  V0  1  0.37039049  0.01363134  0.37428325  1
  V  V1  1  -0.00152760  0.74976293  0.74382398  1
  V  V2  1  0.12212628  0.74878190  0.87830597  1
  V  V3  1  0.12768305  0.12086224  0.49819170  1
  V  V4  1  0.64450683  0.88376478  0.73132961  1
  V  V5  1  0.12621371  0.24465900  0.37468081  1
  V  V6  1  0.86997725  0.01579142  0.36691829  1
  V  V7  1  0.13153080  0.37459112  0.24625281  1
  V  V8  1  0.37636097  0.24809591  0.62947166  1
  V  V9  1  0.51705492  0.07391088  0.09012461  1
  V  V10  1  0.24945607  0.12569168  0.88530520  1
  V  V11  1  -0.00333691  -0.00072985  0.49998389  1
  V  V12  1  0.87640873  0.38779840  0.50011473  1
  V  V13  1  0.50790259  0.12294792  0.61561061  1
  V  V14  1  0.62016003  0.36860044  0.24583514  1
  V  V15  1  0.87357019  0.36858891  -0.00032510  1
  V  V16  1  0.36380330  0.50365373  0.36667866  1
  V  V17  1  0.87569796  0.00790426  0.88378596  1
  V  V18  1  0.26346648  0.87123117  0.12799615  1
  V  V19  1  0.62399767  0.26002944  0.85161850  1
  V  V20  1  0.74775414  0.73657814  0.47963247  1
  V  V21  1  -0.00169375  0.49783929  0.00908858  1
  V  V22  1  -0.00042401  0.24317994  0.75589726  1
  V  V23  1  -0.00105360  0.12078836  0.10918066  1
  V  V24  1  0.74745471  0.62252655  0.89390580  1
  V  V25  1  0.00321501  0.11993554  0.63180622  1
  V  V26  1  0.12285791  0.62598253  0.00016756  1
  V  V27  1  0.12615939  -0.00012362  0.11463387  1
  V  V28  1  0.74668695  0.12305455  0.88010670  1
  V  V29  1  0.12475283  0.37290153  0.75099949  1
  V  V30  1  0.23810650  0.74428908  0.50960398  1
  V  V31  1  0.50823192  0.37545216  0.39061683  1
  V  V32  1  -0.00779355  0.73651777  0.22686114  1
  V  V33  1  0.73855663  0.01646695  0.24615795  1
  V  V34  1  -0.00793458  0.23661831  0.25433173  1
  V  V35  1  0.49946391  0.85948627  0.36375739  1
  V  V36  1  0.86821549  0.61475477  0.75879451  1
  V  V37  1  0.74755362  0.38964289  0.64118985  1
  V  V38  1  0.87258253  0.25018397  0.62633815  1
  V  V39  1  0.87534520  0.86417177  0.00696009  1
  V  V40  1  0.51049258  0.75675492  0.72779909  1
  V  V41  1  0.51950133  0.50079623  0.00096962  1
  V  V42  1  0.51467021  -0.00222238  0.49741915  1
  V  V43  1  0.86442176  0.87273090  0.50195076  1
  V  V44  1  0.73109861  0.25134551  0.49658975  1
  V  V45  1  0.86404543  0.61957827  0.25446416  1
  V  V46  1  0.74817250  0.88124422  0.13247583  1
  V  V47  1  0.37426020  0.38109221  0.50399825  1
  V  V48  1  0.86171925  0.74758950  0.62915183  1
  V  V49  1  0.26107743  0.75317098  -0.00220797  1
  V  V50  1  0.25020016  0.01772395  0.25223478  1
  V  V51  1  0.36338770  0.87718705  0.51516578  1
  V  V52  1  -0.00187576  0.88390989  0.88037572  1
  V  V53  1  0.48586622  0.24215043  0.24713127  1
  V  V54  1  0.26075183  -0.00773734  0.74894735  1
  V  V55  1  0.12526979  0.87968832  0.74554529  1
  V  V56  1  0.73241262  0.24748937  0.00395703  1
  V  V57  1  0.74759623  0.50060645  0.27274342  1
  V  V58  1  0.36294444  0.50657053  0.87752279  1
  V  V59  1  -0.00530566  0.86723375  0.36827709  1
  V  V60  1  0.62387645  0.75680431  0.89269496  1
  V  V61  1  0.74703058  0.38111281  0.12621583  1
  V  V62  1  0.38183033  0.12489595  0.75652762  1
  V  V63  1  -0.00035278  0.38046504  0.87798344  1
  V  V64  1  0.32155800  0.31330237  0.05131166  1
  V  V65  1  0.81851436  0.06630297  0.69498803  1
  V  V66  1  0.13767482  0.50082012  0.12807899  1
  V  V67  1  0.25206425  0.24227550  0.50248540  1
  V  V68  1  0.38541068  0.63618584  0.73185386  1
  V  V69  1  0.60748462  0.61984176  0.49995941  1
  V  V70  1  0.24146625  0.38281434  0.63060517  1
  V  V71  1  -0.00645957  0.38425283  0.37827610  1
  V  V72  1  0.60497600  0.50909757  0.64008787  1
  Zn  Zn73  1  0.14111209  -0.01093375  0.61358345  1
  Zn  Zn74  1  0.23836118  0.54449943  0.75489020  1
  Zn  Zn75  1  0.86049098  0.23702723  0.13680835  1
  Zn  Zn76  1  0.12994008  0.73498922  0.37590385  1
  Zn  Zn77  1  0.12810493  0.86582527  0.24988731  1
  Zn  Zn78  1  0.50177300  0.37988255  0.86012612  1
  Zn  Zn79  1  0.40169966  0.61998942  0.22660468  1
  Zn  Zn80  1  0.57414380  0.56134882  0.16317251  1
  Zn  Zn81  1  0.13135255  0.24660339  0.89220558  1
  Zn  Zn82  1  0.18334397  0.17686515  0.06129466  1
  Zn  Zn83  1  0.18957173  0.18307598  0.69226814  1
  Zn  Zn84  1  0.22504735  0.66544323  0.17093506  1
  Zn  Zn85  1  0.19295551  0.69685664  0.68383116  1
  Zn  Zn86  1  0.67003325  0.18546570  0.18565700  1
  Zn  Zn87  1  0.68871837  0.19238830  0.67934168  1
  Zn  Zn88  1  0.74360246  0.68254847  0.09761033  1
  Zn  Zn89  1  0.68486635  0.68218928  0.69149855  1
  Zn  Zn90  1  0.31539904  0.30597221  0.31681657  1
  Zn  Zn91  1  0.31632197  0.31324555  0.81953059  1
  Zn  Zn92  1  0.31467926  0.81856975  0.32638236  1
  Zn  Zn93  1  0.30240025  0.78597319  0.79456408  1
  Zn  Zn94  1  0.80769170  0.31057561  0.31622444  1
  Zn  Zn95  1  0.81397095  0.30809577  0.81714909  1
  Zn  Zn96  1  0.81463112  0.81581717  0.30302489  1
  Zn  Zn97  1  0.80744303  0.80734238  0.81849868  1
  Zn  Zn98  1  0.19968426  0.41910446  0.42343762  1
  Zn  Zn99  1  0.18870026  0.43508095  0.93383606  1
  Zn  Zn100  1  0.19535632  0.91386558  0.42442053  1
  Zn  Zn101  1  0.19749187  0.93666046  0.93375608  1
  Zn  Zn102  1  0.68323250  0.44074632  0.45360531  1
  Zn  Zn103  1  0.69000504  0.43844935  0.93256355  1
  Zn  Zn104  1  0.68562006  0.92725696  0.41859373  1
  Zn  Zn105  1  0.71243740  0.91518033  0.91586105  1
  Zn  Zn106  1  0.34849161  0.15479492  0.07625032  1
  Zn  Zn107  1  0.31912887  0.05933962  0.56404363  1
  Zn  Zn108  1  0.32085901  0.56108070  0.05805532  1
  Zn  Zn109  1  0.30923728  0.56689730  0.56004199  1
  Zn  Zn110  1  0.81325565  0.06372052  0.06169352  1
  Zn  Zn111  1  0.78431855  0.05354529  0.51925342  1
  Zn  Zn112  1  0.82444077  0.55066710  0.06862011  1
  Zn  Zn113  1  0.81639499  0.56797422  0.56760678  1
  Zn  Zn114  1  0.43247528  0.43490729  0.18570832  1
  Zn  Zn115  1  0.42732533  0.44167317  0.70241176  1
  Zn  Zn116  1  0.43688422  0.94731639  0.18752362  1
  Zn  Zn117  1  0.45133695  0.93812889  0.69087390  1
  Zn  Zn118  1  0.93350812  0.43188400  0.18953222  1
  Zn  Zn119  1  0.93437149  0.43129586  0.69504676  1
  Zn  Zn120  1  0.93566214  0.94477609  0.18882265  1
  Zn  Zn121  1  0.93653378  0.92879339  0.68647301  1
  Zn  Zn122  1  0.06762358  0.05518144  0.31309934  1
  Zn  Zn123  1  0.07127103  0.06028047  0.81757643  1
  Zn  Zn124  1  0.04953730  0.56040971  0.30065213  1
  Zn  Zn125  1  0.07500710  0.57956176  0.78699916  1
  Zn  Zn126  1  0.56472857  0.06215735  0.31701567  1
  Zn  Zn127  1  0.57240158  0.06274387  0.80463368  1
  Zn  Zn128  1  0.55240629  0.56095875  0.33176254  1
  Zn  Zn129  1  0.56056307  0.57397636  0.82125705  1
  Zn  Zn130  1  0.55895979  0.19853177  0.43620485  1
  Zn  Zn131  1  0.45558654  0.18252355  0.93442446  1
  Zn  Zn132  1  0.42512511  0.69068579  0.44780107  1
  Zn  Zn133  1  0.44779533  0.67849835  0.93352754  1
  Zn  Zn134  1  0.93651608  0.19277097  0.44327088  1
  Zn  Zn135  1  0.93125385  0.18911930  0.93903919  1
  Zn  Zn136  1  0.93172752  0.68017039  0.43555176  1
  Zn  Zn137  1  0.93998585  0.68568876  0.93697801  1
  Zn  Zn138  1  0.05981165  0.31092297  0.06903644  1
  Zn  Zn139  1  0.06041647  0.30877959  0.56280408  1
  Zn  Zn140  1  0.06490332  0.82001002  0.06183223  1
  Zn  Zn141  1  0.05804513  0.80986577  0.56047868  1
  Zn  Zn142  1  0.54122243  0.32051381  0.06039968  1
  Zn  Zn143  1  0.55851548  0.32402157  0.59058917  1
  Zn  Zn144  1  0.55864196  0.86186204  0.06025159  1
  Zn  Zn145  1  0.57256799  0.81755955  0.55254675  1
  O  O146  1  0.11695486  0.10955837  0.12601367  1
  O  O147  1  0.11645664  0.12037096  0.61699737  1
  O  O148  1  0.13059753  0.60822066  0.12154170  1
  O  O149  1  0.15198559  0.59750814  0.70246822  1
  O  O150  1  0.60172369  0.11453718  0.12942853  1
  O  O151  1  0.60543783  0.13111557  0.63298995  1
  O  O152  1  0.62957321  0.65671451  0.12107304  1
  O  O153  1  0.63343228  0.61423628  0.61602569  1
  O  O154  1  0.37514271  0.38052783  0.38759023  1
  O  O155  1  0.38055459  0.40095229  0.84721545  1
  O  O156  1  0.38304988  0.88619757  0.39097924  1
  O  O157  1  0.38242141  0.86647507  0.86458694  1
  O  O158  1  0.88354069  0.36868866  0.38980387  1
  O  O159  1  0.88551031  0.36517899  0.88803351  1
  O  O160  1  0.88224878  0.88479734  0.38307268  1
  O  O161  1  0.87795843  0.88414040  0.88434133  1
  O  O162  1  0.25682856  -0.00536952  0.36346655  1
  O  O163  1  0.25070278  0.01127769  0.86116959  1
  O  O164  1  0.26140634  0.49975125  0.38281481  1
  O  O165  1  0.25504676  0.50335752  0.86501223  1
  O  O166  1  0.76266745  -0.00225695  0.36784260  1
  O  O167  1  0.75985245  0.01201809  0.87874900  1
  O  O168  1  0.75253379  0.48222780  0.36989754  1
  O  O169  1  0.74683036  0.52232977  0.87963534  1
  O  O170  1  0.23420314  0.48943078  0.11825400  1
  O  O171  1  0.24853966  0.48240527  0.62372254  1
  O  O172  1  0.23981139  0.98635059  0.13862606  1
  O  O173  1  0.25086066  1.00710719  0.64354865  1
  O  O174  1  0.74598878  0.48310549  0.12730946  1
  O  O175  1  0.76009521  0.48937494  0.62807040  1
  O  O176  1  0.76119175  1.00068765  0.13948324  1
  O  O177  1  0.76585536  1.01477464  0.62813458  1
  O  O178  1  0.00097801  0.36604597  0.26408445  1
  O  O179  1  0.00329289  0.36311897  0.75810356  1
  O  O180  1  -0.01597205  0.86308149  0.26068467  1
  O  O181  1  0.00434886  0.86920716  0.76005134  1
  O  O182  1  0.51191893  0.37356762  0.25807466  1
  O  O183  1  0.50049016  0.36907825  0.74371961  1
  O  O184  1  0.48591310  0.87776655  0.26510757  1
  O  O185  1  0.51814559  0.86383400  0.74514337  1
  O  O186  1  0.50514509  0.14514915  0.26500932  1
  O  O187  1  0.48568045  0.11091086  0.73823864  1
  O  O188  1  0.51024580  0.61355486  0.24320349  1
  O  O189  1  0.49463493  0.64003041  0.74672835  1
  O  O190  1  1.00407876  0.13617242  0.25755202  1
  O  O191  1  1.00938518  0.12915850  0.74161408  1
  O  O192  1  0.98372704  0.62814341  0.23509525  1
  O  O193  1  0.98192822  0.64361599  0.76634620  1
  O  O194  1  0.39200468  0.24946815  0.00426079  1
  O  O195  1  0.36077816  0.26012268  0.51134143  1
  O  O196  1  0.35842528  0.74192817  -0.01303875  1
  O  O197  1  0.35439083  0.76956941  0.49724931  1
  O  O198  1  0.86425876  0.25726537  0.00722410  1
  O  O199  1  0.87077048  0.25651513  0.51581774  1
  O  O200  1  0.87925955  0.76474461  -0.00141060  1
  O  O201  1  0.86926314  0.75032719  0.50935743  1
  O  O202  1  0.12892441  0.24006765  0.49564169  1
  O  O203  1  0.11900263  0.24601616  1.00358460  1
  O  O204  1  0.12914602  0.75051143  0.49875451  1
  O  O205  1  0.11739668  0.74319247  0.99345207  1
  O  O206  1  0.62737822  0.26656019  0.50922102  1
  O  O207  1  0.63261335  0.25782730  1.00005284  1
  O  O208  1  0.64298392  0.73501771  0.50461492  1
  O  O209  1  0.62006035  0.77574699  0.99083820  1
  O  O210  1  0.50762166  0.25710438  0.14720532  1
  O  O211  1  0.48600006  0.23725476  0.61692400  1
  O  O212  1  0.53216891  0.75488143  0.13107466  1
  O  O213  1  0.51052406  0.75251722  0.62852379  1
  O  O214  1  1.00345650  0.23481483  0.14222439  1
  O  O215  1  0.99314555  0.23785000  0.63039577  1
  O  O216  1  0.99814174  0.75361278  0.12970902  1
  O  O217  1  0.99341487  0.75229297  0.63836893  1
  O  O218  1  0.00580268  0.25344561  0.37094965  1
  O  O219  1  -0.00158640  0.25157715  0.86585608  1
  O  O220  1  -0.00568683  0.76715377  0.38657629  1
  O  O221  1  0.00500678  0.76366211  0.86892094  1
  O  O222  1  0.49719853  0.27041252  0.36582030  1
  O  O223  1  0.52251650  0.25062402  0.87269978  1
  O  O224  1  0.48071745  0.76064338  0.37531747  1
  O  O225  1  0.52110312  0.74193731  0.87149906  1
  O  O226  1  0.23847580  0.13031218  0.50924064  1
  O  O227  1  0.26747365  0.11805714  0.98741832  1
  O  O228  1  0.25108951  0.64458682  0.50007033  1
  O  O229  1  0.23179799  0.64203380  1.00360008  1
  O  O230  1  0.73958002  0.15211178  0.51636773  1
  O  O231  1  0.75153244  0.13524902  0.99230522  1
  O  O232  1  0.76181758  0.63620272  0.49464848  1
  O  O233  1  0.76108081  0.62537533  0.99814169  1
  O  O234  1  0.25867620  0.36171781  -0.01195315  1
  O  O235  1  0.24955650  0.36371234  0.51384418  1
  O  O236  1  0.24580212  0.86520415  0.01233276  1
  O  O237  1  0.26168520  0.89690725  0.51632891  1
  O  O238  1  0.75519438  0.36764569  0.00641378  1
  O  O239  1  0.76267594  0.37072794  0.51222194  1
  O  O240  1  0.76842166  0.88654492  0.01080826  1
  O  O241  1  0.75953085  0.86195827  0.49033486  1
  O  O242  1  0.11866798  0.48895548  0.24005976  1
  O  O243  1  0.11459507  0.47153171  0.76253330  1
  O  O244  1  0.13909779  0.99450577  0.24914321  1
  O  O245  1  0.13653302  0.99243336  0.74858967  1
  O  O246  1  0.63750372  0.49034081  0.25265306  1
  O  O247  1  0.62263151  0.51762942  0.73911221  1
  O  O248  1  0.64062555  0.99873054  0.25799210  1
  O  O249  1  0.62834582  0.98312898  0.74870616  1
  O  O250  1  0.36226055  -0.00334694  0.26224040  1
  O  O251  1  0.36777908  0.00565557  0.74677089  1
  O  O252  1  0.37281237  0.49853969  0.26325799  1
  O  O253  1  0.36051342  0.52579668  0.74530505  1
  O  O254  1  0.87826396  0.01065038  0.26530199  1
  O  O255  1  0.87343312  0.00141855  0.75446355  1
  O  O256  1  0.86047668  0.50465444  0.24432167  1
  O  O257  1  0.88647433  0.51697636  0.74981111  1
  O  O258  1  0.11065053  0.36717898  0.37466689  1
  O  O259  1  0.11652961  0.36261317  0.87050200  1
  O  O260  1  0.09832419  0.88666729  0.36820091  1
  O  O261  1  0.11518835  0.87400906  0.86918082  1
  O  O262  1  0.61149410  0.38451783  0.37643740  1
  O  O263  1  0.63532892  0.36113856  0.86954373  1
  O  O264  1  0.60098217  0.86744973  0.37902697  1
  O  O265  1  0.63586967  0.85994987  0.85788040  1
  O  O266  1  0.42505462  0.09873715  0.13109823  1
  O  O267  1  0.38154567  0.13162632  0.63185711  1
  O  O268  1  0.33014878  0.62797683  0.14319361  1
  O  O269  1  0.37479119  0.62946903  0.63195566  1
  O  O270  1  0.89381479  0.12363048  0.12396736  1
  O  O271  1  0.88112658  0.12944662  0.63309527  1
  O  O272  1  0.84314114  0.63124731  0.14496604  1
  O  O273  1  0.87592112  0.63959206  0.63984398  1
  O  O274  1  0.27047774  0.23781882  0.10692422  1
  O  O275  1  0.25549172  0.25027374  0.61952531  1
  O  O276  1  0.23994750  0.76376165  0.10935671  1
  O  O277  1  0.23899663  0.76490398  0.60989794  1
  O  O278  1  0.74415393  0.25537896  0.12053755  1
  O  O279  1  0.75583298  0.26753142  0.62068239  1
  O  O280  1  0.76212268  0.78220733  0.13965688  1
  O  O281  1  0.76176293  0.74798095  0.61915479  1
  O  O282  1  0.23638686  0.25737819  0.38961738  1
  O  O283  1  0.25316821  0.23053666  0.86811408  1
  O  O284  1  0.22884466  0.79324622  0.40112022  1
  O  O285  1  0.23248185  0.76721154  0.89069675  1
  O  O286  1  0.74819587  0.26076904  0.39814616  1
  O  O287  1  0.74253403  0.24336865  0.88227980  1
  O  O288  1  0.75662204  0.75067002  0.38114012  1
  O  O289  1  0.73956355  0.73976110  0.88012222  1
  O  O290  1  0.00157209  0.12759284  0.01019151  1
  O  O291  1  0.00545811  0.11856086  0.51041894  1
  O  O292  1  0.00932919  0.61113285  -0.00431094  1
  O  O293  1  0.03242250  0.61863486  0.45788814  1
  O  O294  1  0.51136290  0.10172137  -0.00772723  1
  O  O295  1  0.50250977  0.11579796  0.50806257  1
  O  O296  1  0.48965635  0.60042498  0.00534533  1
  O  O297  1  0.50950151  0.63536930  0.50677882  1
  O  O298  1  0.49009712  0.36639703  0.49670917  1
  O  O299  1  0.50176302  0.39099343  0.98300290  1
  O  O300  1  0.49300703  0.88742548  0.49651113  1
  O  O301  1  0.50141375  0.89645915  0.96100521  1
  O  O302  1  0.98940642  0.36844769  0.49176006  1
  O  O303  1  0.99292326  0.37520606  0.99695939  1
  O  O304  1  0.98960847  0.88488919  0.49405093  1
  O  O305  1  0.99153064  0.87642932  0.98793918  1
  O  O306  1  0.48300678  0.47832409  0.37718964  1
  O  O307  1  0.49548874  0.50110919  0.88265912  1
  O  O308  1  0.48870770  0.99750445  0.38446896  1
  O  O309  1  0.49837842  0.99378477  0.87151849  1
  O  O310  1  0.99941645  0.48196847  0.37190654  1
  O  O311  1  1.00726194  0.48244742  0.88870228  1
  O  O312  1  0.98760144  0.99686289  0.38369116  1
  O  O313  1  0.99019585  0.99286262  0.86435307  1
  O  O314  1  0.01288890  0.01276961  0.13409658  1
  O  O315  1  -0.00721391  0.00682329  0.61536062  1
  O  O316  1  0.00853813  0.48789143  0.11418027  1
  O  O317  1  0.00519439  0.51791589  0.62387435  1
  O  O318  1  0.51337727  -0.03183763  0.10457223  1
  O  O319  1  0.49542731  0.01214257  0.60872251  1
  O  O320  1  0.50540380  0.48553402  0.11078416  1
  O  O321  1  0.50632728  0.49806087  0.63108442  1
  O  O322  1  0.22896494  0.36811116  0.26288719  1
  O  O323  1  0.24107125  0.36434593  0.73719425  1
  O  O324  1  0.24798048  0.86261192  0.23629592  1
  O  O325  1  0.24319736  0.88459740  0.75807607  1
  O  O326  1  0.74294698  0.37949052  0.24677471  1
  O  O327  1  0.76434495  0.37580522  0.73907492  1
  O  O328  1  0.76582821  0.89671228  0.24035293  1
  O  O329  1  0.74581901  0.87201265  0.74773756  1
  O  O330  1  0.24937206  0.11284892  0.24558591  1
  O  O331  1  0.26198777  0.11367865  0.75699507  1
  O  O332  1  0.24735176  0.67455332  0.28609758  1
  O  O333  1  0.28398251  0.67075409  0.75902362  1
  O  O334  1  0.74603886  0.11752548  0.24432483  1
  O  O335  1  0.75682260  0.12697929  0.75150840  1
  O  O336  1  0.75256056  0.60475221  0.26578017  1
  O  O337  1  0.76520002  0.62811400  0.75640664  1
  O  O338  1  0.37076893  0.10920177  0.38114642  1
  O  O339  1  0.37530643  0.12760515  0.86023436  1
  O  O340  1  0.38612459  0.59972078  0.38903399  1
  O  O341  1  0.38349647  0.61023074  0.86312031  1
  O  O342  1  0.87360938  0.11354091  0.39029957  1
  O  O343  1  0.86396923  0.12017085  0.87421331  1
  O  O344  1  0.88130099  0.61861404  0.35585242  1
  O  O345  1  0.86252413  0.63555053  0.86725946  1
  O  O346  1  0.12047344  0.37881255  0.14133082  1
  O  O347  1  0.13428863  0.36558346  0.63085761  1
  O  O348  1  0.12054741  0.88892845  0.13310072  1
  O  O349  1  0.11124209  0.87826937  0.64099902  1
  O  O350  1  0.63024659  0.37065457  0.14119925  1
  O  O351  1  0.63958942  0.39539878  0.62852005  1
  O  O352  1  0.65029051  0.88932648  0.12002852  1
  O  O353  1  0.63501158  0.87334719  0.63046808  1
  O  O354  1  0.10989841  0.26301698  0.26300807  1
  O  O355  1  0.11270695  0.25290038  0.74995236  1
  O  O356  1  0.09366261  0.74757398  0.26174253  1
  O  O357  1  0.11792156  0.76131041  0.75968575  1
  O  O358  1  0.62656810  0.26741316  0.26076092  1
  O  O359  1  0.62977372  0.25673324  0.75211807  1
  O  O360  1  0.59449051  0.72818531  0.16471414  1
  O  O361  1  0.62052408  0.75613488  0.74988393  1
  O  O362  1  0.38516439  0.25339526  0.24913644  1
  O  O363  1  0.36874989  0.23416788  0.74119974  1
  O  O364  1  0.32370690  0.70352729  0.28866662  1
  O  O365  1  0.40327925  0.75172991  0.75025594  1
  O  O366  1  0.88795655  0.25247219  0.25467099  1
  O  O367  1  0.88645446  0.25484196  0.73746998  1
  O  O368  1  0.88543294  0.73710801  0.25465323  1
  O  O369  1  0.87893128  0.75431882  0.74000271  1
  O  O370  1  0.36721797  0.48342889  0.50342713  1
  O  O371  1  0.36612544  0.49794271  0.97971379  1
  O  O372  1  0.38049085  0.99542335  0.49097644  1
  O  O373  1  0.35703954  0.91332139  0.91484441  1
  O  O374  1  0.87668117  0.48636861  0.50621921  1
  O  O375  1  0.88552826  0.48100048  1.00603192  1
  O  O376  1  0.87606455  0.99128381  0.49186245  1
  O  O377  1  0.87985380  0.99908677  0.98665588  1
  O  O378  1  0.13421655  -0.00566681  0.01559956  1
  O  O379  1  0.11241252  0.00499069  0.49831201  1
  O  O380  1  0.12079147  0.50324461  0.00918836  1
  O  O381  1  0.05524408  0.50621458  0.57060587  1
  O  O382  1  0.54050891  -0.04306139  -0.07197964  1
  O  O383  1  0.61383227  -0.00724793  0.49235588  1
  O  O384  1  0.62018721  0.50370933  -0.00218951  1
  O  O385  1  0.62435633  0.51127366  0.51885297  1
  O  O386  1  0.36443863  0.37540670  0.11736541  1
  O  O387  1  0.36072107  0.36651791  0.62478836  1
  O  O388  1  0.36156867  0.87711188  0.12572075  1
  O  O389  1  0.38544311  0.88258847  0.61259686  1
  O  O390  1  0.86453161  0.36528415  0.12037844  1
  O  O391  1  0.87457609  0.37005154  0.61693915  1
  O  O392  1  0.88118389  0.88675193  0.10816512  1
  O  O393  1  0.88001127  0.86054532  0.61246040  1
  O  O394  1  0.11762413  0.13271630  0.38789969  1
  O  O395  1  0.14355593  0.12489761  0.87784888  1
  O  O396  1  0.08466236  0.62299108  0.39570271  1
  O  O397  1  0.11842659  0.64034107  0.88242374  1
  O  O398  1  0.62464295  0.12206817  0.38968847  1
  O  O399  1  0.64050395  0.13700307  0.86216777  1
  O  O400  1  0.62557211  0.61114739  0.40022185  1
  O  O401  1  0.63961841  0.63957340  0.87907966  1
