# generated using pymatgen
data_V73Zn73O256
_symmetry_space_group_name_H-M   'P 1'
_cell_length_a   16.93977422
_cell_length_b   16.84415877
_cell_length_c   16.91407514
_cell_angle_alpha   90.15041263
_cell_angle_beta   89.90295927
_cell_angle_gamma   90.22778460
_symmetry_Int_Tables_number   1
_chemical_formula_structural   V73Zn73O256
_chemical_formula_sum   'V73 Zn73 O256'
_cell_volume   4826.13710419
_cell_formula_units_Z   1
loop_
 _symmetry_equiv_pos_site_id
 _symmetry_equiv_pos_as_xyz
  1  'x, y, z'
loop_
 _atom_site_type_symbol
 _atom_site_label
 _atom_site_symmetry_multiplicity
 _atom_site_fract_x
 _atom_site_fract_y
 _atom_site_fract_z
 _atom_site_occupancy
  V  V0  1  0.25424735  0.51204794  0.73767930  1
  V  V1  1  0.36841645  0.00670227  0.89919263  1
  V  V2  1  0.87414983  0.63973297  0.75140512  1
  V  V3  1  0.85182012  0.74896791  0.11966018  1
  V  V4  1  0.23952319  0.37320834  0.12241529  1
  V  V5  1  0.11305977  0.38139280  0.25733740  1
  V  V6  1  0.37992523  0.37865143  0.49846005  1
  V  V7  1  0.76792032  0.10792711  0.37176899  1
  V  V8  1  0.38101980  0.13507879  0.24948563  1
  V  V9  1  0.37113768  0.37096210  -0.00016606  1
  V  V10  1  0.62616298  0.62060886  0.00203181  1
  V  V11  1  0.62597669  0.49750210  0.61673769  1
  V  V12  1  0.25961510  0.62466926  0.89213320  1
  V  V13  1  0.50447050  0.36152431  0.86653807  1
  V  V14  1  -0.00649113  0.61928860  0.10644239  1
  V  V15  1  0.37017071  0.25655551  0.63390738  1
  V  V16  1  0.00281037  0.38828215  0.87443309  1
  V  V17  1  0.13066650  0.23563255  0.87390413  1
  V  V18  1  0.24359757  0.13064223  0.37213862  1
  V  V19  1  0.24523775  -0.00791601  0.24621079  1
  V  V20  1  0.50612322  0.00768125  0.50197453  1
  V  V21  1  0.87900346  0.74340580  0.59839719  1
  V  V22  1  0.25266203  0.74904799  0.48379922  1
  V  V23  1  0.11536939  0.12518566  0.50689962  1
  V  V24  1  0.50142229  0.61919021  0.62586148  1
  V  V25  1  0.65829839  0.22877365  0.87319733  1
  V  V26  1  0.74682053  0.62715831  0.87918247  1
  V  V27  1  0.87064862  0.00503910  0.85273096  1
  V  V28  1  0.24665200  0.50673171  0.25019911  1
  V  V29  1  0.13920249  0.62221188  0.47748888  1
  V  V30  1  0.85196143  0.87220340  -0.00330001  1
  V  V31  1  0.63567170  0.63451842  0.49549752  1
  V  V32  1  0.62754825  0.23987601  0.38114955  1
  V  V33  1  0.62213941  0.00526148  0.12251414  1
  V  V34  1  0.87231442  0.62580677  0.25273077  1
  V  V35  1  0.87988124  0.38280736  0.48859112  1
  V  V36  1  0.38752623  0.25345622  0.12931893  1
  V  V37  1  0.74634690  0.50254234  0.26803805  1
  V  V38  1  -0.00014786  -0.01387757  -0.00260619  1
  V  V39  1  0.50550470  0.75780812  0.75199431  1
  V  V40  1  0.63739104  0.75590711  0.37478171  1
  V  V41  1  0.74932915  0.37334921  0.11599273  1
  V  V42  1  0.75409462  0.86093889  0.62798865  1
  V  V43  1  0.49919203  0.13197365  0.63081578  1
  V  V44  1  0.09491613  0.77266588  0.88438662  1
  V  V45  1  0.37168549  0.74501393  0.63338462  1
  V  V46  1  0.50311607  0.61879247  0.12618537  1
  V  V47  1  0.35570106  0.11107909  0.75101352  1
  V  V48  1  0.12131370  0.13452358  0.02110520  1
  V  V49  1  0.01989142  0.62222996  0.63190609  1
  V  V50  1  0.38313683  0.50243341  0.37603952  1
  V  V51  1  0.87978520  0.23250498  0.62427532  1
  V  V52  1  0.88074450  0.37403882  -0.00231224  1
  V  V53  1  0.50073563  0.75117055  0.24783133  1
  V  V54  1  0.62335613  0.37072163  0.24164471  1
  V  V55  1  0.36969480  0.87963511  0.50971858  1
  V  V56  1  0.62424066  0.75717072  0.87495601  1
  V  V57  1  0.75145528  0.49878493  0.75201404  1
  V  V58  1  -0.00493050  -0.02600500  0.50106061  1
  V  V59  1  0.88464535  0.24207116  0.12606114  1
  V  V60  1  0.61397169  -0.00643788  0.64518359  1
  V  V61  1  0.75904239  0.37334336  0.62644545  1
  V  V62  1  0.50601217  0.49050060  0.00307572  1
  V  V63  1  -0.00278538  0.23522338  0.74781133  1
  V  V64  1  0.11893927  -0.02512972  0.13379747  1
  V  V65  1  0.25128201  0.25725335  0.49836695  1
  V  V66  1  -0.00737925  0.22829726  0.25475232  1
  V  V67  1  0.37438708  0.84939007  0.01538462  1
  V  V68  1  0.12643386  0.38807754  0.73620324  1
  V  V69  1  0.50405222  0.37088791  0.37306433  1
  V  V70  1  0.01666851  0.83599672  0.34828287  1
  V  V71  1  0.49971368  0.87329373  0.37521194  1
  V  V72  1  0.37914343  0.62521171  0.25237724  1
  Zn  Zn73  1  0.50397497  0.89658153  0.88157758  1
  Zn  Zn74  1  0.37228909  0.00158393  0.37319484  1
  Zn  Zn75  1  0.74818167  0.23852334  0.50545448  1
  Zn  Zn76  1  0.62026237  0.36331412  0.74404177  1
  Zn  Zn77  1  0.01510769  0.49266694  0.49223931  1
  Zn  Zn78  1  0.38228316  0.49900554  0.86278934  1
  Zn  Zn79  1  0.13680831  0.00311013  0.62998360  1
  Zn  Zn80  1  0.88188962  0.50902613  0.88090578  1
  Zn  Zn81  1  0.11116767  0.26075004  0.38260978  1
  Zn  Zn82  1  0.18548306  0.19876760  0.19428776  1
  Zn  Zn83  1  0.18459388  0.19927124  0.68633847  1
  Zn  Zn84  1  0.12951787  0.61487315  0.00520511  1
  Zn  Zn85  1  0.22025239  0.73384261  0.73943076  1
  Zn  Zn86  1  0.69995380  0.19322895  0.19722233  1
  Zn  Zn87  1  0.68972385  0.18351529  0.69183665  1
  Zn  Zn88  1  0.68383336  0.68653942  0.19071782  1
  Zn  Zn89  1  0.68715814  0.68624359  0.68913077  1
  Zn  Zn90  1  0.30844775  0.31851329  0.31156104  1
  Zn  Zn91  1  0.30483060  0.32289677  0.81455178  1
  Zn  Zn92  1  0.31991190  0.81267923  0.31255055  1
  Zn  Zn93  1  0.27993252  0.84077374  0.86944282  1
  Zn  Zn94  1  0.80736766  0.30555329  0.30987274  1
  Zn  Zn95  1  0.81961195  0.30981643  0.80864155  1
  Zn  Zn96  1  0.84831437  0.77699820  0.34560889  1
  Zn  Zn97  1  0.80647215  0.82641559  0.81424834  1
  Zn  Zn98  1  0.19607012  0.44193806  0.43378926  1
  Zn  Zn99  1  0.17451550  0.46003780  0.91724956  1
  Zn  Zn100  1  0.18261155  0.93747352  0.43247123  1
  Zn  Zn101  1  0.19342747  0.94559285  0.95336422  1
  Zn  Zn102  1  0.68913189  0.43001894  0.44174662  1
  Zn  Zn103  1  0.68629435  0.43215729  0.93651870  1
  Zn  Zn104  1  0.68968609  0.93480018  0.44568957  1
  Zn  Zn105  1  0.70743660  1.06230485  0.93286744  1
  Zn  Zn106  1  0.29737062  0.07596336  0.06869970  1
  Zn  Zn107  1  0.30623771  0.06684368  0.56531655  1
  Zn  Zn108  1  0.31853124  0.55713033  0.06794878  1
  Zn  Zn109  1  0.31256266  0.56399915  0.56057674  1
  Zn  Zn110  1  0.82652458  0.04811300  0.08677391  1
  Zn  Zn111  1  0.79628094  0.04144171  0.53975261  1
  Zn  Zn112  1  0.80858256  0.55335251  0.06566308  1
  Zn  Zn113  1  0.81216651  0.56181480  0.55992729  1
  Zn  Zn114  1  0.44072452  0.43686291  0.18678787  1
  Zn  Zn115  1  0.43745371  0.43838067  0.68490574  1
  Zn  Zn116  1  0.43047658  0.94063097  0.18716661  1
  Zn  Zn117  1  0.29197584  0.92549620  0.69824644  1
  Zn  Zn118  1  0.92450213  0.44303163  0.19134974  1
  Zn  Zn119  1  0.94239237  0.44597682  0.68601753  1
  Zn  Zn120  1  0.95452867  0.90350761  0.17644965  1
  Zn  Zn121  1  0.92491934  0.95763133  0.65136866  1
  Zn  Zn122  1  0.06006467  0.05178631  0.32190234  1
  Zn  Zn123  1  0.05025840  0.05039778  0.81355583  1
  Zn  Zn124  1  0.05687489  0.57013359  0.30656961  1
  Zn  Zn125  1  0.09129864  0.60439585  0.78998040  1
  Zn  Zn126  1  0.55967167  0.06102389  0.31372239  1
  Zn  Zn127  1  0.54635572  0.07520330  0.81443626  1
  Zn  Zn128  1  0.56695360  0.55943528  0.31555093  1
  Zn  Zn129  1  0.56199487  0.55797934  0.81092243  1
  Zn  Zn130  1  0.43628489  0.19127648  0.43511706  1
  Zn  Zn131  1  0.42732599  0.18154855  0.93571302  1
  Zn  Zn132  1  0.44586106  0.68571493  0.44292637  1
  Zn  Zn133  1  0.43764869  0.68258930  0.93711804  1
  Zn  Zn134  1  0.93199375  0.19145659  0.43620382  1
  Zn  Zn135  1  0.94674757  0.18285655  0.94302508  1
  Zn  Zn136  1  0.95849574  0.65434824  0.42628115  1
  Zn  Zn137  1  0.93267722  0.69603781  0.93905730  1
  Zn  Zn138  1  0.05798406  0.44110756  0.06405240  1
  Zn  Zn139  1  0.05752690  0.31136792  0.56144703  1
  Zn  Zn140  1  0.05812464  0.79230336  0.06608833  1
  Zn  Zn141  1  0.06491378  0.80044364  0.56885279  1
  Zn  Zn142  1  0.54722983  0.26683353  0.03285659  1
  Zn  Zn143  1  0.56069600  0.31273711  0.55959772  1
  Zn  Zn144  1  0.55667211  0.80734774  0.05506964  1
  Zn  Zn145  1  0.56217124  0.81560171  0.56338844  1
  O  O146  1  0.12173319  0.13718771  0.12203384  1
  O  O147  1  0.13450382  0.12948451  0.60904199  1
  O  O148  1  0.09266861  0.63180008  0.11785255  1
  O  O149  1  0.11478849  0.62807831  0.65128979  1
  O  O150  1  0.62879623  0.10951622  0.13526566  1
  O  O151  1  0.60203683  0.12311364  0.63194861  1
  O  O152  1  0.61530622  0.62822963  0.11338098  1
  O  O153  1  0.62174846  0.61973214  0.61575339  1
  O  O154  1  0.38558874  0.37878365  0.37763569  1
  O  O155  1  0.38311034  0.37223156  0.88481159  1
  O  O156  1  0.38466349  0.87749207  0.38921161  1
  O  O157  1  0.38346054  0.89361772  0.89849335  1
  O  O158  1  0.86456601  0.36504152  0.39187178  1
  O  O159  1  0.88895115  0.37084566  0.87908327  1
  O  O160  1  0.91554507  0.86262664  0.36731923  1
  O  O161  1  0.86915738  0.88920229  0.88955945  1
  O  O162  1  0.24963443  0.01194675  0.36461858  1
  O  O163  1  0.26798396  -0.00543156  0.87711894  1
  O  O164  1  0.27019619  0.49175306  0.35800499  1
  O  O165  1  0.26311968  0.50132905  0.86167799  1
  O  O166  1  0.74422261  0.00737290  0.38010885  1
  O  O167  1  0.76929296  0.00466312  0.85970775  1
  O  O168  1  0.74476152  0.49913353  0.36763320  1
  O  O169  1  0.74846949  0.50585563  0.86544402  1
  O  O170  1  0.26398789  0.48649294  0.14409700  1
  O  O171  1  0.24978185  0.50992231  0.63690319  1
  O  O172  1  0.23471601  1.00523068  0.13942627  1
  O  O173  1  0.24663105  0.98803818  0.61784682  1
  O  O174  1  0.75144344  0.47761250  0.13455920  1
  O  O175  1  0.74477389  0.49201593  0.63135405  1
  O  O176  1  0.72526659  0.99428940  0.13359983  1
  O  O177  1  0.72269962  1.02974770  0.64166765  1
  O  O178  1  0.01502919  0.39663443  0.24802048  1
  O  O179  1  0.00641433  0.37501400  0.75639471  1
  O  O180  1  0.01739963  0.84547582  0.24522387  1
  O  O181  1  0.07666289  0.89195156  0.72703810  1
  O  O182  1  0.51672947  0.37901947  0.25493251  1
  O  O183  1  0.49933488  0.38063831  0.76302832  1
  O  O184  1  0.48743230  0.86787809  0.26423418  1
  O  O185  1  0.49883722  0.85540271  0.76175942  1
  O  O186  1  0.47893186  0.12243588  0.25616948  1
  O  O187  1  0.47839474  0.12723978  0.73377950  1
  O  O188  1  0.50030797  0.62808456  0.24507936  1
  O  O189  1  0.50871081  0.62707880  0.73147935  1
  O  O190  1  1.00480541  0.12967885  0.25364529  1
  O  O191  1  1.00755212  0.13674236  0.74566636  1
  O  O192  1  0.97513701  0.61755662  0.23578108  1
  O  O193  1  0.98446609  0.61759330  0.73841437  1
  O  O194  1  0.37455023  0.25952945  0.01643613  1
  O  O195  1  0.36788319  0.25840948  0.50264451  1
  O  O196  1  0.38167421  0.74805914  0.01161929  1
  O  O197  1  0.36964268  0.75635530  0.50519238  1
  O  O198  1  0.88931278  0.26035095  0.01373857  1
  O  O199  1  0.87680506  0.26115168  0.51584458  1
  O  O200  1  0.86046438  0.76230624  0.00191965  1
  O  O201  1  0.88194619  0.72979841  0.50114758  1
  O  O202  1  0.13521175  0.24845325  0.49991400  1
  O  O203  1  0.11064893  0.23442360  0.98057139  1
  O  O204  1  0.15059386  0.74560596  0.51088535  1
  O  O205  1  0.11289349  0.73286512  0.98165764  1
  O  O206  1  0.62723595  0.25503832  0.48628885  1
  O  O207  1  0.63844171  0.25808923  0.96922269  1
  O  O208  1  0.62541493  0.74434966  0.49144988  1
  O  O209  1  0.61384188  0.73292629  0.98479984  1
  O  O210  1  0.48637296  0.26047308  0.13233496  1
  O  O211  1  0.48584597  0.23883066  0.61423735  1
  O  O212  1  0.51183209  0.74160514  0.14130415  1
  O  O213  1  0.50335160  0.74320452  0.63419932  1
  O  O214  1  0.98835672  0.25588422  0.14600191  1
  O  O215  1  0.98945662  0.25274403  0.63597265  1
  O  O216  1  0.97209077  0.73118871  0.11388766  1
  O  O217  1  0.98343742  0.73475553  0.62422741  1
  O  O218  1  -0.00351782  0.25195182  0.35923568  1
  O  O219  1  0.00409638  0.25444412  0.85883037  1
  O  O220  1  0.01876695  0.73666256  0.37006250  1
  O  O221  1  -0.00624672  0.77319644  0.88066972  1
  O  O222  1  0.51005754  0.26021954  0.37646199  1
  O  O223  1  0.49517571  0.26135820  0.87213572  1
  O  O224  1  0.50700651  0.75773877  0.37034556  1
  O  O225  1  0.51070034  0.73248281  0.86049446  1
  O  O226  1  0.24722044  0.13672874  0.48945294  1
  O  O227  1  0.21894735  0.11824721  0.99785495  1
  O  O228  1  0.24884557  0.63700723  0.49823583  1
  O  O229  1  0.25623950  0.61736054  0.99694836  1
  O  O230  1  0.74807058  0.12536325  0.48305869  1
  O  O231  1  0.74778673  0.10403258  1.02767864  1
  O  O232  1  0.73480932  0.62597044  0.50363831  1
  O  O233  1  0.73962243  0.61272978  0.98878710  1
  O  O234  1  0.26076849  0.38267787  0.01829456  1
  O  O235  1  0.26340634  0.36617114  0.49053529  1
  O  O236  1  0.27146628  0.86567701  -0.01094560  1
  O  O237  1  0.26341586  0.86607133  0.49411788  1
  O  O238  1  0.75435834  0.37185897  0.01127535  1
  O  O239  1  0.75848842  0.36777160  0.51301937  1
  O  O240  1  0.75769121  0.88641849  0.00200332  1
  O  O241  1  0.75536614  0.91971971  0.53916278  1
  O  O242  1  0.14030519  0.50024248  0.25723157  1
  O  O243  1  0.13244854  0.49331314  0.75230973  1
  O  O244  1  0.13366782  1.00061850  0.24415084  1
  O  O245  1  0.10887179  0.96912797  0.74573571  1
  O  O246  1  0.63494445  0.48622632  0.25360412  1
  O  O247  1  0.63719673  0.50001098  0.73672994  1
  O  O248  1  0.61449147  0.99803696  0.22867222  1
  O  O249  1  0.60298601  0.99752404  0.74197812  1
  O  O250  1  0.36095521  0.01733264  0.24574296  1
  O  O251  1  0.36183950  0.01109407  0.74440634  1
  O  O252  1  0.37727387  0.50499605  0.25812428  1
  O  O253  1  0.35973540  0.49267101  0.74519831  1
  O  O254  1  0.86188343  -0.00345004  0.20385189  1
  O  O255  1  0.89965452  -0.00983416  0.75613545  1
  O  O256  1  0.85713138  0.51176685  0.25428795  1
  O  O257  1  0.86218767  0.51059298  0.75001852  1
  O  O258  1  0.12852724  0.37903705  0.36188525  1
  O  O259  1  0.11125814  0.36883068  0.86676236  1
  O  O260  1  0.10900149  0.87943488  0.37323025  1
  O  O261  1  0.13407095  0.86734537  0.88607609  1
  O  O262  1  0.61928676  0.36837333  0.36998801  1
  O  O263  1  0.61308325  0.37150638  0.86876039  1
  O  O264  1  0.61356016  0.86448298  0.38863532  1
  O  O265  1  0.61651953  0.85549323  0.88196765  1
  O  O266  1  0.36392234  0.14361462  0.13759512  1
  O  O267  1  0.37578714  0.13753620  0.63105694  1
  O  O268  1  0.39291705  0.61862748  0.13842892  1
  O  O269  1  0.39482247  0.63367531  0.61055616  1
  O  O270  1  0.87711262  0.14313298  0.12281196  1
  O  O271  1  0.87301982  0.13621380  0.61516621  1
  O  O272  1  0.86720374  0.62998370  0.12758814  1
  O  O273  1  0.86470371  0.63803952  0.63239896  1
  O  O274  1  0.25545110  0.26979040  0.13353834  1
  O  O275  1  0.26360097  0.25105474  0.61231871  1
  O  O276  1  0.22593157  0.74926315  0.15543619  1
  O  O277  1  0.27151561  0.73738864  0.62702983  1
  O  O278  1  0.76878144  0.26444012  0.13920916  1
  O  O279  1  0.76353410  0.25503732  0.63043137  1
  O  O280  1  0.75075318  0.74338961  0.11673125  1
  O  O281  1  0.75287169  0.75579664  0.61808068  1
  O  O282  1  0.24691993  0.24627711  0.38120019  1
  O  O283  1  0.22861909  0.25590501  0.86846848  1
  O  O284  1  0.25546142  0.74998581  0.38509289  1
  O  O285  1  0.25237484  0.72492037  0.87664060  1
  O  O286  1  0.73725267  0.24069619  0.37825476  1
  O  O287  1  0.75882813  0.23456976  0.86946965  1
  O  O288  1  0.73535276  0.76609559  0.37000538  1
  O  O289  1  0.73359198  0.74050878  0.86700966  1
  O  O290  1  0.01522162  0.10380922  -0.00077193  1
  O  O291  1  0.01723530  0.14121411  0.49889478  1
  O  O292  1  -0.01783039  0.61508447  0.00309881  1
  O  O293  1  0.03715887  0.63949401  0.51834240  1
  O  O294  1  0.50916397  0.16027148  0.00738310  1
  O  O295  1  0.48409106  0.11225820  0.50850056  1
  O  O296  1  0.50599282  0.61152887  0.00729635  1
  O  O297  1  0.51766102  0.63070057  0.51539348  1
  O  O298  1  0.48890133  0.37279856  0.48944018  1
  O  O299  1  0.49584471  0.37376790  0.99039358  1
  O  O300  1  0.48977790  0.88379650  0.49701975  1
  O  O301  1  0.48503137  0.86936844  0.99567709  1
  O  O302  1  0.98692507  0.37824358  0.50127202  1
  O  O303  1  0.99545985  0.37861095  0.98398064  1
  O  O304  1  1.01111208  0.87240815  0.49866539  1
  O  O305  1  1.00482888  0.88477739  1.01283696  1
  O  O306  1  0.49372187  0.48631204  0.37185173  1
  O  O307  1  0.49881018  0.48972345  0.88475221  1
  O  O308  1  0.49700683  0.99443927  0.38645999  1
  O  O309  1  0.47741073  1.00846900  0.87198148  1
  O  O310  1  0.99105748  0.54569273  0.39517240  1
  O  O311  1  0.99924017  0.48810043  0.86642003  1
  O  O312  1  0.99724949  1.00638707  0.40344126  1
  O  O313  1  0.99710295  0.98622718  0.89376147  1
  O  O314  1  0.01584653  -0.00682709  0.12947509  1
  O  O315  1  0.02573545  -0.00888564  0.60654555  1
  O  O316  1  -0.01473570  0.50945664  0.12121537  1
  O  O317  1  -0.00635253  0.52052565  0.61101240  1
  O  O318  1  0.51615309  0.00724978  0.12395756  1
  O  O319  1  0.50447480  0.00982607  0.61508428  1
  O  O320  1  0.50356962  0.50498410  0.11620901  1
  O  O321  1  0.51058507  0.50983751  0.62737016  1
  O  O322  1  0.23983426  0.38363191  0.24397105  1
  O  O323  1  0.23194251  0.38462531  0.74953335  1
  O  O324  1  0.26162878  0.89423781  0.25714217  1
  O  O325  1  0.26123693  0.84012415  0.75913462  1
  O  O326  1  0.74246886  0.38416575  0.24946714  1
  O  O327  1  0.75243103  0.38247382  0.74272680  1
  O  O328  1  0.81026056  0.96184704  0.24385080  1
  O  O329  1  0.75551965  0.88305803  0.72613670  1
  O  O330  1  0.25149855  0.12493044  0.25904240  1
  O  O331  1  0.25845777  0.13179053  0.74091110  1
  O  O332  1  0.26831244  0.60898151  0.24678590  1
  O  O333  1  0.24651593  0.61426653  0.76013618  1
  O  O334  1  0.74728669  0.12555491  0.27137248  1
  O  O335  1  0.74371467  0.08152752  0.70364257  1
  O  O336  1  0.74837621  0.60785187  0.24441010  1
  O  O337  1  0.75382100  0.61872829  0.75864528  1
  O  O338  1  0.36394299  0.12821821  0.36453131  1
  O  O339  1  0.37073234  0.12075325  0.85855892  1
  O  O340  1  0.39123890  0.61335838  0.36788901  1
  O  O341  1  0.36670045  0.61434962  0.88027770  1
  O  O342  1  0.86820110  0.11992369  0.37613689  1
  O  O343  1  0.89191390  0.10157690  0.88016418  1
  O  O344  1  0.86516151  0.65348842  0.35164717  1
  O  O345  1  0.86302426  0.62655156  0.86968790  1
  O  O346  1  0.13512214  0.38017439  0.13788253  1
  O  O347  1  0.11605542  0.37686776  0.63746462  1
  O  O348  1  0.12646244  0.87673982  0.12302064  1
  O  O349  1  0.11757894  0.86226356  0.66446531  1
  O  O350  1  0.63907902  0.36011875  0.13752531  1
  O  O351  1  0.63327982  0.37873458  0.62498098  1
  O  O352  1  0.61628430  0.90001350  0.11260716  1
  O  O353  1  0.63211704  0.88859674  0.62467010  1
  O  O354  1  0.10830330  0.26713074  0.25213961  1
  O  O355  1  0.11292450  0.26292079  0.75227585  1
  O  O356  1  0.18209655  0.74754240  0.21312861  1
  O  O357  1  0.11657831  0.72399390  0.79213657  1
  O  O358  1  0.63165543  0.26475965  0.26368038  1
  O  O359  1  0.63395772  0.24894617  0.76733574  1
  O  O360  1  0.61608691  0.74502717  0.26733188  1
  O  O361  1  0.61672878  0.74557199  0.75967700  1
  O  O362  1  0.37168285  0.24548141  0.24391706  1
  O  O363  1  0.36637457  0.25622660  0.73479792  1
  O  O364  1  0.38825921  0.73629628  0.25981890  1
  O  O365  1  0.39254260  0.74018409  0.73366557  1
  O  O366  1  0.88624483  0.25283608  0.24485096  1
  O  O367  1  0.88796309  0.24797799  0.73827112  1
  O  O368  1  0.85659091  0.73727286  0.22954270  1
  O  O369  1  0.86474333  0.74046880  0.75509193  1
  O  O370  1  0.36686826  0.48967639  0.48904126  1
  O  O371  1  0.38999619  0.48348574  1.00613637  1
  O  O372  1  0.37957617  0.98848926  0.50307249  1
  O  O373  1  0.37098110  1.02402472  0.99847190  1
  O  O374  1  0.86923931  0.48478045  0.50045546  1
  O  O375  1  0.86558366  0.47995979  0.99413058  1
  O  O376  1  0.89728033  0.99097579  0.53523537  1
  O  O377  1  0.89030043  0.98469381  1.01492736  1
  O  O378  1  0.11829820  0.00325526  0.02130928  1
  O  O379  1  0.12198845  0.01796420  0.49580803  1
  O  O380  1  0.13800068  0.49897319  0.01408940  1
  O  O381  1  0.13717685  0.51776073  0.49599554  1
  O  O382  1  0.62260582  0.01583571  0.01973522  1
  O  O383  1  0.60681892  -0.00003073  0.50665370  1
  O  O384  1  0.61584035  0.50556164  -0.00457866  1
  O  O385  1  0.63118324  0.50829506  0.51082697  1
  O  O386  1  0.36974648  0.36690904  0.12440947  1
  O  O387  1  0.38574661  0.36299163  0.61302128  1
  O  O388  1  0.37569235  0.87815878  0.11337787  1
  O  O389  1  0.37852341  0.85894733  0.61332548  1
  O  O390  1  0.86768309  0.37004105  0.11727637  1
  O  O391  1  0.86733221  0.37497744  0.62226695  1
  O  O392  1  0.87052404  0.85714535  0.11443217  1
  O  O393  1  0.86848966  0.84980838  0.62349934  1
  O  O394  1  0.13323158  0.13190656  0.38392364  1
  O  O395  1  0.12088295  0.13494088  0.85880261  1
  O  O396  1  0.13659492  0.62821983  0.37990146  1
  O  O397  1  0.14904706  0.59685665  0.88798542  1
  O  O398  1  0.61633808  0.13924919  0.37119484  1
  O  O399  1  0.63420748  0.12456601  0.87066416  1
  O  O400  1  0.61994395  0.63717868  0.38771486  1
  O  O401  1  0.63212345  0.62412134  0.88115126  1
