# generated using pymatgen
data_V73Zn73O256
_symmetry_space_group_name_H-M   'P 1'
_cell_length_a   16.91097940
_cell_length_b   16.87074623
_cell_length_c   16.89093823
_cell_angle_alpha   90.16279394
_cell_angle_beta   90.29046776
_cell_angle_gamma   90.02651145
_symmetry_Int_Tables_number   1
_chemical_formula_structural   V73Zn73O256
_chemical_formula_sum   'V73 Zn73 O256'
_cell_volume   4818.91697368
_cell_formula_units_Z   1
loop_
 _symmetry_equiv_pos_site_id
 _symmetry_equiv_pos_as_xyz
  1  'x, y, z'
loop_
 _atom_site_type_symbol
 _atom_site_label
 _atom_site_symmetry_multiplicity
 _atom_site_fract_x
 _atom_site_fract_y
 _atom_site_fract_z
 _atom_site_occupancy
  V  V0  1  0.61277282  0.49912685  0.60290936  1
  V  V1  1  0.62735877  0.88934189  0.24456279  1
  V  V2  1  0.49975513  0.11567135  0.12474121  1
  V  V3  1  0.37354394  0.75788841  0.11460774  1
  V  V4  1  0.12970902  0.75067874  0.88727012  1
  V  V5  1  0.00021284  0.63587902  0.11433911  1
  V  V6  1  0.11743810  0.12250900  0.47428537  1
  V  V7  1  0.50442309  0.11367229  0.61918375  1
  V  V8  1  0.02351689  0.25841762  0.25009503  1
  V  V9  1  -0.00476273  0.13004636  0.13361416  1
  V  V10  1  0.12832756  0.87498008  0.74146085  1
  V  V11  1  0.02956951  0.37001187  0.87487611  1
  V  V12  1  0.59485432  0.66420159  0.51402278  1
  V  V13  1  0.77561648  0.62011016  0.85274002  1
  V  V14  1  0.50310356  0.50181169  -0.00179565  1
  V  V15  1  0.49666292  -0.00443543  -0.02240883  1
  V  V16  1  0.14052718  0.61133119  -0.00138308  1
  V  V17  1  0.13688867  0.00506993  0.12087267  1
  V  V18  1  0.37182040  0.87644663  -0.02837392  1
  V  V19  1  0.11529506  0.02854973  0.63196684  1
  V  V20  1  0.25116228  0.24947220  -0.01131400  1
  V  V21  1  0.38746250  0.37391419  0.00109299  1
  V  V22  1  0.50738189  0.76041448  0.25143929  1
  V  V23  1  0.24436749  0.48520713  0.74738719  1
  V  V24  1  0.38024603  0.24498715  0.13114651  1
  V  V25  1  0.75290421  0.25275609  -0.00843068  1
  V  V26  1  0.46400086  0.88482034  0.40108376  1
  V  V27  1  0.27998639  0.12287910  0.36807399  1
  V  V28  1  0.86252197  0.62449299  0.28445791  1
  V  V29  1  0.25365941  0.63550383  0.86897365  1
  V  V30  1  0.00751340  0.49248630  0.00512146  1
  V  V31  1  0.61120600  0.26059529  0.87427822  1
  V  V32  1  0.61722500  0.74923079  0.86637007  1
  V  V33  1  -0.00602904  0.73985292  0.75515919  1
  V  V34  1  0.72447773  0.64157198  0.40278493  1
  V  V35  1  0.61476932  0.38461539  0.75066476  1
  V  V36  1  0.50512178  0.38247817  0.37950574  1
  V  V37  1  0.75131214  0.36912937  0.61957540  1
  V  V38  1  -0.00401300  0.00645471  0.00082523  1
  V  V39  1  0.17922148  0.43657486  0.29876535  1
  V  V40  1  0.50023687  0.63040083  0.12267073  1
  V  V41  1  -0.00888685  0.37351000  0.37952046  1
  V  V42  1  0.28864817  0.80258891  0.57102167  1
  V  V43  1  0.36953370  0.38792595  0.49437461  1
  V  V44  1  0.24564331  0.38517218  0.12839510  1
  V  V45  1  0.75048925  0.12378458  0.36884202  1
  V  V46  1  0.25127328  0.87660906  0.12363048  1
  V  V47  1  -0.01096153  0.48685114  0.50416749  1
  V  V48  1  0.12610202  0.62876572  0.49304009  1
  V  V49  1  0.37100446  0.61904682  0.25408052  1
  V  V50  1  0.38949615  0.63240364  0.73828997  1
  V  V51  1  0.75310001  0.85981334  0.62510998  1
  V  V52  1  0.38061522  0.49560679  0.87219853  1
  V  V53  1  -0.00181961  0.87376846  0.87767281  1
  V  V54  1  0.12943537  0.13294251  -0.01471749  1
  V  V55  1  -0.00092270  0.24024665  0.75244458  1
  V  V56  1  0.64316346  0.63613216  0.00043422  1
  V  V57  1  0.86869676  0.26263173  0.13564493  1
  V  V58  1  0.88679479  0.86881123  0.49200300  1
  V  V59  1  0.12916170  0.48144837  0.62965578  1
  V  V60  1  0.75184198  0.86242279  0.12160013  1
  V  V61  1  0.71208023  0.24724208  0.49561613  1
  V  V62  1  0.38196041  0.12716050  0.76100514  1
  V  V63  1  0.86932976  0.38234877  -0.00936669  1
  V  V64  1  -0.00345133  0.61589743  0.63977751  1
  V  V65  1  0.37276975  0.25090313  0.62092835  1
  V  V66  1  0.87255444  0.86406944  0.00505607  1
  V  V67  1  0.63636369  0.50217469  0.13545409  1
  V  V68  1  0.25109170  0.01881681  0.76224300  1
  V  V69  1  0.86975164  0.01570278  0.87165987  1
  V  V70  1  0.63197696  0.11722679  -0.00637938  1
  V  V71  1  0.77836820  0.00475920  0.24539396  1
  V  V72  1  0.75192598  0.01195597  0.74473602  1
  Zn  Zn73  1  -0.02567881  0.00931391  0.52440229  1
  Zn  Zn74  1  0.24529804  0.61379378  0.36969948  1
  Zn  Zn75  1  0.63755936  0.36882469  0.25318160  1
  Zn  Zn76  1  0.63622123  0.87562196  0.75463185  1
  Zn  Zn77  1  -0.00739773  0.75131532  0.26655204  1
  Zn  Zn78  1  0.52172735  0.24201732  0.26579683  1
  Zn  Zn79  1  0.60796783  0.09795852  0.47526168  1
  Zn  Zn80  1  0.24034439  0.24879235  0.49786251  1
  Zn  Zn81  1  0.87201600  0.73536666  0.62116876  1
  Zn  Zn82  1  0.19964583  0.18627789  0.18492792  1
  Zn  Zn83  1  0.19015567  0.20575286  0.70159408  1
  Zn  Zn84  1  0.18782786  0.68786430  0.18570623  1
  Zn  Zn85  1  0.17434993  0.67470001  0.69607810  1
  Zn  Zn86  1  0.69115554  0.17837002  0.18156432  1
  Zn  Zn87  1  0.68410315  0.19313742  0.69071812  1
  Zn  Zn88  1  0.69598719  0.68465326  0.19879781  1
  Zn  Zn89  1  0.68289099  0.67882004  0.68505656  1
  Zn  Zn90  1  0.32314290  0.30655004  0.31880720  1
  Zn  Zn91  1  0.32290001  0.30982056  0.81067516  1
  Zn  Zn92  1  0.31270723  0.82327955  0.29837276  1
  Zn  Zn93  1  0.33784686  0.83752837  0.75961565  1
  Zn  Zn94  1  0.80644652  0.31184694  0.32002738  1
  Zn  Zn95  1  0.80889368  0.31930079  0.80708676  1
  Zn  Zn96  1  0.80916654  0.80382347  0.31154364  1
  Zn  Zn97  1  0.80754402  0.80808830  0.81776136  1
  Zn  Zn98  1  0.18586697  0.43211078  0.45772320  1
  Zn  Zn99  1  0.20380830  0.43830027  0.93901156  1
  Zn  Zn100  1  0.27627189  0.93971091  0.45299986  1
  Zn  Zn101  1  0.18575595  0.93911187  0.93765526  1
  Zn  Zn102  1  0.70543664  0.43077792  0.41296246  1
  Zn  Zn103  1  0.68974909  0.44493674  0.93839202  1
  Zn  Zn104  1  0.70383077  0.92037298  0.42651090  1
  Zn  Zn105  1  0.69171856  0.93617705  0.93365823  1
  Zn  Zn106  1  0.31774422  0.06277223  0.04701377  1
  Zn  Zn107  1  0.29434993  0.07617722  0.57416050  1
  Zn  Zn108  1  0.31790893  0.56326101  0.06380313  1
  Zn  Zn109  1  0.30604956  0.57043166  0.56458880  1
  Zn  Zn110  1  0.81511035  0.06472975  0.06466940  1
  Zn  Zn111  1  0.76619581  0.03114669  0.53710097  1
  Zn  Zn112  1  0.81866157  0.56235409  0.06977715  1
  Zn  Zn113  1  0.81339919  0.53503833  0.67680679  1
  Zn  Zn114  1  0.44894378  0.43477506  0.19234127  1
  Zn  Zn115  1  0.43608015  0.43892052  0.68491417  1
  Zn  Zn116  1  0.43603705  0.94203601  0.17905472  1
  Zn  Zn117  1  0.41079798  0.94267990  0.59462060  1
  Zn  Zn118  1  0.94492209  0.44741699  0.19056128  1
  Zn  Zn119  1  0.94409526  0.39420289  0.68530803  1
  Zn  Zn120  1  0.94767907  0.92930778  0.19276014  1
  Zn  Zn121  1  0.93281178  0.93298896  0.68860287  1
  Zn  Zn122  1  0.16489415  0.03349145  0.30218501  1
  Zn  Zn123  1  0.05306164  0.06612824  0.80760859  1
  Zn  Zn124  1  0.03676132  0.57369412  0.30986956  1
  Zn  Zn125  1  -0.05721897  0.53732458  0.81425605  1
  Zn  Zn126  1  0.55981445  0.05346876  0.30918390  1
  Zn  Zn127  1  0.56928325  0.06767044  0.80661264  1
  Zn  Zn128  1  0.58496692  0.55231712  0.34426951  1
  Zn  Zn129  1  0.56764160  0.56361502  0.81272006  1
  Zn  Zn130  1  0.44307011  0.19155038  0.44168586  1
  Zn  Zn131  1  0.44287314  0.19039023  0.94230374  1
  Zn  Zn132  1  0.41654457  0.68267953  0.45106497  1
  Zn  Zn133  1  0.43844907  0.68963152  0.93056086  1
  Zn  Zn134  1  0.95345529  0.16482251  0.40138499  1
  Zn  Zn135  1  0.93998677  0.19780141  0.93934834  1
  Zn  Zn136  1  0.92986244  0.67297457  0.44871551  1
  Zn  Zn137  1  0.94591939  0.68609053  0.94715128  1
  Zn  Zn138  1  0.06365555  0.31238033  0.06367605  1
  Zn  Zn139  1  0.06211916  0.29744085  0.56712482  1
  Zn  Zn140  1  0.05128838  0.82769901  0.10033594  1
  Zn  Zn141  1  0.09856093  0.84002100  0.52664659  1
  Zn  Zn142  1  0.58693195  0.29557961  0.09362662  1
  Zn  Zn143  1  0.54630890  0.31298708  0.56930976  1
  Zn  Zn144  1  0.56418096  0.81799730  0.05788786  1
  Zn  Zn145  1  0.58015209  0.93630720  0.56513054  1
  O  O146  1  0.12046867  0.11624782  0.11729590  1
  O  O147  1  0.11492898  0.12714941  0.63982848  1
  O  O148  1  0.14004691  0.63144630  0.09843116  1
  O  O149  1  0.11233314  0.60837285  0.62254940  1
  O  O150  1  0.61004840  0.13164719  0.10235875  1
  O  O151  1  0.60353549  0.12854359  0.63460280  1
  O  O152  1  0.61901161  0.62737979  0.11394067  1
  O  O153  1  0.62584998  0.61014369  0.61244711  1
  O  O154  1  0.37518777  0.38243250  0.38829602  1
  O  O155  1  0.37451839  0.38669367  0.88545823  1
  O  O156  1  0.36069533  0.87674652  0.38821153  1
  O  O157  1  0.37229267  0.86778880  0.87333838  1
  O  O158  1  0.89361601  0.35957848  0.38483971  1
  O  O159  1  0.87461733  0.37922517  0.89070351  1
  O  O160  1  0.86767346  0.86246324  0.39146674  1
  O  O161  1  0.88344101  0.88168930  0.88661879  1
  O  O162  1  0.24618845  0.01559031  0.37669337  1
  O  O163  1  0.23627628  0.00549525  0.86144108  1
  O  O164  1  0.23705862  0.49308317  0.36293218  1
  O  O165  1  0.26098947  0.50501690  0.86391492  1
  O  O166  1  0.75108970  0.00571881  0.35359740  1
  O  O167  1  0.76565188  -0.00050878  0.86997497  1
  O  O168  1  0.70084030  0.53983744  0.37687428  1
  O  O169  1  0.74849371  0.52734638  0.88488445  1
  O  O170  1  0.26088869  0.48422811  0.12324942  1
  O  O171  1  0.24093044  0.50376085  0.63841459  1
  O  O172  1  0.24193679  1.00075835  0.11278553  1
  O  O173  1  0.22352056  1.01104890  0.64896336  1
  O  O174  1  0.73551012  0.50808376  0.12229283  1
  O  O175  1  0.73184907  0.47676854  0.61799689  1
  O  O176  1  0.76094813  0.99665433  0.13947047  1
  O  O177  1  0.76311638  0.98649136  0.64313794  1
  O  O178  1  -0.00194253  0.36651766  0.26114978  1
  O  O179  1  0.02047629  0.38491814  0.77652643  1
  O  O180  1  0.01681846  0.84418241  0.20957062  1
  O  O181  1  0.00635338  0.86661043  0.76390991  1
  O  O182  1  0.51156647  0.37186403  0.26202352  1
  O  O183  1  0.51495577  0.37636682  0.75038053  1
  O  O184  1  0.51802475  0.86840475  0.22212794  1
  O  O185  1  0.50518268  0.85166573  0.72977996  1
  O  O186  1  0.50901981  0.12310709  0.22754439  1
  O  O187  1  0.48618245  0.11357141  0.74081437  1
  O  O188  1  0.48738517  0.64850136  0.23941887  1
  O  O189  1  0.48898555  0.61897574  0.75264786  1
  O  O190  1  1.00308939  0.14639370  0.23848361  1
  O  O191  1  0.98919293  0.13878918  0.75035985  1
  O  O192  1  1.04109454  0.65189724  0.20853596  1
  O  O193  1  1.00351476  0.62079845  0.74766705  1
  O  O194  1  0.37069161  0.25814151  0.00379677  1
  O  O195  1  0.37063172  0.24958690  0.51338790  1
  O  O196  1  0.38507544  0.76704230  0.00243771  1
  O  O197  1  0.34876295  0.75366892  0.50628894  1
  O  O198  1  0.87148119  0.26510802  0.00635130  1
  O  O199  1  0.88141789  0.22784784  0.52228052  1
  O  O200  1  0.87397100  0.76605490  -0.00804833  1
  O  O201  1  0.89041932  0.75958332  0.50860547  1
  O  O202  1  0.11995906  0.22570744  0.50266442  1
  O  O203  1  0.13363490  0.23795135  1.00693570  1
  O  O204  1  0.10635206  0.72678850  0.50393942  1
  O  O205  1  0.13094785  0.74003110  0.98688179  1
  O  O206  1  0.61310632  0.24166590  0.49669602  1
  O  O207  1  0.63524098  0.24948856  0.99498600  1
  O  O208  1  0.59591209  0.75897883  0.53249309  1
  O  O209  1  0.62433427  0.73965284  0.99396407  1
  O  O210  1  0.48659215  0.23763912  0.11207486  1
  O  O211  1  0.48360406  0.23143614  0.62400508  1
  O  O212  1  0.49343784  0.74733922  0.12378890  1
  O  O213  1  0.50095064  0.79856220  0.67828566  1
  O  O214  1  0.99275182  0.25162036  0.13535834  1
  O  O215  1  0.99241324  0.28797634  0.65198306  1
  O  O216  1  1.00367169  0.73062794  0.07656563  1
  O  O217  1  1.00316170  0.72285643  0.64058849  1
  O  O218  1  0.00735381  0.25556128  0.35781579  1
  O  O219  1  0.00364493  0.26471956  0.87386562  1
  O  O220  1  -0.02318354  0.66943289  0.34614455  1
  O  O221  1  0.00926750  0.75523106  0.87499153  1
  O  O222  1  0.47863444  0.26570688  0.36610492  1
  O  O223  1  0.51308824  0.26485372  0.88854344  1
  O  O224  1  0.49040488  0.78600273  0.35371953  1
  O  O225  1  0.51718241  0.74892374  0.87535127  1
  O  O226  1  0.23485049  0.12554283  0.48314922  1
  O  O227  1  0.23750650  0.13164942  0.99881474  1
  O  O228  1  0.23359587  0.62047764  0.49221745  1
  O  O229  1  0.24928184  0.61407547  0.98336352  1
  O  O230  1  0.73596878  0.13294010  0.48806380  1
  O  O231  1  0.73661765  0.13012440  1.00417118  1
  O  O232  1  0.72266660  0.65671072  0.50118990  1
  O  O233  1  0.74243855  0.63065196  1.00822593  1
  O  O234  1  0.26694286  0.36979154  0.01155400  1
  O  O235  1  0.26337304  0.36310156  0.50031492  1
  O  O236  1  0.26928637  0.88509290  -0.00393449  1
  O  O237  1  0.21811992  0.85936003  0.51289208  1
  O  O238  1  0.76239502  0.37255734  0.00042960  1
  O  O239  1  0.73520205  0.35376749  0.50032496  1
  O  O240  1  0.76253449  0.88267887  0.01086406  1
  O  O241  1  0.76196584  0.86747544  0.51729807  1
  O  O242  1  0.11556838  0.49875933  0.25383991  1
  O  O243  1  0.13976599  0.49406614  0.74146493  1
  O  O244  1  0.11220192  0.98891576  0.21666690  1
  O  O245  1  0.12010361  0.99015758  0.74934111  1
  O  O246  1  0.61567079  0.52184571  0.23292554  1
  O  O247  1  0.62912933  0.48675255  0.75150799  1
  O  O248  1  0.62766862  0.98927967  0.23569758  1
  O  O249  1  0.64735903  0.99521790  0.76483511  1
  O  O250  1  0.36894228  -0.01574036  0.25483834  1
  O  O251  1  0.35397445  0.01197545  0.74922395  1
  O  O252  1  0.38671501  0.52179511  0.24157064  1
  O  O253  1  0.36936651  0.50559144  0.75652532  1
  O  O254  1  0.87813578  -0.00249869  0.25105278  1
  O  O255  1  0.87221095  -0.00098810  0.76647226  1
  O  O256  1  0.92030003  0.54004481  0.25746469  1
  O  O257  1  0.88381274  0.47492543  0.74124673  1
  O  O258  1  0.12530103  0.37919080  0.36579119  1
  O  O259  1  0.12762288  0.36880432  0.89353685  1
  O  O260  1  0.08434405  0.86986473  0.36918139  1
  O  O261  1  0.11270839  0.87008493  0.87676558  1
  O  O262  1  0.60402958  0.36823370  0.39046246  1
  O  O263  1  0.63575851  0.36981776  0.86528517  1
  O  O264  1  0.63740404  0.87373972  0.34399218  1
  O  O265  1  0.64042047  0.85335464  0.87442310  1
  O  O266  1  0.38588177  0.13378146  0.11123824  1
  O  O267  1  0.38305031  0.12803376  0.63456385  1
  O  O268  1  0.38022280  0.63880412  0.12704316  1
  O  O269  1  0.37249450  0.62190742  0.63972923  1
  O  O270  1  0.88850926  0.14370447  0.11305015  1
  O  O271  1  0.88613702  0.18665272  0.58254333  1
  O  O272  1  0.89973712  0.62501551  0.11789536  1
  O  O273  1  0.89269933  0.61317129  0.62737264  1
  O  O274  1  0.26559921  0.25371277  0.11481486  1
  O  O275  1  0.26529079  0.23439238  0.62168013  1
  O  O276  1  0.25831712  0.76710735  0.12131436  1
  O  O277  1  0.23730479  0.73955952  0.62783456  1
  O  O278  1  0.76533502  0.24551833  0.11210978  1
  O  O279  1  0.73252626  0.25166148  0.60335518  1
  O  O280  1  0.75583114  0.76389312  0.13253159  1
  O  O281  1  0.75740739  0.75583827  0.64101946  1
  O  O282  1  0.26309588  0.22957972  0.37821278  1
  O  O283  1  0.25632851  0.25824915  0.88988337  1
  O  O284  1  0.21533217  0.75776486  0.33524118  1
  O  O285  1  0.24715454  0.73679632  0.86812377  1
  O  O286  1  0.74391449  0.23587714  0.38608062  1
  O  O287  1  0.74710848  0.25379143  0.88855876  1
  O  O288  1  0.73061004  0.72992256  0.34753966  1
  O  O289  1  0.74711873  0.72281352  0.87053605  1
  O  O290  1  0.01076179  0.12552390  0.00856391  1
  O  O291  1  0.00787032  0.11180040  0.48560568  1
  O  O292  1  0.02103608  0.60964669  -0.00449041  1
  O  O293  1  0.00527643  0.60160645  0.51310967  1
  O  O294  1  0.50705255  0.11159115  -0.00036303  1
  O  O295  1  0.50033917  0.11807005  0.51150611  1
  O  O296  1  0.50042654  0.62131577  0.00873294  1
  O  O297  1  0.49575430  0.63753823  0.51282701  1
  O  O298  1  0.48015798  0.36842354  0.49172230  1
  O  O299  1  0.49250274  0.38973142  1.01143467  1
  O  O300  1  0.48945401  0.88699692  0.49970980  1
  O  O301  1  0.49342974  0.88935876  0.99876850  1
  O  O302  1  1.01515013  0.37480457  0.48845809  1
  O  O303  1  0.99306208  0.37450595  0.99670529  1
  O  O304  1  0.99242820  0.88697311  0.50366087  1
  O  O305  1  0.99013573  0.88677895  0.99835028  1
  O  O306  1  0.49839792  0.48500691  0.37239016  1
  O  O307  1  0.49246231  0.50870953  0.88779313  1
  O  O308  1  0.49760235  0.96946754  0.35874517  1
  O  O309  1  0.50658544  0.99877794  0.87924937  1
  O  O310  1  1.00003152  0.48246258  0.39134978  1
  O  O311  1  1.00417747  0.48266275  0.89507555  1
  O  O312  1  1.05838586  0.93824878  0.36134776  1
  O  O313  1  0.99179889  0.99339059  0.88271377  1
  O  O314  1  0.00223339  0.00940433  0.11277140  1
  O  O315  1  0.01132250  -0.00023084  0.63626136  1
  O  O316  1  0.00882391  0.50942155  0.11092454  1
  O  O317  1  0.01325216  0.49247895  0.62278756  1
  O  O318  1  0.49530342  0.01267182  0.10847374  1
  O  O319  1  0.50265888  0.00410051  0.62448964  1
  O  O320  1  0.50305749  0.51545806  0.11633644  1
  O  O321  1  0.51445186  0.49435795  0.62512862  1
  O  O322  1  0.25040214  0.37388575  0.24068344  1
  O  O323  1  0.25928766  0.38674997  0.75279361  1
  O  O324  1  0.24939857  0.88747380  0.22275049  1
  O  O325  1  0.22984123  0.88319832  0.75773461  1
  O  O326  1  0.73521347  0.39460035  0.30287667  1
  O  O327  1  0.73290913  0.35539155  0.72760485  1
  O  O328  1  0.75057492  0.88577011  0.23713734  1
  O  O329  1  0.75882938  0.88073740  0.74427939  1
  O  O330  1  0.24516381  0.12085901  0.26513668  1
  O  O331  1  0.25739698  0.12435042  0.75723264  1
  O  O332  1  0.26634521  0.62778626  0.24507648  1
  O  O333  1  0.25506017  0.61360917  0.76130215  1
  O  O334  1  0.75309035  0.11389980  0.25273305  1
  O  O335  1  0.75089923  0.11213697  0.73979593  1
  O  O336  1  0.77191185  0.61074571  0.23977663  1
  O  O337  1  0.76140993  0.61481515  0.74909002  1
  O  O338  1  0.37843279  0.11642001  0.37599793  1
  O  O339  1  0.38570401  0.13255077  0.86106713  1
  O  O340  1  0.36731390  0.63906844  0.35853079  1
  O  O341  1  0.36680116  0.61557419  0.87293147  1
  O  O342  1  0.85209354  0.12467984  0.37801950  1
  O  O343  1  0.88068661  0.11400917  0.88522342  1
  O  O344  1  0.83692573  0.61726347  0.38844360  1
  O  O345  1  0.87896319  0.62094060  0.87407031  1
  O  O346  1  0.14681781  0.37290447  0.11618615  1
  O  O347  1  0.13193689  0.38326404  0.61743504  1
  O  O348  1  0.14488209  0.89146617  0.09381005  1
  O  O349  1  0.11532571  0.87044961  0.64304321  1
  O  O350  1  0.61920446  0.40074655  0.12723374  1
  O  O351  1  0.62054296  0.37875950  0.63318575  1
  O  O352  1  0.64487796  0.87248456  0.12443346  1
  O  O353  1  0.64828572  0.87448765  0.63476330  1
  O  O354  1  0.12078102  0.25700172  0.23699064  1
  O  O355  1  0.10499148  0.24885649  0.75585538  1
  O  O356  1  0.15845254  0.75599253  0.27890310  1
  O  O357  1  0.11648602  0.75823258  0.76276299  1
  O  O358  1  0.61963987  0.26103019  0.20788566  1
  O  O359  1  0.62300151  0.25258814  0.77069411  1
  O  O360  1  0.60888382  0.75139913  0.23951456  1
  O  O361  1  0.62705946  0.74229240  0.76330211  1
  O  O362  1  0.37762573  0.24990257  0.23075266  1
  O  O363  1  0.37179924  0.23613040  0.74026952  1
  O  O364  1  0.38512648  0.75919304  0.23081658  1
  O  O365  1  0.37398926  0.73043521  0.75896946  1
  O  O366  1  0.86878167  0.25666394  0.23694282  1
  O  O367  1  0.89657554  0.26765966  0.76335139  1
  O  O368  1  0.87502122  0.72724781  0.25314016  1
  O  O369  1  0.89322154  0.75188965  0.75629434  1
  O  O370  1  0.36561276  0.48620357  0.51204945  1
  O  O371  1  0.38346329  0.49474204  0.99331238  1
  O  O372  1  0.34926713  0.99474279  0.51860698  1
  O  O373  1  0.38716791  0.99184466  0.98601840  1
  O  O374  1  0.89416609  0.48511876  0.51292653  1
  O  O375  1  0.88637471  0.48628402  1.01031505  1
  O  O376  1  0.86548267  0.97936418  0.50579432  1
  O  O377  1  0.88169017  0.99763267  0.99136490  1
  O  O378  1  0.11468862  0.01368200  0.00149124  1
  O  O379  1  0.12417474  0.02089554  0.52455657  1
  O  O380  1  0.12845423  0.50698326  -0.00285323  1
  O  O381  1  0.12238742  0.50463808  0.51718598  1
  O  O382  1  0.61972560  0.01172783  -0.01182955  1
  O  O383  1  0.65412944  -0.00544140  0.50084616  1
  O  O384  1  0.61875291  0.51550305  0.00677083  1
  O  O385  1  0.61672732  0.49053710  0.50564918  1
  O  O386  1  0.37511521  0.36387697  0.12017289  1
  O  O387  1  0.38192066  0.35813712  0.62009739  1
  O  O388  1  0.36588259  0.87501174  0.10932429  1
  O  O389  1  0.34793359  0.85927248  0.64093949  1
  O  O390  1  0.88301406  0.36687253  0.12164265  1
  O  O391  1  0.84901120  0.36753484  0.61694939  1
  O  O392  1  0.87027505  0.87832714  0.11121978  1
  O  O393  1  0.87042821  0.86387599  0.62191734  1
  O  O394  1  0.11490693  0.11471398  0.37474474  1
  O  O395  1  0.11537383  0.12549118  0.88795659  1
  O  O396  1  0.12067196  0.61293041  0.39107692  1
  O  O397  1  0.14262829  0.63064659  0.88193177  1
  O  O398  1  0.63577776  0.11715530  0.36453649  1
  O  O399  1  0.61838734  0.14320367  0.88825615  1
  O  O400  1  0.60646012  0.65182021  0.40420446  1
  O  O401  1  0.62785702  0.63150662  0.88944147  1
