# generated using pymatgen
data_V73Zn73O256
_symmetry_space_group_name_H-M   'P 1'
_cell_length_a   16.89022818
_cell_length_b   16.91969828
_cell_length_c   16.88225098
_cell_angle_alpha   89.86885598
_cell_angle_beta   89.79646433
_cell_angle_gamma   89.84687802
_symmetry_Int_Tables_number   1
_chemical_formula_structural   V73Zn73O256
_chemical_formula_sum   'V73 Zn73 O256'
_cell_volume   4824.50836938
_cell_formula_units_Z   1
loop_
 _symmetry_equiv_pos_site_id
 _symmetry_equiv_pos_as_xyz
  1  'x, y, z'
loop_
 _atom_site_type_symbol
 _atom_site_label
 _atom_site_symmetry_multiplicity
 _atom_site_fract_x
 _atom_site_fract_y
 _atom_site_fract_z
 _atom_site_occupancy
  V  V0  1  0.61917183  0.62349143  0.49970914  1
  V  V1  1  0.87610196  0.61494837  0.24544431  1
  V  V2  1  0.36873153  0.76843283  0.12597447  1
  V  V3  1  0.15427067  0.62668650  0.47409901  1
  V  V4  1  0.25417300  -0.01141280  0.75148914  1
  V  V5  1  0.37762679  0.24518605  0.61747969  1
  V  V6  1  0.74357779  0.87008016  0.63515971  1
  V  V7  1  0.75507293  0.23971171  0.00029530  1
  V  V8  1  0.87977504  0.74995728  0.62380844  1
  V  V9  1  0.86618142  0.62982912  0.74858610  1
  V  V10  1  0.50663074  0.12032724  0.61105649  1
  V  V11  1  0.37554379  0.51491005  0.37672925  1
  V  V12  1  0.16161431  0.22554501  0.86042500  1
  V  V13  1  -0.00465735  -0.00557036  0.49372398  1
  V  V14  1  0.25154035  0.37651915  0.11941610  1
  V  V15  1  0.74076401  0.87206247  0.11993887  1
  V  V16  1  0.50460444  0.37602180  0.37478356  1
  V  V17  1  0.38674166  0.62161360  0.22912957  1
  V  V18  1  0.50660527  0.74836927  0.25627072  1
  V  V19  1  0.76989771  0.26644714  0.47935445  1
  V  V20  1  0.37024570  0.12271062  0.75202937  1
  V  V21  1  0.73337999  0.49875562  0.75264315  1
  V  V22  1  0.49492526  -0.01323330  0.48863878  1
  V  V23  1  0.14274529  0.85489569  0.24795342  1
  V  V24  1  0.50198463  0.00123749  0.02282585  1
  V  V25  1  0.49010441  0.24139423  0.24072637  1
  V  V26  1  0.12946483  0.76433766  0.88590027  1
  V  V27  1  0.50693781  0.24597010  0.74836562  1
  V  V28  1  0.62240632  0.37395468  0.23143407  1
  V  V29  1  0.89383505  0.87361269  0.00025907  1
  V  V30  1  0.86618641  0.50296772  0.87460500  1
  V  V31  1  0.38613118  0.00252026  0.87308117  1
  V  V32  1  0.36652046  0.75365531  0.63122088  1
  V  V33  1  0.01504858  0.39203572  0.85667632  1
  V  V34  1  0.25123174  0.50759181  0.25908414  1
  V  V35  1  0.62357001  0.87797960  0.26474027  1
  V  V36  1  0.13770591  0.11126065  0.01261319  1
  V  V37  1  0.74842536  0.60816172  0.37641589  1
  V  V38  1  0.12266359  0.12778799  0.50221309  1
  V  V39  1  0.64075659  0.23968135  0.86586451  1
  V  V40  1  0.88028389  0.24908361  0.62078051  1
  V  V41  1  0.00029774  0.50337334  0.00055529  1
  V  V42  1  0.12953249  -0.00291659  0.62369713  1
  V  V43  1  0.14660484  0.62558305  -0.00370950  1
  V  V44  1  0.87633123  0.24240469  0.12210804  1
  V  V45  1  0.12230423  0.50533027  0.12879455  1
  V  V46  1  -0.01456073  0.49283251  0.48981435  1
  V  V47  1  0.75337171  0.01596628  0.75171724  1
  V  V48  1  0.10690359  0.87107087  0.74613592  1
  V  V49  1  0.11693788  0.25353627  0.37675325  1
  V  V50  1  0.00096102  0.24838520  0.23809089  1
  V  V51  1  0.74575170  0.38160242  0.62316484  1
  V  V52  1  0.62173297  0.23542354  0.37940960  1
  V  V53  1  0.50007377  0.62183113  0.64350034  1
  V  V54  1  0.23097625  0.01129258  0.23375742  1
  V  V55  1  0.74557348  0.49016196  0.23553360  1
  V  V56  1  0.11746857  0.38417270  0.25963521  1
  V  V57  1  0.24897140  0.24530830  0.49238908  1
  V  V58  1  0.77311213  0.11886030  0.37056994  1
  V  V59  1  0.36345698  0.88103534  -0.00457152  1
  V  V60  1  0.72982657  0.63431632  0.88165462  1
  V  V61  1  0.00100026  0.74264740  0.26108515  1
  V  V62  1  -0.00547667  0.24840984  0.75786177  1
  V  V63  1  0.50523335  0.50268870  0.50651919  1
  V  V64  1  0.74363675  0.75115685  0.49136189  1
  V  V65  1  0.24653243  0.38623581  0.63533118  1
  V  V66  1  0.62280992  0.12074984  0.01078397  1
  V  V67  1  0.00606949  0.60940493  0.62687071  1
  V  V68  1  0.86925791  0.37509694  0.00196882  1
  V  V69  1  0.50957781  0.76857015  0.76339548  1
  V  V70  1  0.36860177  0.11068471  0.25305769  1
  V  V71  1  0.62537408  -0.00083797  0.62124741  1
  V  V72  1  0.37378093  0.37585605  0.49647415  1
  Zn  Zn73  1  0.76099168  0.74412291  0.00516950  1
  Zn  Zn74  1  0.61547714  0.38045737  0.75436685  1
  Zn  Zn75  1  0.87495690  0.88489867  0.48058903  1
  Zn  Zn76  1  0.87487107  -0.00083457  0.87496623  1
  Zn  Zn77  1  -0.01593635  0.63196323  0.11357274  1
  Zn  Zn78  1  0.75429983  -0.00299863  0.25804981  1
  Zn  Zn79  1  0.37931084  0.86851518  0.50694619  1
  Zn  Zn80  1  -0.00716631  0.11811731  0.63456075  1
  Zn  Zn81  1  0.37814383  0.36574574  -0.00590380  1
  Zn  Zn82  1  0.19026180  0.19359924  0.18392522  1
  Zn  Zn83  1  0.18888923  0.19067960  0.68376111  1
  Zn  Zn84  1  0.19155981  0.68286642  0.18990469  1
  Zn  Zn85  1  0.18470834  0.68569445  0.69624591  1
  Zn  Zn86  1  0.69169953  0.18621289  0.19109693  1
  Zn  Zn87  1  0.69251510  0.18795141  0.66918232  1
  Zn  Zn88  1  0.69332345  0.68795331  0.19024839  1
  Zn  Zn89  1  0.67965781  0.68737793  0.68809932  1
  Zn  Zn90  1  0.30854178  0.31696820  0.31075552  1
  Zn  Zn91  1  0.33180386  0.31474545  0.81002589  1
  Zn  Zn92  1  0.30539033  0.91659149  0.34969809  1
  Zn  Zn93  1  0.31341826  0.80441033  0.81141153  1
  Zn  Zn94  1  0.80756551  0.30689218  0.30314598  1
  Zn  Zn95  1  0.81460451  0.31522124  0.81153847  1
  Zn  Zn96  1  0.80555083  0.79547411  0.30317389  1
  Zn  Zn97  1  0.81618480  0.81466066  0.81952057  1
  Zn  Zn98  1  0.18174484  0.44415502  0.44650985  1
  Zn  Zn99  1  0.21197846  0.39503653  0.91055814  1
  Zn  Zn100  1  0.12401800  1.00575993  0.36665394  1
  Zn  Zn101  1  0.19023244  0.94649370  0.93271777  1
  Zn  Zn102  1  0.68531806  0.43524534  0.43403260  1
  Zn  Zn103  1  0.67977497  0.42455927  0.93552999  1
  Zn  Zn104  1  0.68376111  0.93731920  0.43996820  1
  Zn  Zn105  1  0.69558378  0.94645785  0.94389162  1
  Zn  Zn106  1  0.31740295  0.07716269  0.06802033  1
  Zn  Zn107  1  0.31187753  0.05719695  0.55812406  1
  Zn  Zn108  1  0.31653265  0.54833608  0.06135384  1
  Zn  Zn109  1  0.31854054  0.57109647  0.56970065  1
  Zn  Zn110  1  0.85743503  0.03205019  0.09710233  1
  Zn  Zn111  1  0.81121702  0.07213510  0.55892092  1
  Zn  Zn112  1  0.80346884  0.55865262  0.06054927  1
  Zn  Zn113  1  0.81050357  0.55843520  0.56139717  1
  Zn  Zn114  1  0.43993437  0.43308824  0.17982141  1
  Zn  Zn115  1  0.43513742  0.43347515  0.68430497  1
  Zn  Zn116  1  0.43842250  0.93633508  0.19652371  1
  Zn  Zn117  1  0.44069095  0.93183141  0.68564542  1
  Zn  Zn118  1  0.93577745  0.43650766  0.18735192  1
  Zn  Zn119  1  0.92473731  0.43955043  0.68358974  1
  Zn  Zn120  1  0.92535161  0.90752675  0.19983529  1
  Zn  Zn121  1  0.93364316  0.93726871  0.68241510  1
  Zn  Zn122  1  0.04425712  0.05893503  0.16992746  1
  Zn  Zn123  1  0.06589988  0.06033479  0.81376834  1
  Zn  Zn124  1  0.06231747  0.57460694  0.32607624  1
  Zn  Zn125  1  0.04002903  0.60748831  0.83144574  1
  Zn  Zn126  1  0.55918133  0.05847911  0.30882128  1
  Zn  Zn127  1  0.56708410  0.06104380  0.80799932  1
  Zn  Zn128  1  0.56588962  0.56104879  0.31346372  1
  Zn  Zn129  1  0.54638202  0.55935314  0.84222088  1
  Zn  Zn130  1  0.43582970  0.17977149  0.42990566  1
  Zn  Zn131  1  0.44431962  0.18818072  0.93858329  1
  Zn  Zn132  1  0.39121916  0.72562437  0.41426631  1
  Zn  Zn133  1  0.42889794  0.69584857  0.94256026  1
  Zn  Zn134  1  0.94706274  0.18354662  0.43368146  1
  Zn  Zn135  1  0.96037274  0.13467504  0.94023612  1
  Zn  Zn136  1  0.92950546  0.67197860  0.43945288  1
  Zn  Zn137  1  0.94020871  0.69921793  0.93134634  1
  Zn  Zn138  1  0.04959024  0.28553444  0.01952853  1
  Zn  Zn139  1  0.06447418  0.32230478  0.57029914  1
  Zn  Zn140  1  0.06174487  0.80912856  0.07868254  1
  Zn  Zn141  1  0.06674810  0.80774142  0.55311911  1
  Zn  Zn142  1  0.55095377  0.29858232  0.04991877  1
  Zn  Zn143  1  0.57067520  0.31217573  0.56010766  1
  Zn  Zn144  1  0.55121653  0.82199215  0.07667352  1
  Zn  Zn145  1  0.55909734  0.80514790  0.56818931  1
  O  O146  1  0.12506530  0.12499026  0.11819695  1
  O  O147  1  0.12197610  0.11865036  0.62013754  1
  O  O148  1  0.12526069  0.61732843  0.11782510  1
  O  O149  1  0.10329265  0.62250389  0.64679611  1
  O  O150  1  0.62675681  0.13458135  0.10967746  1
  O  O151  1  0.61598469  0.11736212  0.61777345  1
  O  O152  1  0.62200077  0.61653446  0.10972873  1
  O  O153  1  0.61212851  0.62613104  0.61368569  1
  O  O154  1  0.38614739  0.37979285  0.38243364  1
  O  O155  1  0.32480184  0.38047815  0.89816052  1
  O  O156  1  0.35366543  0.83493278  0.40096008  1
  O  O157  1  0.37218765  0.88180142  0.89051150  1
  O  O158  1  0.82435605  0.32538022  0.41395556  1
  O  O159  1  0.87743566  0.39077464  0.87856042  1
  O  O160  1  0.84919228  0.88690392  0.35970403  1
  O  O161  1  0.87335271  0.88093728  0.88824749  1
  O  O162  1  0.23909993  0.00500251  0.35148700  1
  O  O163  1  0.26840590  0.00103534  0.86278508  1
  O  O164  1  0.26515027  0.48944193  0.36804129  1
  O  O165  1  0.26172369  0.51628249  0.84695837  1
  O  O166  1  0.74543645  0.02021127  0.38802351  1
  O  O167  1  0.73876642  -0.00398350  0.85278512  1
  O  O168  1  0.74030505  0.50214897  0.36123879  1
  O  O169  1  0.75092196  0.50771894  0.87393649  1
  O  O170  1  0.24138394  0.50181100  0.14028186  1
  O  O171  1  0.26887789  0.48431604  0.62251086  1
  O  O172  1  0.25570408  1.00443420  0.13605992  1
  O  O173  1  0.23711241  0.99920438  0.63042007  1
  O  O174  1  0.73913297  0.49853047  0.13588560  1
  O  O175  1  0.74961999  0.48921795  0.63646670  1
  O  O176  1  0.76310510  0.97733325  0.14279045  1
  O  O177  1  0.74680041  0.98873362  0.62405519  1
  O  O178  1  0.01246933  0.37683857  0.24972660  1
  O  O179  1  -0.00476159  0.38072725  0.75530730  1
  O  O180  1  -0.01903215  0.83870518  0.27129033  1
  O  O181  1  0.00808639  0.87994695  0.75381386  1
  O  O182  1  0.50731294  0.36960908  0.25407038  1
  O  O183  1  0.50433955  0.34927690  0.72942318  1
  O  O184  1  0.51201291  0.86248734  0.24892324  1
  O  O185  1  0.50537900  0.86924384  0.75662592  1
  O  O186  1  0.49036236  0.13554512  0.25789087  1
  O  O187  1  0.49372154  0.12913443  0.73225818  1
  O  O188  1  0.49323523  0.62511962  0.24743869  1
  O  O189  1  0.50844114  0.61374859  0.74236071  1
  O  O190  1  1.00454717  0.15112137  0.24123722  1
  O  O191  1  1.00557143  0.14572483  0.75210990  1
  O  O192  1  0.98053207  0.60418371  0.24464045  1
  O  O193  1  0.97610111  0.61516120  0.73746835  1
  O  O194  1  0.45457281  0.28559798  -0.00651357  1
  O  O195  1  0.37032338  0.25481798  0.49997315  1
  O  O196  1  0.37969427  0.76994242  0.01229656  1
  O  O197  1  0.38770409  0.74455570  0.52731312  1
  O  O198  1  0.87320724  0.25734199  0.00816875  1
  O  O199  1  0.89047026  0.25062180  0.51822112  1
  O  O200  1  0.87395030  0.76397281  -0.00893740  1
  O  O201  1  0.86066854  0.74326764  0.50960994  1
  O  O202  1  0.12903114  0.24904583  0.49786977  1
  O  O203  1  0.14484879  0.28694729  0.94273364  1
  O  O204  1  0.11333023  0.71436238  0.51019994  1
  O  O205  1  0.12148859  0.73801317  0.99598860  1
  O  O206  1  0.64317716  0.26189591  0.48056532  1
  O  O207  1  0.63238736  0.24116606  0.98653581  1
  O  O208  1  0.63761690  0.74107796  0.50531333  1
  O  O209  1  0.60982096  0.79137456  0.96408276  1
  O  O210  1  0.50654071  0.24699867  0.14425983  1
  O  O211  1  0.49638787  0.23831672  0.61760378  1
  O  O212  1  0.48213516  0.75365839  0.13659500  1
  O  O213  1  0.49882100  0.73797740  0.64322586  1
  O  O214  1  0.99484734  0.26594704  0.13037789  1
  O  O215  1  0.99318205  0.26164915  0.64107398  1
  O  O216  1  1.00617956  0.73544078  0.15053141  1
  O  O217  1  0.98126646  0.74015203  0.61914053  1
  O  O218  1  0.01022917  0.25292987  0.36165959  1
  O  O219  1  0.00332341  0.27860476  0.86065325  1
  O  O220  1  0.00267937  0.70633906  0.35837287  1
  O  O221  1  0.02917492  0.72394879  0.86394464  1
  O  O222  1  0.50831482  0.25866513  0.37342099  1
  O  O223  1  0.50629498  0.24122459  0.84872926  1
  O  O224  1  0.49152151  0.74107737  0.35464243  1
  O  O225  1  0.48955979  0.73676601  0.86029388  1
  O  O226  1  0.24166068  0.13826474  0.51024707  1
  O  O227  1  0.23765235  0.13385851  1.00682765  1
  O  O228  1  0.25346715  0.62707828  0.49739279  1
  O  O229  1  0.24509777  0.62181852  1.00506318  1
  O  O230  1  0.76690317  0.14953320  0.48115373  1
  O  O231  1  0.73576419  0.13566316  0.99851885  1
  O  O232  1  0.74083496  0.62703361  0.49682066  1
  O  O233  1  0.75112660  0.62586546  0.98548706  1
  O  O234  1  0.23077617  0.39990226  0.02424360  1
  O  O235  1  0.26083923  0.36861902  0.50508040  1
  O  O236  1  0.26495842  0.89093033  0.00498512  1
  O  O237  1  0.20495581  0.84649772  0.50133222  1
  O  O238  1  0.75926121  0.35841242  -0.01125915  1
  O  O239  1  0.73989968  0.38078213  0.51922032  1
  O  O240  1  0.74257203  0.86985086  0.01227958  1
  O  O241  1  0.75493148  0.86080054  0.50108488  1
  O  O242  1  0.13173326  0.50324108  0.25165384  1
  O  O243  1  0.22266746  0.54596490  0.78891145  1
  O  O244  1  0.12901422  1.02248972  0.24105703  1
  O  O245  1  0.13177093  0.99008007  0.74687871  1
  O  O246  1  0.62625842  0.48293785  0.24711831  1
  O  O247  1  0.63051159  0.49819101  0.76829698  1
  O  O248  1  0.62721896  0.98215767  0.25794157  1
  O  O249  1  0.63554362  1.00345391  0.73112365  1
  O  O250  1  0.36902479  0.00392307  0.25880953  1
  O  O251  1  0.37360524  0.00399414  0.75258468  1
  O  O252  1  0.37641007  0.50667371  0.25517557  1
  O  O253  1  0.41112070  0.48190389  0.78938447  1
  O  O254  1  0.86165201  -0.05288753  0.30134513  1
  O  O255  1  0.85617726  -0.00653639  0.74557309  1
  O  O256  1  0.85400314  0.49619759  0.24742308  1
  O  O257  1  0.85645504  0.50822043  0.75740657  1
  O  O258  1  0.13250481  0.36906605  0.36832782  1
  O  O259  1  0.11174281  0.41458228  0.85689219  1
  O  O260  1  0.10836887  0.89130484  0.33453845  1
  O  O261  1  0.12271192  0.86918250  0.87250265  1
  O  O262  1  0.61349502  0.36923645  0.36701840  1
  O  O263  1  0.62320670  0.34644274  0.86903595  1
  O  O264  1  0.63301587  0.86613585  0.36411369  1
  O  O265  1  0.61535358  0.84561977  0.91153417  1
  O  O266  1  0.37810698  0.12841520  0.15030351  1
  O  O267  1  0.38270556  0.13225171  0.62642235  1
  O  O268  1  0.38472389  0.61836869  0.12837524  1
  O  O269  1  0.39410915  0.63123760  0.63117268  1
  O  O270  1  0.88358710  0.14480165  0.11617251  1
  O  O271  1  0.87481155  0.14418015  0.63026066  1
  O  O272  1  0.86593197  0.61422245  0.14002607  1
  O  O273  1  0.86783164  0.63384483  0.63228394  1
  O  O274  1  0.24575849  0.27681387  0.12893627  1
  O  O275  1  0.26303157  0.25746141  0.61519502  1
  O  O276  1  0.27083949  0.74457152  0.13276242  1
  O  O277  1  0.26759167  0.73739361  0.63900353  1
  O  O278  1  0.76621465  0.24791874  0.11891715  1
  O  O279  1  0.76329031  0.25734798  0.60806795  1
  O  O280  1  0.74119403  0.75870108  0.11843102  1
  O  O281  1  0.75123532  0.75735687  0.61715316  1
  O  O282  1  0.23958024  0.25815487  0.38609650  1
  O  O283  1  0.25996250  0.22870903  0.84577026  1
  O  O284  1  0.21392972  0.81519873  0.43575136  1
  O  O285  1  0.23029812  0.74988552  0.87279875  1
  O  O286  1  0.73177644  0.23034295  0.36185881  1
  O  O287  1  0.74511060  0.24320907  0.87525613  1
  O  O288  1  0.75235430  0.73486020  0.38910891  1
  O  O289  1  0.74724557  0.73551281  0.87300921  1
  O  O290  1  0.04349325  0.17191521  -0.00061156  1
  O  O291  1  0.00749972  0.12009952  0.51108027  1
  O  O292  1  -0.00715773  0.61196686  -0.00274004  1
  O  O293  1  -0.01106158  0.61247549  0.51995712  1
  O  O294  1  0.51032350  0.11317595  -0.00054040  1
  O  O295  1  0.49005876  0.11003572  0.50586587  1
  O  O296  1  0.59083134  0.65780662  0.05619453  1
  O  O297  1  0.50752249  0.61426251  0.50546081  1
  O  O298  1  0.49578803  0.37994397  0.49463766  1
  O  O299  1  0.53430474  0.44853263  1.02832720  1
  O  O300  1  0.50258779  0.88338378  0.50569820  1
  O  O301  1  0.48768851  0.89634897  1.00945199  1
  O  O302  1  1.01306203  0.39554582  0.50325949  1
  O  O303  1  0.99493410  0.38716621  0.98090650  1
  O  O304  1  0.99708559  0.88707038  0.50229524  1
  O  O305  1  0.99359502  0.87144094  1.00921240  1
  O  O306  1  0.49401586  0.49244898  0.38203195  1
  O  O307  1  0.47124774  0.46909448  0.83799886  1
  O  O308  1  0.50323502  0.99681954  0.38985421  1
  O  O309  1  0.48963522  1.00094324  0.87304427  1
  O  O310  1  0.99499874  0.50937151  0.38993870  1
  O  O311  1  0.98618293  0.50337011  0.87696286  1
  O  O312  1  1.00921286  1.01047081  0.39627465  1
  O  O313  1  0.98680307  1.03215177  0.88772575  1
  O  O314  1  -0.04632235  0.00247352  0.15175603  1
  O  O315  1  0.01131753  0.00161739  0.62322830  1
  O  O316  1  0.00527438  0.50090796  0.11519450  1
  O  O317  1  -0.00502291  0.50632352  0.62256432  1
  O  O318  1  0.49834782  0.00511531  0.12152674  1
  O  O319  1  0.50736720  0.00446792  0.62069585  1
  O  O320  1  0.51277952  0.49006530  0.09326816  1
  O  O321  1  0.49276760  0.50839676  0.61754522  1
  O  O322  1  0.24479673  0.38984744  0.24375002  1
  O  O323  1  0.26841873  0.37087092  0.73251464  1
  O  O324  1  0.24186299  0.89147445  0.24402918  1
  O  O325  1  0.24601276  0.88596122  0.75357816  1
  O  O326  1  0.73355254  0.37945559  0.24998428  1
  O  O327  1  0.74539190  0.38364644  0.74657353  1
  O  O328  1  0.73149238  0.85723803  0.24074045  1
  O  O329  1  0.74951600  0.87301368  0.73543286  1
  O  O330  1  0.25717996  0.12071221  0.24536461  1
  O  O331  1  0.26627592  0.11199953  0.73388947  1
  O  O332  1  0.27047937  0.61412790  0.24622344  1
  O  O333  1  0.25800567  0.61156445  0.75499478  1
  O  O334  1  0.74554254  0.11687689  0.26473604  1
  O  O335  1  0.74938863  0.11494368  0.73883846  1
  O  O336  1  0.74829658  0.60883926  0.25488597  1
  O  O337  1  0.74780314  0.61847670  0.75969298  1
  O  O338  1  0.36828512  0.13724853  0.35397596  1
  O  O339  1  0.38608734  0.12021040  0.86065061  1
  O  O340  1  0.37799627  0.61615555  0.37116981  1
  O  O341  1  0.44667900  0.58245052  0.95127386  1
  O  O342  1  0.87264917  0.12925365  0.36487966  1
  O  O343  1  0.86940327  0.11523090  0.88577207  1
  O  O344  1  0.85636305  0.61559414  0.36388491  1
  O  O345  1  0.86773224  0.61830376  0.86543076  1
  O  O346  1  0.13209480  0.39542480  0.14187728  1
  O  O347  1  0.14698282  0.37508982  0.62738307  1
  O  O348  1  0.10024044  0.88270280  0.15867027  1
  O  O349  1  0.11712294  0.87988405  0.63797428  1
  O  O350  1  0.61776124  0.36011968  0.13353369  1
  O  O351  1  0.64171967  0.35879990  0.63751739  1
  O  O352  1  0.63314258  0.87713041  0.13322264  1
  O  O353  1  0.63962748  0.87886577  0.61851839  1
  O  O354  1  0.11812971  0.26278320  0.25511821  1
  O  O355  1  0.12153354  0.24895704  0.76218682  1
  O  O356  1  0.12124940  0.74865750  0.25460242  1
  O  O357  1  0.12845126  0.76854785  0.75763464  1
  O  O358  1  0.61578833  0.25769082  0.26036884  1
  O  O359  1  0.62145040  0.23488719  0.75316631  1
  O  O360  1  0.61026267  0.74624819  0.24516972  1
  O  O361  1  0.60972159  0.74842357  0.75221043  1
  O  O362  1  0.38899004  0.25972131  0.25230193  1
  O  O363  1  0.38964155  0.24137415  0.73656166  1
  O  O364  1  0.38415245  0.73069848  0.23827710  1
  O  O365  1  0.39039968  0.75438062  0.74191988  1
  O  O366  1  0.88803412  0.26639635  0.23356007  1
  O  O367  1  0.88903434  0.25505194  0.74674256  1
  O  O368  1  0.88000901  0.72190388  0.25415185  1
  O  O369  1  0.86274289  0.74164214  0.73615276  1
  O  O370  1  0.38471638  0.49255669  0.49289649  1
  O  O371  1  0.39283041  0.52660296  0.97328002  1
  O  O372  1  0.38714380  0.99009948  0.50534341  1
  O  O373  1  0.38532425  1.00217983  0.99614475  1
  O  O374  1  0.88352937  0.49420768  0.50424080  1
  O  O375  1  0.87736146  0.49472945  0.99301510  1
  O  O376  1  0.89013114  1.00233440  0.50993523  1
  O  O377  1  0.86325053  0.97782963  0.99778780  1
  O  O378  1  0.12453928  0.01282039  -0.00134115  1
  O  O379  1  0.11597326  0.00995990  0.50964907  1
  O  O380  1  0.11540246  0.51483907  0.01086146  1
  O  O381  1  0.11804620  0.52601461  0.49580446  1
  O  O382  1  0.61464827  0.01052805  -0.00098453  1
  O  O383  1  0.61198112  -0.00530498  0.51152577  1
  O  O384  1  0.59105930  0.48890656  -0.01798160  1
  O  O385  1  0.61277229  0.50419056  0.49748551  1
  O  O386  1  0.35990119  0.39858985  0.10722079  1
  O  O387  1  0.37825384  0.36264757  0.61075120  1
  O  O388  1  0.37186166  0.87207848  0.12329371  1
  O  O389  1  0.37326335  0.86175440  0.62510459  1
  O  O390  1  0.87944361  0.37453232  0.10610161  1
  O  O391  1  0.85631758  0.36237973  0.63465756  1
  O  O392  1  0.86064196  0.86328600  0.11078582  1
  O  O393  1  0.86434565  0.85996914  0.62118379  1
  O  O394  1  0.12318547  0.13937599  0.39505529  1
  O  O395  1  0.13730813  0.12726551  0.88148340  1
  O  O396  1  0.15062369  0.62912567  0.37230263  1
  O  O397  1  0.13466726  0.61795283  0.89378593  1
  O  O398  1  0.61089347  0.13677452  0.38000899  1
  O  O399  1  0.61876792  0.13536492  0.88335809  1
  O  O400  1  0.63261518  0.62035067  0.38770925  1
  O  O401  1  0.63039097  0.62347879  0.88176510  1
