# generated using pymatgen
data_V73Zn73O256
_symmetry_space_group_name_H-M   'P 1'
_cell_length_a   16.82743313
_cell_length_b   16.85548273
_cell_length_c   16.87286021
_cell_angle_alpha   90.03337482
_cell_angle_beta   90.27559365
_cell_angle_gamma   90.27799340
_symmetry_Int_Tables_number   1
_chemical_formula_structural   V73Zn73O256
_chemical_formula_sum   'V73 Zn73 O256'
_cell_volume   4785.61284242
_cell_formula_units_Z   1
loop_
 _symmetry_equiv_pos_site_id
 _symmetry_equiv_pos_as_xyz
  1  'x, y, z'
loop_
 _atom_site_type_symbol
 _atom_site_label
 _atom_site_symmetry_multiplicity
 _atom_site_fract_x
 _atom_site_fract_y
 _atom_site_fract_z
 _atom_site_occupancy
  V  V0  1  0.49800186  0.23589114  0.74768161  1
  V  V1  1  0.12294060  0.11369034  -0.00261168  1
  V  V2  1  0.50715342  0.37315785  0.38627384  1
  V  V3  1  0.49176239  0.62503819  0.13766615  1
  V  V4  1  0.37102306  0.38827944  0.50195185  1
  V  V5  1  0.87782859  0.62398950  0.23922295  1
  V  V6  1  0.37953593  0.86474812  -0.00780800  1
  V  V7  1  0.74837277  0.61659744  0.87437618  1
  V  V8  1  0.49556408  0.49377594  -0.00612066  1
  V  V9  1  0.37789430  0.62206582  0.75109996  1
  V  V10  1  0.24416146  0.00224842  0.24072339  1
  V  V11  1  0.24537069  0.63686766  0.88474233  1
  V  V12  1  0.00378614  0.64780377  0.62342905  1
  V  V13  1  0.38572720  0.87135113  0.49815327  1
  V  V14  1  0.12144939  0.86906260  0.26558496  1
  V  V15  1  -0.00360240  0.37533211  0.37860014  1
  V  V16  1  0.24209439  0.37635033  0.13900035  1
  V  V17  1  0.61660450  0.38628979  0.75466034  1
  V  V18  1  0.24910320  0.88377073  0.63731576  1
  V  V19  1  0.25248609  0.62533431  0.36042102  1
  V  V20  1  0.50652141  0.62606222  0.61444201  1
  V  V21  1  0.62135800  0.49918065  0.12510447  1
  V  V22  1  0.00334840  0.10952730  0.11808694  1
  V  V23  1  0.00306826  0.74478638  0.25328095  1
  V  V24  1  0.24595779  0.38160551  0.63025961  1
  V  V25  1  0.62085430  0.50395633  0.61195421  1
  V  V26  1  0.62298529  0.63901527  0.00276629  1
  V  V27  1  0.86715362  0.89041704  -0.00023966  1
  V  V28  1  0.37649467  0.24052740  0.60839087  1
  V  V29  1  0.85813666  0.75818499  0.11924325  1
  V  V30  1  -0.00054102  0.39248197  0.87845220  1
  V  V31  1  0.75855593  0.38808736  0.62687028  1
  V  V32  1  0.61937793  0.13355739  0.51213928  1
  V  V33  1  0.74964826  0.36717483  0.12214936  1
  V  V34  1  0.38495277  0.75085927  0.63160247  1
  V  V35  1  0.37255748  0.36983113  0.00506921  1
  V  V36  1  0.61795323  0.36461786  0.25472723  1
  V  V37  1  0.12675101  0.25371445  0.38148902  1
  V  V38  1  0.49912962  0.00015596  -0.00229393  1
  V  V39  1  0.24881461  0.24841557  0.00334037  1
  V  V40  1  0.00777416  0.25737229  0.24065094  1
  V  V41  1  0.37395412  0.50235901  0.35656700  1
  V  V42  1  0.87715328  0.12347093  0.24914903  1
  V  V43  1  0.12765097  0.24737027  0.86812751  1
  V  V44  1  -0.00264274  0.11330819  0.62470705  1
  V  V45  1  0.75120575  0.50470444  0.24957541  1
  V  V46  1  0.75115254  -0.01235109  0.24738772  1
  V  V47  1  0.74102575  0.13160918  0.37147399  1
  V  V48  1  0.38067207  -0.00465304  0.36720188  1
  V  V49  1  0.62649847  -0.00693803  0.12630086  1
  V  V50  1  0.36243383  0.49036338  0.86957315  1
  V  V51  1  0.63034507  0.13025050  0.00368933  1
  V  V52  1  0.87153095  0.38041865  -0.00656822  1
  V  V53  1  -0.02043285  0.25016862  0.75465780  1
  V  V54  1  0.36911787  0.01134273  0.87274493  1
  V  V55  1  0.48501098  0.13514368  0.13686129  1
  V  V56  1  0.61490624  0.75983606  0.85627137  1
  V  V57  1  0.73879637  0.87512326  0.61353310  1
  V  V58  1  0.12665695  0.62703479  0.49297468  1
  V  V59  1  0.87649785  0.50216347  0.37925504  1
  V  V60  1  0.87036286  0.24970696  0.61091548  1
  V  V61  1  0.50644574  0.00437058  0.50862717  1
  V  V62  1  0.88114486  0.63359926  0.74925810  1
  V  V63  1  0.23985195  0.86640671  0.11729242  1
  V  V64  1  0.88597801  -0.00904431  0.38395728  1
  V  V65  1  0.24209780  0.11780061  0.38324807  1
  V  V66  1  0.12129915  0.51208815  0.13277360  1
  V  V67  1  0.62444836  0.25245953  0.87721181  1
  V  V68  1  0.60855719  0.87104681  0.26366210  1
  V  V69  1  0.61990579  0.72580091  0.38071118  1
  V  V70  1  0.76098052  0.72942479  0.49700611  1
  V  V71  1  0.37842490  0.74793488  0.14061449  1
  V  V72  1  0.75241152  0.11851696  0.85862851  1
  Zn  Zn73  1  0.00927836  0.54269176  0.00889608  1
  Zn  Zn74  1  0.11047665  0.10770888  0.50224823  1
  Zn  Zn75  1  0.24939794  0.75154141  0.49777592  1
  Zn  Zn76  1  0.35305295  0.11994469  0.74190194  1
  Zn  Zn77  1  -0.00095734  0.88392507  0.89542616  1
  Zn  Zn78  1  0.13174552  0.38795913  0.75070213  1
  Zn  Zn79  1  0.74306313  0.26574817  0.48794265  1
  Zn  Zn80  1  0.86966904  0.24702482  0.11734612  1
  Zn  Zn81  1  0.00764850  0.49266940  0.51592333  1
  Zn  Zn82  1  0.18624898  0.18807939  0.18457099  1
  Zn  Zn83  1  0.18430115  0.19588468  0.67633438  1
  Zn  Zn84  1  0.18848403  0.68972974  0.18310272  1
  Zn  Zn85  1  0.20029403  0.67738292  0.67684197  1
  Zn  Zn86  1  0.67984287  0.18354012  0.18835377  1
  Zn  Zn87  1  0.68918078  0.19415214  0.68844893  1
  Zn  Zn88  1  0.68175846  0.68907937  0.19433510  1
  Zn  Zn89  1  0.69586998  0.69331508  0.68730088  1
  Zn  Zn90  1  0.32112779  0.30105323  0.31487322  1
  Zn  Zn91  1  0.31376164  0.30748469  0.80876560  1
  Zn  Zn92  1  0.30936985  0.81256243  0.31269713  1
  Zn  Zn93  1  0.32317828  0.81034477  0.81192190  1
  Zn  Zn94  1  0.81507292  0.31435643  0.30523186  1
  Zn  Zn95  1  0.80361508  0.31891115  0.81273040  1
  Zn  Zn96  1  0.81102037  0.80503056  0.32198724  1
  Zn  Zn97  1  0.81047387  0.79780806  0.83482862  1
  Zn  Zn98  1  0.18922692  0.44255045  0.43893533  1
  Zn  Zn99  1  0.18375181  0.44150398  0.94671992  1
  Zn  Zn100  1  0.19956384  0.92854994  0.43946481  1
  Zn  Zn101  1  0.19044262  0.92835522  0.93439121  1
  Zn  Zn102  1  0.69423402  0.44670275  0.43957181  1
  Zn  Zn103  1  0.68529353  0.43828785  0.93715378  1
  Zn  Zn104  1  0.69337557  0.94127054  0.43705541  1
  Zn  Zn105  1  0.68845314  0.93602671  0.93621100  1
  Zn  Zn106  1  0.30996540  0.05998091  0.05822906  1
  Zn  Zn107  1  0.31366708  0.05721267  0.55721108  1
  Zn  Zn108  1  0.30474711  0.56132746  0.06482647  1
  Zn  Zn109  1  0.31190754  0.56356247  0.56270418  1
  Zn  Zn110  1  0.81158605  0.06154450  0.06062313  1
  Zn  Zn111  1  0.80563316  0.06319625  0.55797379  1
  Zn  Zn112  1  0.81589849  0.56074350  0.05426077  1
  Zn  Zn113  1  0.83477909  0.56165914  0.57838845  1
  Zn  Zn114  1  0.43607829  0.43033417  0.18481679  1
  Zn  Zn115  1  0.44113198  0.43672045  0.68703680  1
  Zn  Zn116  1  0.43568680  0.93882252  0.18230361  1
  Zn  Zn117  1  0.43576996  0.94659961  0.68446178  1
  Zn  Zn118  1  0.94020142  0.43919063  0.18145598  1
  Zn  Zn119  1  0.96808414  0.46592656  0.70224119  1
  Zn  Zn120  1  0.93901882  0.92904667  0.18552212  1
  Zn  Zn121  1  0.88692057  0.95929454  0.67136778  1
  Zn  Zn122  1  0.06344049  0.05887634  0.30382802  1
  Zn  Zn123  1  0.18410596  0.06140080  0.81264410  1
  Zn  Zn124  1  0.06620357  0.55949921  0.30836116  1
  Zn  Zn125  1  0.07681666  0.56623745  0.79700552  1
  Zn  Zn126  1  0.56223386  0.06158121  0.30983466  1
  Zn  Zn127  1  0.56159831  0.06425651  0.81827355  1
  Zn  Zn128  1  0.55891149  0.55380047  0.31657862  1
  Zn  Zn129  1  0.55804504  0.56779045  0.81397063  1
  Zn  Zn130  1  0.43722884  0.18853457  0.41747083  1
  Zn  Zn131  1  0.44259734  0.18865472  0.94000879  1
  Zn  Zn132  1  0.43852148  0.68397422  0.43356404  1
  Zn  Zn133  1  0.43960991  0.68126248  0.93611207  1
  Zn  Zn134  1  0.93669724  0.18409453  0.43568404  1
  Zn  Zn135  1  0.93214896  0.19209576  0.94016981  1
  Zn  Zn136  1  0.93921838  0.68841698  0.43216809  1
  Zn  Zn137  1  0.92328085  0.69012973  0.92597075  1
  Zn  Zn138  1  0.06652735  0.31798681  0.05677369  1
  Zn  Zn139  1  0.06012342  0.30703071  0.55944582  1
  Zn  Zn140  1  0.02587941  0.75686659  0.04119394  1
  Zn  Zn141  1  0.07299291  0.81817399  0.55324611  1
  Zn  Zn142  1  0.55706027  0.31012608  0.06511427  1
  Zn  Zn143  1  0.56061908  0.31434482  0.56595695  1
  Zn  Zn144  1  0.55794726  0.81569870  0.06963004  1
  Zn  Zn145  1  0.57086121  0.81045047  0.55664966  1
  O  O146  1  0.11241987  0.12694435  0.11298759  1
  O  O147  1  0.10339231  0.13059494  0.62223398  1
  O  O148  1  0.13558714  0.61273014  0.12209136  1
  O  O149  1  0.11363439  0.63277802  0.61359633  1
  O  O150  1  0.61434447  0.11644667  0.12112020  1
  O  O151  1  0.63032887  0.12509258  0.61052802  1
  O  O152  1  0.61511584  0.61758101  0.12102906  1
  O  O153  1  0.61735703  0.61386534  0.63535382  1
  O  O154  1  0.38237053  0.38287709  0.38464275  1
  O  O155  1  0.36681777  0.38501449  0.88329870  1
  O  O156  1  0.36575341  0.88632897  0.38490249  1
  O  O157  1  0.37413832  0.88387294  0.88873674  1
  O  O158  1  0.88550152  0.38523958  0.36480308  1
  O  O159  1  0.87775427  0.37900077  0.88538211  1
  O  O160  1  0.87144165  0.89236255  0.36531580  1
  O  O161  1  0.88007589  0.87064804  0.89037879  1
  O  O162  1  0.24938608  0.00227471  0.36201971  1
  O  O163  1  0.26465942  -0.00000770  0.87898260  1
  O  O164  1  0.26400974  0.50785176  0.37727297  1
  O  O165  1  0.25969054  0.50362362  0.87716868  1
  O  O166  1  0.75866108  0.01372710  0.36442883  1
  O  O167  1  0.73671989  0.01907768  0.87555495  1
  O  O168  1  0.76579674  0.48970324  0.36094168  1
  O  O169  1  0.72199317  0.51832908  0.86651419  1
  O  O170  1  0.24296652  0.48377491  0.12444119  1
  O  O171  1  0.25599721  0.48194290  0.62201402  1
  O  O172  1  0.25681151  0.98517658  0.13615202  1
  O  O173  1  0.26057783  0.98494855  0.62570361  1
  O  O174  1  0.73906579  0.49014918  0.12960479  1
  O  O175  1  0.74239402  0.49459670  0.62707560  1
  O  O176  1  0.73724455  1.01007758  0.13638204  1
  O  O177  1  0.77905795  0.97829594  0.63018593  1
  O  O178  1  -0.00167953  0.36057039  0.25532503  1
  O  O179  1  -0.01285168  0.36801257  0.76982873  1
  O  O180  1  0.01650334  0.87037891  0.24831289  1
  O  O181  1  0.05446611  0.93463049  0.80799338  1
  O  O182  1  0.51262448  0.37835237  0.25653059  1
  O  O183  1  0.51188216  0.36529264  0.74642058  1
  O  O184  1  0.50922647  0.87908262  0.25020009  1
  O  O185  1  0.53918619  0.91284211  0.74562832  1
  O  O186  1  0.49973595  0.11793741  0.23583085  1
  O  O187  1  0.50456226  0.13438748  0.74433743  1
  O  O188  1  0.50019207  0.61560026  0.23625824  1
  O  O189  1  0.48650650  0.61674548  0.73893799  1
  O  O190  1  0.99605122  0.13097745  0.23514928  1
  O  O191  1  0.99538245  0.15016499  0.73293392  1
  O  O192  1  0.99520294  0.63597293  0.25038195  1
  O  O193  1  1.00483487  0.63806561  0.72877469  1
  O  O194  1  0.36173969  0.25849263  -0.01346948  1
  O  O195  1  0.38579089  0.25650772  0.50630507  1
  O  O196  1  0.38139284  0.76297011  -0.00047009  1
  O  O197  1  0.38543293  0.75973986  0.50716634  1
  O  O198  1  0.87757214  0.27151874  0.00467858  1
  O  O199  1  0.87244238  0.25532779  0.50819605  1
  O  O200  1  0.86545457  0.74887381  0.01785684  1
  O  O201  1  0.86053973  0.75039802  0.48597194  1
  O  O202  1  0.11601963  0.23769904  0.48225838  1
  O  O203  1  0.12931498  0.24578565  0.98754775  1
  O  O204  1  0.12938233  0.73591055  0.49252707  1
  O  O205  1  0.13012069  0.77171466  0.97190224  1
  O  O206  1  0.62409179  0.23900523  0.50279866  1
  O  O207  1  0.61309988  0.24412882  0.98852082  1
  O  O208  1  0.63332723  0.74433260  0.48643046  1
  O  O209  1  0.62084454  0.73875381  1.01103647  1
  O  O210  1  0.49796611  0.23605576  0.12600306  1
  O  O211  1  0.48713794  0.25496218  0.63568638  1
  O  O212  1  0.48692517  0.74068868  0.12360614  1
  O  O213  1  0.50041634  0.73684676  0.62031358  1
  O  O214  1  1.00369543  0.24977528  0.13511372  1
  O  O215  1  0.98107379  0.26596253  0.63569668  1
  O  O216  1  0.97560352  0.75438935  0.14514440  1
  O  O217  1  0.99769636  0.74774495  0.60708890  1
  O  O218  1  0.00659246  0.25317479  0.36518852  1
  O  O219  1  0.00328200  0.25097175  0.86475801  1
  O  O220  1  -0.00854407  0.75469674  0.35353391  1
  O  O221  1  0.05990827  0.78184994  0.77243247  1
  O  O222  1  0.51225101  0.27432349  0.37975962  1
  O  O223  1  0.50869632  0.24501671  0.85964538  1
  O  O224  1  0.51865476  0.74179579  0.37825366  1
  O  O225  1  0.51485034  0.74389020  0.87859547  1
  O  O226  1  0.23188437  0.10368786  0.48637921  1
  O  O227  1  0.23261118  0.13278199  1.00892006  1
  O  O228  1  0.23906685  0.62546563  0.49954814  1
  O  O229  1  0.25303928  0.62387944  0.98480133  1
  O  O230  1  0.73529284  0.12417382  0.48570350  1
  O  O231  1  0.73284480  0.12719572  1.00526284  1
  O  O232  1  0.76160014  0.62978253  0.51105120  1
  O  O233  1  0.72355386  0.61319742  1.00374086  1
  O  O234  1  0.25368861  0.36590404  0.00764999  1
  O  O235  1  0.26624472  0.37391122  0.50233969  1
  O  O236  1  0.26577710  0.88192294  0.01204546  1
  O  O237  1  0.26881774  0.87191462  0.51132331  1
  O  O238  1  0.76109486  0.38553703  0.00685980  1
  O  O239  1  0.73944864  0.37634346  0.51920753  1
  O  O240  1  0.76524333  0.87892536  -0.00106330  1
  O  O241  1  0.75171944  0.87455989  0.50986448  1
  O  O242  1  0.12546038  0.49695851  0.23542907  1
  O  O243  1  0.08300554  0.48425365  0.72243832  1
  O  O244  1  0.13487577  0.98222475  0.24872608  1
  O  O245  1  0.13203089  0.95405473  0.82358401  1
  O  O246  1  0.63084461  0.49521750  0.23917925  1
  O  O247  1  0.61602356  0.48899496  0.74803965  1
  O  O248  1  0.63098728  0.99107022  0.24570729  1
  O  O249  1  0.59301527  0.96712979  0.75194076  1
  O  O250  1  0.35978001  -0.01207181  0.26043335  1
  O  O251  1  0.38647970  0.00587016  0.76774447  1
  O  O252  1  0.37183286  0.49375757  0.25758441  1
  O  O253  1  0.38058626  0.49951352  0.76541974  1
  O  O254  1  0.86895886  0.00962701  0.24730115  1
  O  O255  1  0.88199830  0.00602885  0.78864392  1
  O  O256  1  0.86872934  0.50522218  0.24756057  1
  O  O257  1  0.89504079  0.53595339  0.76792894  1
  O  O258  1  0.12329752  0.35877709  0.37792304  1
  O  O259  1  0.11163905  0.36691791  0.87722309  1
  O  O260  1  0.13537016  0.86547580  0.36370885  1
  O  O261  1  0.12326434  0.82880069  0.91983296  1
  O  O262  1  0.61720197  0.39255550  0.36517382  1
  O  O263  1  0.62912715  0.36871415  0.86184076  1
  O  O264  1  0.62210869  0.88420754  0.36390640  1
  O  O265  1  0.62951345  0.85846134  0.87798758  1
  O  O266  1  0.38538922  0.11878608  0.12044652  1
  O  O267  1  0.37092494  0.13706686  0.61891907  1
  O  O268  1  0.37681007  0.63890674  0.11849508  1
  O  O269  1  0.38640802  0.62903093  0.62860104  1
  O  O270  1  0.88617223  0.12822974  0.12811517  1
  O  O271  1  0.87800966  0.14376391  0.62071417  1
  O  O272  1  0.86958294  0.63140491  0.13316987  1
  O  O273  1  0.87711373  0.65272314  0.64659373  1
  O  O274  1  0.24334974  0.25779106  0.11234200  1
  O  O275  1  0.27149347  0.26109816  0.62488265  1
  O  O276  1  0.26338701  0.75881999  0.12602973  1
  O  O277  1  0.27108950  0.75393336  0.62027096  1
  O  O278  1  0.74541864  0.26291393  0.13026688  1
  O  O279  1  0.76102034  0.25926876  0.62164744  1
  O  O280  1  0.75891254  0.74983336  0.13728095  1
  O  O281  1  0.74142915  0.75843736  0.60414309  1
  O  O282  1  0.23525329  0.22932152  0.36853924  1
  O  O283  1  0.23306694  0.25748033  0.88037039  1
  O  O284  1  0.26668876  0.73000668  0.38078764  1
  O  O285  1  0.26222978  0.73642541  0.87164346  1
  O  O286  1  0.76031794  0.23671842  0.37418818  1
  O  O287  1  0.73052676  0.24301572  0.86611904  1
  O  O288  1  0.73691953  0.74843057  0.38718883  1
  O  O289  1  0.72664093  0.73027622  0.87932417  1
  O  O290  1  0.00702876  0.13038765  0.00979849  1
  O  O291  1  -0.00704229  0.12565207  0.51745072  1
  O  O292  1  0.00850665  0.65518406  -0.01240474  1
  O  O293  1  0.01217796  0.62808410  0.50011283  1
  O  O294  1  0.50808593  0.11837256  0.00928233  1
  O  O295  1  0.51067559  0.11937903  0.48505530  1
  O  O296  1  0.50747998  0.61380735  0.01115908  1
  O  O297  1  0.49699884  0.62006198  0.51591766  1
  O  O298  1  0.49402595  0.37879561  0.49259299  1
  O  O299  1  0.48680735  0.38254103  1.00749037  1
  O  O300  1  0.49731518  0.89044862  0.50264584  1
  O  O301  1  0.48712164  0.88608392  1.00956148  1
  O  O302  1  1.00453164  0.37750058  0.48457482  1
  O  O303  1  0.99155644  0.36991583  0.98469404  1
  O  O304  1  1.04446726  0.92724955  0.50575789  1
  O  O305  1  0.98189999  0.85897984  1.00353161  1
  O  O306  1  0.48310589  0.49133987  0.37293629  1
  O  O307  1  0.48835131  0.50511406  0.88906327  1
  O  O308  1  0.48278436  1.00493204  0.37383394  1
  O  O309  1  0.49188121  1.00541919  0.89106519  1
  O  O310  1  0.99155926  0.48981345  0.36781710  1
  O  O311  1  1.00936533  0.49193244  0.88123774  1
  O  O312  1  0.98533957  1.00828681  0.36675836  1
  O  O313  1  0.94297005  1.01846672  0.82939153  1
  O  O314  1  0.00024421  0.01152926  0.12797802  1
  O  O315  1  -0.01896841  0.01512089  0.64228261  1
  O  O316  1  0.01298166  0.50353019  0.12553604  1
  O  O317  1  -0.04354836  0.53359884  0.60878500  1
  O  O318  1  0.50612026  0.00725380  0.11737182  1
  O  O319  1  0.49378570  0.01212158  0.60670423  1
  O  O320  1  0.50246007  0.50406040  0.11847966  1
  O  O321  1  0.51190363  0.50808295  0.62528976  1
  O  O322  1  0.26194882  0.35769184  0.23655014  1
  O  O323  1  0.24982678  0.37190100  0.73679461  1
  O  O324  1  0.23844491  0.87567099  0.23984220  1
  O  O325  1  0.26558311  0.87197174  0.73722837  1
  O  O326  1  0.74012101  0.38337538  0.24252246  1
  O  O327  1  0.73047158  0.36895722  0.73499930  1
  O  O328  1  0.74372439  0.88608594  0.25481122  1
  O  O329  1  0.77967361  0.84964767  0.72818607  1
  O  O330  1  0.23928393  0.10667547  0.25242204  1
  O  O331  1  0.24024680  0.12897526  0.74692262  1
  O  O332  1  0.24916411  0.62806673  0.26175682  1
  O  O333  1  0.26937897  0.62378081  0.75121011  1
  O  O334  1  0.75699556  0.12185870  0.25604207  1
  O  O335  1  0.74569199  0.12458262  0.75748256  1
  O  O336  1  0.75636707  0.61079805  0.24438107  1
  O  O337  1  0.76909093  0.63548588  0.76394727  1
  O  O338  1  0.35286386  0.10267282  0.38555975  1
  O  O339  1  0.37493709  0.11391079  0.87916139  1
  O  O340  1  0.36900328  0.60999348  0.37722418  1
  O  O341  1  0.36942536  0.61208977  0.87018661  1
  O  O342  1  0.86848358  0.11959170  0.36341123  1
  O  O343  1  0.84930285  0.13714798  0.88601624  1
  O  O344  1  0.88343899  0.60783469  0.35824681  1
  O  O345  1  0.84066398  0.60735149  0.91423345  1
  O  O346  1  0.13748265  0.37386375  0.12920432  1
  O  O347  1  0.14485354  0.35915499  0.61712087  1
  O  O348  1  0.14167943  0.86443122  0.11830849  1
  O  O349  1  0.14998620  0.86345466  0.62603218  1
  O  O350  1  0.62586413  0.38019651  0.13532766  1
  O  O351  1  0.62553242  0.38982140  0.63243181  1
  O  O352  1  0.61997193  0.88664437  0.13771022  1
  O  O353  1  0.63850535  0.88098396  0.62247501  1
  O  O354  1  0.11180173  0.23938688  0.26050995  1
  O  O355  1  0.11437697  0.25951720  0.76112678  1
  O  O356  1  0.11377658  0.75741686  0.24240971  1
  O  O357  1  0.13172944  0.77010309  0.76196109  1
  O  O358  1  0.62975636  0.26617883  0.25410031  1
  O  O359  1  0.61212016  0.25689932  0.75108396  1
  O  O360  1  0.62994601  0.76360497  0.26544770  1
  O  O361  1  0.62179992  0.74724347  0.75588777  1
  O  O362  1  0.39668348  0.22123517  0.31274822  1
  O  O363  1  0.38701528  0.24298111  0.74687605  1
  O  O364  1  0.37756474  0.75459589  0.23921580  1
  O  O365  1  0.38474668  0.74133636  0.73867022  1
  O  O366  1  0.88773897  0.23868215  0.24675696  1
  O  O367  1  0.87676191  0.25464657  0.74627958  1
  O  O368  1  0.87613921  0.73971938  0.24827431  1
  O  O369  1  0.90146064  0.71720462  0.81582534  1
  O  O370  1  0.37766499  0.48956819  0.49820990  1
  O  O371  1  0.37691440  0.49126537  0.99197179  1
  O  O372  1  0.38672424  0.99243652  0.48965563  1
  O  O373  1  0.38095502  0.99372163  0.99297168  1
  O  O374  1  0.87274218  0.50403156  0.47881397  1
  O  O375  1  0.89193197  0.48422799  1.01321604  1
  O  O376  1  0.87229829  1.00611348  0.48278745  1
  O  O377  1  0.88030305  0.99122644  1.00507199  1
  O  O378  1  0.12596183  0.01494598  -0.01176329  1
  O  O379  1  0.10750753  -0.02386919  0.49814162  1
  O  O380  1  0.11742235  0.49250200  0.01917716  1
  O  O381  1  0.12124902  0.51539857  0.49656041  1
  O  O382  1  0.61793437  0.00567474  0.00857243  1
  O  O383  1  0.61225376  0.01202997  0.49055944  1
  O  O384  1  0.61312289  0.49550239  0.01229539  1
  O  O385  1  0.62663935  0.50409340  0.51322077  1
  O  O386  1  0.36223011  0.37721162  0.11231510  1
  O  O387  1  0.37344994  0.37089918  0.61363215  1
  O  O388  1  0.37232276  0.86179964  0.11792813  1
  O  O389  1  0.38127320  0.86759275  0.61955323  1
  O  O390  1  0.86414995  0.37240891  0.12159193  1
  O  O391  1  0.85967665  0.37513440  0.63312038  1
  O  O392  1  0.86914963  0.86761774  0.11826921  1
  O  O393  1  0.85016678  0.84752768  0.67855814  1
  O  O394  1  0.12878616  0.12367997  0.37559799  1
  O  O395  1  0.11966901  0.13776382  0.88508737  1
  O  O396  1  0.14082425  0.61867714  0.38027324  1
  O  O397  1  0.14599353  0.62402629  0.86100158  1
  O  O398  1  0.63877081  0.12639106  0.36829292  1
  O  O399  1  0.62994277  0.13236983  0.88352972  1
  O  O400  1  0.62957352  0.62581446  0.36843697  1
  O  O401  1  0.62046541  0.63129750  0.89163379  1
