# generated using pymatgen
data_V73Zn73O256
_symmetry_space_group_name_H-M   'P 1'
_cell_length_a   16.84426162
_cell_length_b   16.87050489
_cell_length_c   16.86531793
_cell_angle_alpha   89.81180676
_cell_angle_beta   89.86082435
_cell_angle_gamma   89.91715305
_symmetry_Int_Tables_number   1
_chemical_formula_structural   V73Zn73O256
_chemical_formula_sum   'V73 Zn73 O256'
_cell_volume   4792.59265523
_cell_formula_units_Z   1
loop_
 _symmetry_equiv_pos_site_id
 _symmetry_equiv_pos_as_xyz
  1  'x, y, z'
loop_
 _atom_site_type_symbol
 _atom_site_label
 _atom_site_symmetry_multiplicity
 _atom_site_fract_x
 _atom_site_fract_y
 _atom_site_fract_z
 _atom_site_occupancy
  V  V0  1  0.74755857  0.14032178  0.37729956  1
  V  V1  1  0.38354263  0.50169665  0.87438646  1
  V  V2  1  0.00433636  0.74294418  0.24029099  1
  V  V3  1  0.48973347  0.74245189  0.23820391  1
  V  V4  1  0.74364133  0.51666930  0.23864590  1
  V  V5  1  0.12973637  0.25432934  0.87493090  1
  V  V6  1  0.61991694  0.62472359  0.01131509  1
  V  V7  1  0.00068321  0.24738049  0.73719994  1
  V  V8  1  0.62660846  0.87436546  0.25035590  1
  V  V9  1  -0.00207968  -0.01019830  0.48922608  1
  V  V10  1  -0.00517009  0.12543478  0.12600842  1
  V  V11  1  0.24484050  0.37604482  0.13203934  1
  V  V12  1  0.24777528  0.47616353  0.74953590  1
  V  V13  1  0.86844707  -0.01439766  0.37131321  1
  V  V14  1  0.50278268  0.75185770  0.75420041  1
  V  V15  1  0.36306284  0.75612578  0.60858016  1
  V  V16  1  0.12605235  0.74668591  0.39454320  1
  V  V17  1  0.74373199  0.12630624  0.87701930  1
  V  V18  1  0.37872532  0.25138536  0.13337255  1
  V  V19  1  0.87520123  0.87494507  0.00214026  1
  V  V20  1  0.50573405  0.35258837  0.36664936  1
  V  V21  1  0.87752187  0.50425527  0.37272674  1
  V  V22  1  0.24968245  0.11134328  0.85002073  1
  V  V23  1  0.50366226  0.50121530  0.01247702  1
  V  V24  1  0.49837089  0.87724198  0.38866171  1
  V  V25  1  0.75016948  0.74936727  0.00098530  1
  V  V26  1  -0.00442540  0.73224672  0.75228948  1
  V  V27  1  0.38089859  0.36544710  -0.00235100  1
  V  V28  1  0.37418320  0.12933632  0.26379043  1
  V  V29  1  0.74843754  0.26502182  -0.00796021  1
  V  V30  1  0.36295805  0.63188122  0.75504394  1
  V  V31  1  0.75393924  0.62838541  0.39068338  1
  V  V32  1  0.01163131  0.87809716  0.86662568  1
  V  V33  1  0.88031200  0.49733039  0.88045669  1
  V  V34  1  0.00009487  0.62578582  0.61037572  1
  V  V35  1  0.13515119  0.73864571  0.87331148  1
  V  V36  1  0.75287503  -0.00365402  0.73786423  1
  V  V37  1  0.22826520  0.88962702  0.62302241  1
  V  V38  1  0.49852140  0.50075313  0.49126458  1
  V  V39  1  0.61145197  0.37066714  0.76652295  1
  V  V40  1  0.61518203  -0.00371093  0.61528787  1
  V  V41  1  0.62865198  0.49240714  0.62085941  1
  V  V42  1  0.25175767  -0.00453081  0.25627227  1
  V  V43  1  0.25915628  0.62205084  0.38990261  1
  V  V44  1  0.12712837  -0.00652213  0.12886708  1
  V  V45  1  0.11699956  0.13711453  0.47432014  1
  V  V46  1  0.75932155  0.49265755  0.74296148  1
  V  V47  1  0.86299201  0.36593564  0.50808670  1
  V  V48  1  0.11172568  0.01841316  0.63155248  1
  V  V49  1  0.22415189  0.50468147  0.24758354  1
  V  V50  1  0.25678570  0.74653371  0.00520099  1
  V  V51  1  0.62537092  -0.00423989  0.12508885  1
  V  V52  1  0.01051320  0.25723713  0.25061221  1
  V  V53  1  0.62969120  0.74433879  0.38787289  1
  V  V54  1  0.49236590  -0.01478544  -0.00956500  1
  V  V55  1  0.37380326  -0.00450346  0.39079070  1
  V  V56  1  0.69285240  0.33452792  0.17912395  1
  V  V57  1  0.85886217  0.76050986  0.60175731  1
  V  V58  1  0.48376951  0.13032665  0.63007519  1
  V  V59  1  -0.01360150  0.36598436  0.88220051  1
  V  V60  1  0.49928008  0.12490672  0.12854369  1
  V  V61  1  0.87460611  0.13089221  0.73045675  1
  V  V62  1  0.51234269  0.63011324  0.62023808  1
  V  V63  1  0.75452756  0.62386321  0.86668413  1
  V  V64  1  0.62322236  0.75230106  0.87483373  1
  V  V65  1  0.63306309  0.87272024  0.74780428  1
  V  V66  1  0.75097140  0.87903533  0.13075458  1
  V  V67  1  0.00774709  0.37227048  0.37449369  1
  V  V68  1  0.87353932  0.00280220  0.87397584  1
  V  V69  1  0.00249224  0.00026689  0.00305005  1
  V  V70  1  0.13861429  0.12763004  0.00317018  1
  V  V71  1  0.25426922  0.25161558  0.48752068  1
  V  V72  1  0.87450210  0.27411168  0.12308164  1
  Zn  Zn73  1  0.87969351  0.73502398  0.13473236  1
  Zn  Zn74  1  0.00643094  0.49187674  0.50533415  1
  Zn  Zn75  1  0.36316173  0.38434104  0.50631710  1
  Zn  Zn76  1  0.86903060  0.12196630  0.25166287  1
  Zn  Zn77  1  0.62259516  0.12873685  -0.00403410  1
  Zn  Zn78  1  0.26589512  0.87401717  0.12192607  1
  Zn  Zn79  1  0.14340224  0.50597706  0.60537009  1
  Zn  Zn80  1  0.61943768  0.11916580  0.48916549  1
  Zn  Zn81  1  0.11598037  0.87966294  0.27176642  1
  Zn  Zn82  1  0.19296580  0.18537432  0.19225925  1
  Zn  Zn83  1  0.18883934  0.19278516  0.67760488  1
  Zn  Zn84  1  0.19914890  0.70275131  0.20173141  1
  Zn  Zn85  1  0.17663661  0.69294923  0.68397913  1
  Zn  Zn86  1  0.67220659  0.16434331  0.21312825  1
  Zn  Zn87  1  0.66411587  0.18038089  0.69847375  1
  Zn  Zn88  1  0.68687107  0.69238865  0.19338409  1
  Zn  Zn89  1  0.69497998  0.68500108  0.68547743  1
  Zn  Zn90  1  0.31852481  0.32588442  0.32399732  1
  Zn  Zn91  1  0.31806823  0.30609607  0.81837254  1
  Zn  Zn92  1  0.31044546  0.81093646  0.32069830  1
  Zn  Zn93  1  0.30334673  0.81725419  0.80108170  1
  Zn  Zn94  1  0.81431759  0.31681034  0.31483046  1
  Zn  Zn95  1  0.80836952  0.31237211  0.80230686  1
  Zn  Zn96  1  0.81934619  0.80543235  0.31321234  1
  Zn  Zn97  1  0.81571570  0.81389834  0.81104825  1
  Zn  Zn98  1  0.18792318  0.44102701  0.43306212  1
  Zn  Zn99  1  0.20073126  0.43391130  0.94328135  1
  Zn  Zn100  1  0.18893216  0.93500663  0.45041535  1
  Zn  Zn101  1  0.19756543  0.93581622  0.93952783  1
  Zn  Zn102  1  0.68328618  0.43641341  0.43336982  1
  Zn  Zn103  1  0.68486018  0.44258193  0.93345874  1
  Zn  Zn104  1  0.69865008  0.92943206  0.43820748  1
  Zn  Zn105  1  0.68173374  0.93852246  0.93841124  1
  Zn  Zn106  1  0.31782252  0.05438574  0.06825976  1
  Zn  Zn107  1  0.29798582  0.07274357  0.56329755  1
  Zn  Zn108  1  0.30270037  0.55711687  0.05963889  1
  Zn  Zn109  1  0.31936218  0.56644839  0.57212168  1
  Zn  Zn110  1  0.81010420  0.06462411  0.06158444  1
  Zn  Zn111  1  0.80984821  0.06250995  0.54890309  1
  Zn  Zn112  1  0.81585991  0.55816118  0.05135751  1
  Zn  Zn113  1  0.82784171  0.56457840  0.56736782  1
  Zn  Zn114  1  0.44636305  0.43539562  0.18858406  1
  Zn  Zn115  1  0.43265038  0.44331634  0.68710847  1
  Zn  Zn116  1  0.44347524  0.93975332  0.19877431  1
  Zn  Zn117  1  0.44176189  0.93142592  0.68552288  1
  Zn  Zn118  1  0.93197496  0.44354554  0.19826179  1
  Zn  Zn119  1  0.97535068  0.41827393  0.66852953  1
  Zn  Zn120  1  0.94077657  0.93087286  0.19549098  1
  Zn  Zn121  1  0.94012949  0.93909512  0.68060279  1
  Zn  Zn122  1  0.05467342  0.06307723  0.30955017  1
  Zn  Zn123  1  0.06125787  0.07088644  0.81584602  1
  Zn  Zn124  1  0.06507256  0.57155607  0.31887286  1
  Zn  Zn125  1  0.09195585  0.53207323  0.86251270  1
  Zn  Zn126  1  0.56152429  0.05949127  0.31508959  1
  Zn  Zn127  1  0.56026165  0.06017660  0.80764936  1
  Zn  Zn128  1  0.56866926  0.56409575  0.30730825  1
  Zn  Zn129  1  0.56540874  0.56246320  0.81063392  1
  Zn  Zn130  1  0.44202089  0.18596364  0.45058641  1
  Zn  Zn131  1  0.42313430  0.16451933  0.94656191  1
  Zn  Zn132  1  0.43952959  0.68390912  0.42862513  1
  Zn  Zn133  1  0.43552894  0.68479731  0.93739521  1
  Zn  Zn134  1  0.93177959  0.18490887  0.44280434  1
  Zn  Zn135  1  0.93391588  0.18808986  0.94215495  1
  Zn  Zn136  1  0.93979041  0.69755656  0.43131968  1
  Zn  Zn137  1  0.93758314  0.68830741  0.93030223  1
  Zn  Zn138  1  0.06358741  0.31360358  0.05834690  1
  Zn  Zn139  1  0.10723730  0.31317254  0.57444883  1
  Zn  Zn140  1  0.06815000  0.80631170  0.05751627  1
  Zn  Zn141  1  0.05429964  0.81402539  0.56474770  1
  Zn  Zn142  1  0.56164384  0.31054093  0.05963832  1
  Zn  Zn143  1  0.50969591  0.33001209  0.59263847  1
  Zn  Zn144  1  0.43530414  0.81597699  0.06332533  1
  Zn  Zn145  1  0.56905978  0.81288129  0.56682682  1
  O  O146  1  0.11542753  0.12188294  0.12181396  1
  O  O147  1  0.11825960  0.11867994  0.61381167  1
  O  O148  1  0.05705247  0.53512424  0.10942872  1
  O  O149  1  0.10544125  0.61813111  0.63402039  1
  O  O150  1  0.61600673  0.11302880  0.12976057  1
  O  O151  1  0.62391508  0.10326035  0.62751579  1
  O  O152  1  0.63311052  0.63197860  0.10870474  1
  O  O153  1  0.61571223  0.62195797  0.63073211  1
  O  O154  1  0.39763505  0.37233629  0.39259020  1
  O  O155  1  0.37654097  0.37737255  0.89378685  1
  O  O156  1  0.38767514  0.88286128  0.37836049  1
  O  O157  1  0.37453062  0.91415108  0.84029430  1
  O  O158  1  0.87625013  0.39051956  0.37757428  1
  O  O159  1  0.87976711  0.37903003  0.86966550  1
  O  O160  1  0.86787886  0.88556306  0.37688368  1
  O  O161  1  0.87979540  0.88698389  0.88326094  1
  O  O162  1  0.26553170  -0.00907758  0.37089557  1
  O  O163  1  0.23392119  0.01217029  0.86512999  1
  O  O164  1  0.24695263  0.51033271  0.35568187  1
  O  O165  1  0.27295717  0.48873386  0.86346261  1
  O  O166  1  0.76448382  0.00370282  0.38115877  1
  O  O167  1  0.75703178  0.00491552  0.86766945  1
  O  O168  1  0.75637852  0.51396160  0.36897914  1
  O  O169  1  0.75891802  0.50500855  0.86588494  1
  O  O170  1  0.24751623  0.48696107  0.13296060  1
  O  O171  1  0.25329813  0.50581396  0.64567916  1
  O  O172  1  0.24090638  1.00276598  0.13704110  1
  O  O173  1  0.22597647  0.99943116  0.61935064  1
  O  O174  1  0.76334133  0.51570677  0.13892795  1
  O  O175  1  0.74094724  0.51160398  0.63505165  1
  O  O176  1  0.74151389  0.98921003  0.11822940  1
  O  O177  1  0.74773143  1.00310441  0.63527112  1
  O  O178  1  -0.00460604  0.36480993  0.25321270  1
  O  O179  1  -0.00677148  0.35204775  0.76198870  1
  O  O180  1  0.00409707  0.86000657  0.25364276  1
  O  O181  1  -0.00363932  0.87864007  0.76697071  1
  O  O182  1  0.48836873  0.36970708  0.26544225  1
  O  O183  1  0.51181591  0.38460626  0.74914076  1
  O  O184  1  0.51057406  0.86610528  0.26224920  1
  O  O185  1  0.51496026  0.85933548  0.74783120  1
  O  O186  1  0.48604146  0.11364115  0.23978052  1
  O  O187  1  0.49530450  0.10342263  0.73052578  1
  O  O188  1  0.50935384  0.64367471  0.25458462  1
  O  O189  1  0.49708231  0.63443654  0.74110094  1
  O  O190  1  0.99471797  0.14021782  0.24131806  1
  O  O191  1  0.98030584  0.13204996  0.75532471  1
  O  O192  1  1.01143704  0.64020512  0.24463000  1
  O  O193  1  0.99883523  0.63451339  0.75602615  1
  O  O194  1  0.38322093  0.26114162  0.00935940  1
  O  O195  1  0.35469313  0.23974556  0.50402302  1
  O  O196  1  0.36655061  0.75481486  -0.00711688  1
  O  O197  1  0.37940932  0.74191099  0.51149020  1
  O  O198  1  0.86239295  0.24372502  0.01677150  1
  O  O199  1  0.87119433  0.26527203  0.49492194  1
  O  O200  1  0.86387358  0.76252232  -0.00992208  1
  O  O201  1  0.87437772  0.75868521  0.50106980  1
  O  O202  1  0.11408274  0.24051599  0.48239239  1
  O  O203  1  0.11773970  0.23878507  0.98595753  1
  O  O204  1  0.11920912  0.74661327  0.49433379  1
  O  O205  1  0.13515202  0.75172352  0.98321391  1
  O  O206  1  0.66700205  0.25962777  0.53576417  1
  O  O207  1  0.64363820  0.24714221  1.00567586  1
  O  O208  1  0.62753514  0.75308678  0.48697263  1
  O  O209  1  0.63698508  0.73827444  0.99014755  1
  O  O210  1  0.49114702  0.23961063  0.12387424  1
  O  O211  1  0.51273676  0.22832760  0.63613664  1
  O  O212  1  0.49908061  0.75410912  0.13774719  1
  O  O213  1  0.50031098  0.74149789  0.63223652  1
  O  O214  1  0.99000072  0.24801390  0.12816963  1
  O  O215  1  1.01316851  0.25186025  0.64018465  1
  O  O216  1  0.99984455  0.75598998  0.13257347  1
  O  O217  1  1.00194121  0.74193333  0.64028297  1
  O  O218  1  -0.01149726  0.25995572  0.35681190  1
  O  O219  1  -0.00044216  0.25355719  0.87161495  1
  O  O220  1  0.02056085  0.74258628  0.36494752  1
  O  O221  1  0.00907449  0.76109807  0.87265245  1
  O  O222  1  0.50898134  0.25228862  0.38425032  1
  O  O223  1  0.47217511  0.23635254  0.84636655  1
  O  O224  1  0.51336436  0.75873961  0.37273951  1
  O  O225  1  0.51319785  0.74018670  0.86676515  1
  O  O226  1  0.22839654  0.13875399  0.49939591  1
  O  O227  1  0.23942233  0.12194977  1.00723752  1
  O  O228  1  0.25448742  0.61227964  0.48968566  1
  O  O229  1  0.25917460  0.64291712  1.00161264  1
  O  O230  1  0.73964624  0.12495121  0.48587261  1
  O  O231  1  0.74639973  0.12901042  0.99092656  1
  O  O232  1  0.75245977  0.61966625  0.48927080  1
  O  O233  1  0.74306460  0.62934868  0.98938261  1
  O  O234  1  0.27253942  0.38239472  0.01742424  1
  O  O235  1  0.24927593  0.36538463  0.49047583  1
  O  O236  1  0.24984715  0.86133139  0.00314360  1
  O  O237  1  0.25724667  0.87827485  0.52437464  1
  O  O238  1  0.75054674  0.36408260  -0.01330714  1
  O  O239  1  0.76327667  0.38750876  0.49585267  1
  O  O240  1  0.75417787  0.86813307  0.00625037  1
  O  O241  1  0.74489703  0.85686850  0.50821685  1
  O  O242  1  0.12550233  0.49478991  0.24978775  1
  O  O243  1  0.14984736  0.49441315  0.76804412  1
  O  O244  1  0.13243094  1.00044072  0.24611206  1
  O  O245  1  0.10576586  1.01053031  0.73139853  1
  O  O246  1  0.64272975  0.50461192  0.24662787  1
  O  O247  1  0.63263233  0.49465145  0.74270658  1
  O  O248  1  0.61644884  0.98578517  0.23871001  1
  O  O249  1  0.63459795  0.98910781  0.74329641  1
  O  O250  1  0.36879781  0.00903774  0.26067333  1
  O  O251  1  0.38607155  -0.03118494  0.78843163  1
  O  O252  1  0.38251290  0.53958607  0.21391279  1
  O  O253  1  0.37078263  0.51515328  0.75341136  1
  O  O254  1  0.88376393  0.00205173  0.26585470  1
  O  O255  1  0.87138233  0.00878605  0.75437090  1
  O  O256  1  0.86443017  0.50433253  0.26409634  1
  O  O257  1  0.85916593  0.49332243  0.75448535  1
  O  O258  1  0.10598527  0.37848886  0.37239954  1
  O  O259  1  0.11593133  0.35654153  0.87604603  1
  O  O260  1  0.14399715  0.85428171  0.38180452  1
  O  O261  1  0.11213345  0.87749879  0.87767981  1
  O  O262  1  0.60451590  0.38671030  0.37284308  1
  O  O263  1  0.61768535  0.38201185  0.86690558  1
  O  O264  1  0.62077114  0.86909576  0.36891197  1
  O  O265  1  0.63372338  0.86119879  0.86555221  1
  O  O266  1  0.38038571  0.13246152  0.13434247  1
  O  O267  1  0.38322251  0.11961130  0.62010541  1
  O  O268  1  0.37971109  0.59071015  0.15717010  1
  O  O269  1  0.38572305  0.63897258  0.63907474  1
  O  O270  1  0.88706632  0.12292466  0.12591934  1
  O  O271  1  0.86951712  0.12210945  0.63262900  1
  O  O272  1  0.90603339  0.62898584  0.08149460  1
  O  O273  1  0.88548942  0.65150525  0.62237574  1
  O  O274  1  0.26721264  0.26158946  0.13767304  1
  O  O275  1  0.21268588  0.26651569  0.59841789  1
  O  O276  1  0.24331624  0.75428173  0.11113599  1
  O  O277  1  0.25916649  0.75319364  0.62518962  1
  O  O278  1  0.75892148  0.26763674  0.11811508  1
  O  O279  1  0.71520297  0.25395391  0.59116759  1
  O  O280  1  0.75899075  0.75445526  0.11528175  1
  O  O281  1  0.76016338  0.75162317  0.62681360  1
  O  O282  1  0.25005557  0.25394589  0.38385249  1
  O  O283  1  0.23339919  0.24256681  0.86691344  1
  O  O284  1  0.24222184  0.73276089  0.37005617  1
  O  O285  1  0.24053318  0.75907319  0.87668400  1
  O  O286  1  0.75051266  0.24101500  0.37100341  1
  O  O287  1  0.76433772  0.24066743  0.88634711  1
  O  O288  1  0.74238553  0.73937151  0.37153229  1
  O  O289  1  0.74651582  0.74285125  0.87980197  1
  O  O290  1  0.00572186  0.11944085  0.00882775  1
  O  O291  1  0.01092511  0.11779929  0.49092020  1
  O  O292  1  -0.03071212  0.63344442  0.02947326  1
  O  O293  1  -0.00110681  0.63005453  0.50881893  1
  O  O294  1  0.50501163  0.12218494  0.01299890  1
  O  O295  1  0.51019638  0.12428693  0.51774622  1
  O  O296  1  0.51162513  0.61917354  -0.00036354  1
  O  O297  1  0.49954460  0.62385718  0.51630965  1
  O  O298  1  0.51007716  0.39509979  0.49207149  1
  O  O299  1  0.49184849  0.38853805  1.00489769  1
  O  O300  1  0.50743261  0.87141900  0.48717062  1
  O  O301  1  0.50216466  0.88526130  0.99826315  1
  O  O302  1  0.98612914  0.37340367  0.47706261  1
  O  O303  1  0.99611047  0.36700313  0.98201487  1
  O  O304  1  1.00500347  0.88996170  0.49403048  1
  O  O305  1  0.99187614  0.87968706  0.99156843  1
  O  O306  1  0.50542489  0.52131489  0.39325566  1
  O  O307  1  0.49040099  0.50590717  0.88237114  1
  O  O308  1  0.49096004  0.98601911  0.37380201  1
  O  O309  1  0.51407652  1.00414369  0.89267194  1
  O  O310  1  0.98806921  0.49218045  0.36334388  1
  O  O311  1  0.98568562  0.48147616  0.86072238  1
  O  O312  1  0.98953753  1.00109924  0.38101901  1
  O  O313  1  0.99417951  0.99388062  0.88087306  1
  O  O314  1  0.00696565  0.00812370  0.12450985  1
  O  O315  1  0.00487991  0.00033503  0.60755838  1
  O  O316  1  0.00209238  0.48597421  0.10543307  1
  O  O317  1  -0.02716346  0.52677962  0.62417944  1
  O  O318  1  0.50767838  0.00577818  0.11729374  1
  O  O319  1  0.51152820  -0.00520674  0.62068347  1
  O  O320  1  0.50343141  0.50224252  0.11123478  1
  O  O321  1  0.51223833  0.51561558  0.62387467  1
  O  O322  1  0.26314005  0.39139303  0.24120874  1
  O  O323  1  0.26340264  0.37622943  0.74703128  1
  O  O324  1  0.25075010  0.88779598  0.24843306  1
  O  O325  1  0.25541220  0.87833717  0.72207113  1
  O  O326  1  0.75273303  0.39131428  0.24421156  1
  O  O327  1  0.73805748  0.38926296  0.75258913  1
  O  O328  1  0.74478072  0.86366361  0.23793316  1
  O  O329  1  0.74548134  0.88422892  0.75438609  1
  O  O330  1  0.26554941  0.11417293  0.25009956  1
  O  O331  1  0.24645288  0.12784606  0.75040308  1
  O  O332  1  0.24120881  0.60648539  0.23756543  1
  O  O333  1  0.26361757  0.63354294  0.74752386  1
  O  O334  1  0.75414441  0.11675982  0.26670392  1
  O  O335  1  0.76077515  0.11942047  0.75577147  1
  O  O336  1  0.74986184  0.62147481  0.26046512  1
  O  O337  1  0.74568737  0.61284299  0.76107366  1
  O  O338  1  0.38709890  0.11251940  0.36772851  1
  O  O339  1  0.34622910  0.12783431  0.87728495  1
  O  O340  1  0.35943267  0.62797613  0.37077923  1
  O  O341  1  0.37886252  0.61893652  0.86088697  1
  O  O342  1  0.86141412  0.12119926  0.37526487  1
  O  O343  1  0.86848715  0.11247990  0.87584184  1
  O  O344  1  0.86652790  0.61704014  0.37999503  1
  O  O345  1  0.86890275  0.60971965  0.87760292  1
  O  O346  1  0.14656470  0.36227476  0.11930318  1
  O  O347  1  0.08055149  0.41047084  0.61967257  1
  O  O348  1  0.12344997  0.89191917  0.12044447  1
  O  O349  1  0.12397046  0.88640696  0.62287322  1
  O  O350  1  0.63134519  0.38436382  0.11738017  1
  O  O351  1  0.61615617  0.39227295  0.63119583  1
  O  O352  1  0.63572349  0.88045360  0.13303150  1
  O  O353  1  0.62689616  0.88256379  0.63749103  1
  O  O354  1  0.10943611  0.24898701  0.24196066  1
  O  O355  1  0.10688431  0.23158044  0.76592641  1
  O  O356  1  0.11814048  0.75975575  0.25129633  1
  O  O357  1  0.11218159  0.75403399  0.76364572  1
  O  O358  1  0.63675103  0.26974024  0.23185090  1
  O  O359  1  0.63391452  0.27113401  0.75189236  1
  O  O360  1  0.61944469  0.76055676  0.25870446  1
  O  O361  1  0.62444778  0.75314541  0.75584057  1
  O  O362  1  0.37353616  0.23433679  0.25110339  1
  O  O363  1  0.42382957  0.24992637  0.78963451  1
  O  O364  1  0.39075687  0.75551117  0.25889659  1
  O  O365  1  0.38462346  0.74283092  0.75264588  1
  O  O366  1  0.87678951  0.25224623  0.23054154  1
  O  O367  1  0.87773348  0.23713574  0.74580082  1
  O  O368  1  0.89322627  0.74763310  0.24995490  1
  O  O369  1  0.89380152  0.75030479  0.76247990  1
  O  O370  1  0.39569148  0.50441505  0.51179689  1
  O  O371  1  0.38791258  0.49953507  0.99607846  1
  O  O372  1  0.36789549  1.00853688  0.48771182  1
  O  O373  1  0.39209985  1.00792085  0.99829448  1
  O  O374  1  0.88319796  0.49686509  0.48534006  1
  O  O375  1  0.87198013  0.48951816  0.97948974  1
  O  O376  1  0.88883240  1.00439852  0.48928004  1
  O  O377  1  0.87922906  0.99339654  0.99297697  1
  O  O378  1  0.12107515  0.00920348  0.00950141  1
  O  O379  1  0.11328828  0.01138354  0.49887190  1
  O  O380  1  0.11714153  0.49935107  -0.03210981  1
  O  O381  1  0.11829425  0.50706121  0.49251601  1
  O  O382  1  0.61819126  0.00236328  0.01169859  1
  O  O383  1  0.63320786  -0.00766563  0.51489402  1
  O  O384  1  0.61560713  0.51405601  -0.00627104  1
  O  O385  1  0.62014952  0.50445736  0.51630630  1
  O  O386  1  0.37674785  0.36777935  0.12030702  1
  O  O387  1  0.40231989  0.36694019  0.61305461  1
  O  O388  1  0.37722021  0.88817382  0.12720004  1
  O  O389  1  0.38393022  0.85513034  0.62576316  1
  O  O390  1  0.88393021  0.37217198  0.11912086  1
  O  O391  1  0.88318014  0.38329932  0.60632376  1
  O  O392  1  0.86860481  0.87918401  0.11314881  1
  O  O393  1  0.88565916  0.85469909  0.63198396  1
  O  O394  1  0.12688412  0.12255787  0.37489408  1
  O  O395  1  0.13265194  0.13001537  0.88474634  1
  O  O396  1  0.14041894  0.63556032  0.37481959  1
  O  O397  1  0.12622641  0.64067868  0.87151868  1
  O  O398  1  0.63725345  0.11925400  0.37124839  1
  O  O399  1  0.64055633  0.12281949  0.86831780  1
  O  O400  1  0.63655116  0.63797076  0.37676775  1
  O  O401  1  0.63533648  0.63287424  0.87942658  1
