# generated using pymatgen
data_V73Zn73O256
_symmetry_space_group_name_H-M   'P 1'
_cell_length_a   16.87572939
_cell_length_b   16.86669274
_cell_length_c   16.89003699
_cell_angle_alpha   90.05445650
_cell_angle_beta   90.01221963
_cell_angle_gamma   89.94776399
_symmetry_Int_Tables_number   1
_chemical_formula_structural   V73Zn73O256
_chemical_formula_sum   'V73 Zn73 O256'
_cell_volume   4807.53771970
_cell_formula_units_Z   1
loop_
 _symmetry_equiv_pos_site_id
 _symmetry_equiv_pos_as_xyz
  1  'x, y, z'
loop_
 _atom_site_type_symbol
 _atom_site_label
 _atom_site_symmetry_multiplicity
 _atom_site_fract_x
 _atom_site_fract_y
 _atom_site_fract_z
 _atom_site_occupancy
  V  V0  1  0.87683498  0.24421725  0.62737430  1
  V  V1  1  0.62786243  0.63246421  0.51247043  1
  V  V2  1  0.27364679  0.12663915  0.37107854  1
  V  V3  1  0.73931160  0.62494071  0.88467823  1
  V  V4  1  0.86385406  -0.00367093  0.87900862  1
  V  V5  1  0.00771333  0.50086400  0.01479709  1
  V  V6  1  0.87477004  0.36853749  0.00564079  1
  V  V7  1  0.48032802  0.88323611  0.87595115  1
  V  V8  1  0.75004949  0.38343152  0.63184732  1
  V  V9  1  0.62444926  0.37345816  0.75647651  1
  V  V10  1  0.87975685  0.14375023  0.25009787  1
  V  V11  1  0.00309654  0.37620209  0.87282667  1
  V  V12  1  0.88909207  0.63233557  0.75843057  1
  V  V13  1  0.49687486  0.11447615  0.62315552  1
  V  V14  1  0.88235889  -0.01041679  0.39106692  1
  V  V15  1  0.63339368  -0.00412093  0.63203951  1
  V  V16  1  0.12650519  0.12536604  0.00670869  1
  V  V17  1  0.00252913  -0.00461831  0.00456698  1
  V  V18  1  0.25560117  0.88087272  0.64201646  1
  V  V19  1  0.11486965  0.38312533  0.24734996  1
  V  V20  1  0.85608520  0.12120325  0.75857100  1
  V  V21  1  0.63252421  0.87065672  0.76165613  1
  V  V22  1  0.87733820  0.50083659  0.87919144  1
  V  V23  1  0.25868331  0.74529798  -0.00062479  1
  V  V24  1  0.11425938  0.24482850  0.36461719  1
  V  V25  1  0.75230982  0.87251688  0.12314165  1
  V  V26  1  0.61067927  0.00566049  0.12633648  1
  V  V27  1  0.87703492  0.38852785  0.50259110  1
  V  V28  1  0.13781903  0.72942485  0.36315128  1
  V  V29  1  0.88867566  0.74752152  0.63086550  1
  V  V30  1  -0.00121551  0.24188850  0.74916792  1
  V  V31  1  0.36938514  0.10913042  0.75195505  1
  V  V32  1  0.37545271  0.74386133  0.59284743  1
  V  V33  1  0.73875694  0.74618505  0.00954339  1
  V  V34  1  0.87480757  0.50527213  0.37343581  1
  V  V35  1  0.74185136  0.62565890  0.35760070  1
  V  V36  1  0.44156233  0.69050358  0.19633294  1
  V  V37  1  0.49327327  0.24814360  0.75266939  1
  V  V38  1  0.12071739  0.63449551  0.01006311  1
  V  V39  1  0.75517419  0.23367564  -0.00556442  1
  V  V40  1  0.74841168  0.12736248  0.37892074  1
  V  V41  1  0.00928154  0.86451844  0.86660320  1
  V  V42  1  0.50657025  0.51185151  0.00262614  1
  V  V43  1  0.13451766  0.37856217  0.73040290  1
  V  V44  1  0.75825410  0.00106478  0.24994186  1
  V  V45  1  0.37955549  0.23889947  0.13403975  1
  V  V46  1  0.24746257  0.10490243  0.86942548  1
  V  V47  1  0.74144756  0.36994532  0.12671609  1
  V  V48  1  0.27138966  0.50730923  0.25165475  1
  V  V49  1  0.61068219  0.50293998  0.63153081  1
  V  V50  1  0.89029855  0.62348710  0.24633673  1
  V  V51  1  0.74419105  0.25161391  0.50254672  1
  V  V52  1  0.62982499  0.75696950  0.38200612  1
  V  V53  1  0.52079894  0.24258825  0.25240942  1
  V  V54  1  0.13689863  0.25264890  0.87401769  1
  V  V55  1  0.60218223  0.11770641  -0.00246290  1
  V  V56  1  0.24413714  0.37658580  0.12282202  1
  V  V57  1  0.37525664  0.88953653  0.01353584  1
  V  V58  1  0.62313284  0.11999770  0.50226107  1
  V  V59  1  0.37216878  0.25951162  0.61619727  1
  V  V60  1  0.49229225  0.88862040  0.39151744  1
  V  V61  1  0.11483874  0.11981601  0.50214600  1
  V  V62  1  0.62000578  0.87599763  0.25535837  1
  V  V63  1  0.62653669  0.50291891  0.13271385  1
  V  V64  1  0.49916084  0.37105354  0.88398023  1
  V  V65  1  0.25342826  0.00867142  0.24297240  1
  V  V66  1  0.48240806  0.73899133  0.75021659  1
  V  V67  1  0.75017148  0.86183225  0.61211421  1
  V  V68  1  0.88275379  0.74803873  0.12953138  1
  V  V69  1  0.22764100  0.87456664  0.13336423  1
  V  V70  1  0.36549297  0.36887459  0.00191132  1
  V  V71  1  0.50188788  0.49030301  0.47931021  1
  V  V72  1  0.25860453  0.51533355  0.73851676  1
  Zn  Zn73  1  0.61225750  0.74392069  0.88425128  1
  Zn  Zn74  1  0.62642364  0.22880620  0.87021000  1
  Zn  Zn75  1  0.25138492  0.25688607  0.49520056  1
  Zn  Zn76  1  -0.00566532  0.13533888  0.13101345  1
  Zn  Zn77  1  0.36717891  0.51844397  0.87300652  1
  Zn  Zn78  1  -0.01637085  0.37095734  0.36622601  1
  Zn  Zn79  1  0.00991998  0.86824276  0.36553006  1
  Zn  Zn80  1  0.55978313  0.37391268  0.34398490  1
  Zn  Zn81  1  0.74823078  0.50739050  0.75353104  1
  Zn  Zn82  1  0.19370809  0.19529988  0.18782681  1
  Zn  Zn83  1  0.18901666  0.19603457  0.68739816  1
  Zn  Zn84  1  0.18671247  0.68401116  0.18406794  1
  Zn  Zn85  1  0.19639571  0.69442874  0.65746705  1
  Zn  Zn86  1  0.69703556  0.18425716  0.17967742  1
  Zn  Zn87  1  0.68565735  0.18981087  0.68545106  1
  Zn  Zn88  1  0.65443013  0.68560406  0.18581669  1
  Zn  Zn89  1  0.68770551  0.68882103  0.69818063  1
  Zn  Zn90  1  0.30831246  0.31128604  0.30642565  1
  Zn  Zn91  1  0.30944898  0.32289251  0.81305788  1
  Zn  Zn92  1  0.31013153  0.80768251  0.31598479  1
  Zn  Zn93  1  0.30082968  0.80576240  0.81678360  1
  Zn  Zn94  1  0.76216307  0.33878846  0.33288965  1
  Zn  Zn95  1  0.81029829  0.30810847  0.81941830  1
  Zn  Zn96  1  0.81244289  0.80863735  0.31282348  1
  Zn  Zn97  1  0.81601749  0.80910775  0.82390511  1
  Zn  Zn98  1  0.19642788  0.43884444  0.42053458  1
  Zn  Zn99  1  0.16240671  0.48750774  0.89662285  1
  Zn  Zn100  1  0.16943801  0.95550368  0.39179059  1
  Zn  Zn101  1  0.18515717  0.93153627  0.94092340  1
  Zn  Zn102  1  0.69401895  0.45309067  0.44806670  1
  Zn  Zn103  1  0.68923881  0.43333209  0.94236836  1
  Zn  Zn104  1  0.69197285  0.94404661  0.44130560  1
  Zn  Zn105  1  0.68287066  0.93656204  0.94337577  1
  Zn  Zn106  1  0.30553005  0.06039672  0.06242861  1
  Zn  Zn107  1  0.26568823  0.07982704  0.57991853  1
  Zn  Zn108  1  0.32277537  0.56549416  0.06893805  1
  Zn  Zn109  1  0.34585507  0.54270957  0.58206702  1
  Zn  Zn110  1  0.81828770  0.05913056  0.06671088  1
  Zn  Zn111  1  0.81153598  0.05880074  0.57071355  1
  Zn  Zn112  1  0.80919705  0.55909870  0.06795138  1
  Zn  Zn113  1  0.83289742  0.60101023  0.54351197  1
  Zn  Zn114  1  0.44574806  0.42830831  0.18402454  1
  Zn  Zn115  1  0.43342086  0.43759146  0.69490832  1
  Zn  Zn116  1  0.43191944  0.93455500  0.20004444  1
  Zn  Zn117  1  0.43620244  0.92681670  0.68294762  1
  Zn  Zn118  1  0.92576747  0.43538884  0.19045038  1
  Zn  Zn119  1  0.93634355  0.43877804  0.69439197  1
  Zn  Zn120  1  0.94234617  0.93957503  0.18844080  1
  Zn  Zn121  1  0.92800318  0.92721871  0.70002975  1
  Zn  Zn122  1  0.05939540  0.05619298  0.30538953  1
  Zn  Zn123  1  0.05329531  0.06102106  0.82023840  1
  Zn  Zn124  1  0.06378014  0.56013728  0.31440874  1
  Zn  Zn125  1  0.11159503  0.65784200  0.81143122  1
  Zn  Zn126  1  0.55800270  0.06552564  0.31381532  1
  Zn  Zn127  1  0.55902907  0.05531567  0.81220143  1
  Zn  Zn128  1  0.54364778  0.56907385  0.30326318  1
  Zn  Zn129  1  0.55489094  0.55819594  0.81831192  1
  Zn  Zn130  1  0.45254912  0.20110708  0.43278897  1
  Zn  Zn131  1  0.42746435  0.18635977  0.93753111  1
  Zn  Zn132  1  0.45108001  0.68068085  0.41358909  1
  Zn  Zn133  1  0.43310452  0.69305505  0.93829784  1
  Zn  Zn134  1  0.93501779  0.18507705  0.43783125  1
  Zn  Zn135  1  0.94232565  0.18672797  0.93944660  1
  Zn  Zn136  1  0.97193180  0.73543650  0.46762174  1
  Zn  Zn137  1  0.93218104  0.68723742  0.94928722  1
  Zn  Zn138  1  0.06334920  0.30730172  0.06131350  1
  Zn  Zn139  1  0.05868715  0.30517080  0.55297784  1
  Zn  Zn140  1  0.05975847  0.81368982  0.06351823  1
  Zn  Zn141  1  0.09949018  0.83426584  0.51886113  1
  Zn  Zn142  1  0.56352898  0.30226710  0.06736594  1
  Zn  Zn143  1  0.55844616  0.31123829  0.56618151  1
  Zn  Zn144  1  0.55553402  0.81441675  0.06495565  1
  Zn  Zn145  1  0.55535006  0.81255862  0.56832130  1
  O  O146  1  0.12973425  0.13417082  0.10767598  1
  O  O147  1  0.15278338  0.12651925  0.60224675  1
  O  O148  1  0.12243813  0.61843583  0.10934026  1
  O  O149  1  0.14407553  0.62263785  0.55907107  1
  O  O150  1  0.62928767  0.11102118  0.11519507  1
  O  O151  1  0.61903939  0.11475145  0.62625388  1
  O  O152  1  0.64185232  0.60064339  0.11060676  1
  O  O153  1  0.63125614  0.61874428  0.62003468  1
  O  O154  1  0.34489547  0.36614900  0.40554893  1
  O  O155  1  0.38394286  0.36596433  0.88886888  1
  O  O156  1  0.39638175  0.86770083  0.36799968  1
  O  O157  1  0.37741575  0.87376439  0.88247303  1
  O  O158  1  0.86109035  0.38816222  0.38462230  1
  O  O159  1  0.88064231  0.38066039  0.88162301  1
  O  O160  1  0.86555076  0.88920781  0.37346701  1
  O  O161  1  0.88117165  0.89180280  0.87050958  1
  O  O162  1  0.26278683  0.02120126  0.36933954  1
  O  O163  1  0.24087898  0.00665361  0.86631954  1
  O  O164  1  0.25493014  0.50567069  0.35187636  1
  O  O165  1  0.26043380  0.47409423  0.84554916  1
  O  O166  1  0.75787708  0.00965798  0.36992914  1
  O  O167  1  0.76431175  -0.00418692  0.88708621  1
  O  O168  1  0.75639616  0.51876396  0.37448579  1
  O  O169  1  0.75849074  0.50865193  0.88133874  1
  O  O170  1  0.25801866  0.48045754  0.12506942  1
  O  O171  1  0.26355964  0.49138404  0.63727159  1
  O  O172  1  0.24182922  0.99550673  0.13534002  1
  O  O173  1  0.27367098  0.98220010  0.63008630  1
  O  O174  1  0.73883046  0.48090812  0.11310734  1
  O  O175  1  0.73859769  0.48837521  0.63195327  1
  O  O176  1  0.74893954  0.99039115  0.13203301  1
  O  O177  1  0.74229777  0.98270721  0.62955632  1
  O  O178  1  0.01041412  0.37831554  0.24593170  1
  O  O179  1  0.00421899  0.36828634  0.75755775  1
  O  O180  1  0.00982423  0.88277133  0.25382912  1
  O  O181  1  -0.00071253  0.87026426  0.76599480  1
  O  O182  1  0.50631676  0.35658063  0.24454675  1
  O  O183  1  0.50489212  0.36718985  0.76108189  1
  O  O184  1  0.51804063  0.88386878  0.25966899  1
  O  O185  1  0.50076871  0.86513744  0.76265967  1
  O  O186  1  0.50096989  0.14095213  0.25490899  1
  O  O187  1  0.49001637  0.12920683  0.74769193  1
  O  O188  1  0.54521829  0.65057380  0.22453769  1
  O  O189  1  0.50581122  0.64088072  0.75880406  1
  O  O190  1  0.98511482  0.12136287  0.24895817  1
  O  O191  1  0.99375212  0.13905481  0.75514943  1
  O  O192  1  0.98857821  0.62182528  0.24753863  1
  O  O193  1  0.98572187  0.62477648  0.76991454  1
  O  O194  1  0.38136066  0.26197832  0.01089962  1
  O  O195  1  0.38460054  0.24336550  0.51568536  1
  O  O196  1  0.36113651  0.76344263  0.00460678  1
  O  O197  1  0.39430586  0.73946634  0.49422234  1
  O  O198  1  0.86237883  0.25453095  -0.01226932  1
  O  O199  1  0.86434876  0.25517818  0.51159317  1
  O  O200  1  0.85543961  0.73997520  0.02318455  1
  O  O201  1  0.87970332  0.71194052  0.52822565  1
  O  O202  1  0.13196689  0.25140052  0.48236589  1
  O  O203  1  0.12197939  0.23519117  0.98385078  1
  O  O204  1  0.08831566  0.72220125  0.48361330  1
  O  O205  1  0.12283869  0.73747830  1.00296026  1
  O  O206  1  0.63779166  0.23833282  0.51799600  1
  O  O207  1  0.62903316  0.22728971  1.00015543  1
  O  O208  1  0.62121535  0.73781968  0.50223874  1
  O  O209  1  0.63257993  0.75354553  1.00146982  1
  O  O210  1  0.48880217  0.24728332  0.13424298  1
  O  O211  1  0.49499333  0.23684287  0.63517663  1
  O  O212  1  0.49319184  0.75766981  0.13651088  1
  O  O213  1  0.48501488  0.75625241  0.64049525  1
  O  O214  1  0.98474249  0.24006295  0.09645771  1
  O  O215  1  0.98397987  0.25722460  0.63502394  1
  O  O216  1  0.98093625  0.75201090  0.11992910  1
  O  O217  1  0.98333943  0.76096278  0.63633092  1
  O  O218  1  0.00944425  0.25551639  0.37675971  1
  O  O219  1  0.00630592  0.25942985  0.86784578  1
  O  O220  1  0.01324545  0.74791051  0.36271046  1
  O  O221  1  -0.01285678  0.76684785  0.89220724  1
  O  O222  1  0.51160487  0.26098894  0.35989457  1
  O  O223  1  0.50193990  0.25168009  0.86728982  1
  O  O224  1  0.52541284  0.77028057  0.37935961  1
  O  O225  1  0.49803346  0.76018035  0.86926561  1
  O  O226  1  0.24578826  0.13382146  0.47923363  1
  O  O227  1  0.23625545  0.11535502  0.98099363  1
  O  O228  1  0.18355738  0.56830119  0.52014411  1
  O  O229  1  0.24293927  0.64017022  1.01757880  1
  O  O230  1  0.74441697  0.13160287  0.50087225  1
  O  O231  1  0.75337575  0.13279434  1.00231259  1
  O  O232  1  0.73077042  0.61928804  0.49027836  1
  O  O233  1  0.75198754  0.62847705  0.99110051  1
  O  O234  1  0.26258559  0.37539804  0.00840849  1
  O  O235  1  0.28550898  0.36936109  0.46165817  1
  O  O236  1  0.25624845  0.87451212  0.01357067  1
  O  O237  1  0.31314821  0.92429152  0.48181920  1
  O  O238  1  0.75858894  0.36353702  0.00193926  1
  O  O239  1  0.75801780  0.36991409  0.51622123  1
  O  O240  1  0.74391666  0.86575248  0.01511281  1
  O  O241  1  0.74406162  0.86922063  0.51327312  1
  O  O242  1  0.12981321  0.48445292  0.24961614  1
  O  O243  1  0.14095743  0.48091920  0.74723198  1
  O  O244  1  0.14786197  0.99111466  0.27863511  1
  O  O245  1  0.09058621  1.00305949  0.71060480  1
  O  O246  1  0.61601826  0.49960072  0.23199593  1
  O  O247  1  0.62436131  0.49061098  0.74916900  1
  O  O248  1  0.63717911  0.99936292  0.24176395  1
  O  O249  1  0.61811277  0.98227351  0.74316280  1
  O  O250  1  0.35463260  -0.00140693  0.24971291  1
  O  O251  1  0.38168758  0.01194742  0.74983054  1
  O  O252  1  0.37085485  0.48808293  0.24429424  1
  O  O253  1  0.36879948  0.50870130  0.75125713  1
  O  O254  1  0.86436488  0.00373324  0.25701641  1
  O  O255  1  0.87595793  0.01428199  0.75880446  1
  O  O256  1  0.86939695  0.51380280  0.25438866  1
  O  O257  1  0.87188511  0.50857881  0.76316268  1
  O  O258  1  0.12408804  0.36760620  0.35996297  1
  O  O259  1  0.11563167  0.37006178  0.86576846  1
  O  O260  1  0.12542280  0.85484763  0.40359073  1
  O  O261  1  0.10959649  0.87440352  0.88024997  1
  O  O262  1  0.66396038  0.36829888  0.38256980  1
  O  O263  1  0.61724547  0.37350328  0.86672838  1
  O  O264  1  0.63081049  0.87866459  0.36779899  1
  O  O265  1  0.61638255  0.87473434  0.86896023  1
  O  O266  1  0.36297440  0.14121679  0.11615889  1
  O  O267  1  0.37948048  0.13097495  0.63970575  1
  O  O268  1  0.39569862  0.62591426  0.13290112  1
  O  O269  1  0.36966615  0.64591765  0.61997006  1
  O  O270  1  0.86414509  0.12756619  0.14722502  1
  O  O271  1  0.86595693  0.13432587  0.64121488  1
  O  O272  1  0.86576147  0.63178972  0.13868949  1
  O  O273  1  0.87006366  0.63011019  0.65196336  1
  O  O274  1  0.26371866  0.26647367  0.12936854  1
  O  O275  1  0.26790339  0.24758571  0.61745480  1
  O  O276  1  0.23836522  0.76829558  0.11548518  1
  O  O277  1  0.26813992  0.76255349  0.60388194  1
  O  O278  1  0.74404554  0.25839213  0.10370621  1
  O  O279  1  0.75751050  0.26089831  0.62409062  1
  O  O280  1  0.73925426  0.75715595  0.12493595  1
  O  O281  1  0.74920008  0.75947054  0.62979060  1
  O  O282  1  0.23793373  0.23698813  0.36595612  1
  O  O283  1  0.23928028  0.24558603  0.86798918  1
  O  O284  1  0.23683258  0.75369309  0.38229958  1
  O  O285  1  0.23951517  0.75884587  0.90092114  1
  O  O286  1  0.75939461  0.23564287  0.39230224  1
  O  O287  1  0.73911084  0.25186348  0.88936290  1
  O  O288  1  0.74233708  0.73969522  0.37659420  1
  O  O289  1  0.74918562  0.73845491  0.88964617  1
  O  O290  1  0.01725460  0.11507673  -0.01266914  1
  O  O291  1  0.01506582  0.13954688  0.50809841  1
  O  O292  1  0.00593458  0.61007465  -0.00075558  1
  O  O293  1  -0.00295103  0.56018056  0.57775931  1
  O  O294  1  0.50364336  0.12364411  0.00063221  1
  O  O295  1  0.51356068  0.13254949  0.51126742  1
  O  O296  1  0.50018058  0.61036732  -0.00689050  1
  O  O297  1  0.52402958  0.60984452  0.48538641  1
  O  O298  1  0.51168963  0.39049378  0.50182851  1
  O  O299  1  0.49918797  0.36949228  0.99079028  1
  O  O300  1  0.50593743  0.88035711  0.49251028  1
  O  O301  1  0.48434129  0.87009627  0.98975250  1
  O  O302  1  0.97883428  0.37067014  0.49677849  1
  O  O303  1  0.99344663  0.37994446  0.99163257  1
  O  O304  1  0.99087119  0.85277415  0.48186588  1
  O  O305  1  1.00186153  0.89232110  0.99915269  1
  O  O306  1  0.52134749  0.48471161  0.37712385  1
  O  O307  1  0.49197202  0.48762696  0.88483724  1
  O  O308  1  0.50559626  0.98903871  0.37627870  1
  O  O309  1  0.49516200  0.98209683  0.87261375  1
  O  O310  1  0.97992394  0.49674801  0.37009616  1
  O  O311  1  0.98906180  0.48813935  0.88489927  1
  O  O312  1  0.98416525  0.99659475  0.37452871  1
  O  O313  1  0.99266513  0.98885387  0.88282943  1
  O  O314  1  -0.01308635  0.01281894  0.10746346  1
  O  O315  1  0.03794153  -0.00785458  0.65804119  1
  O  O316  1  -0.00762924  0.49162550  0.11234550  1
  O  O317  1  0.01869538  0.51181599  0.62964011  1
  O  O318  1  0.51309655  -0.00230784  0.13706689  1
  O  O319  1  0.50790674  0.00920813  0.63077084  1
  O  O320  1  0.51378818  0.49049958  0.11006340  1
  O  O321  1  0.50907811  0.49943692  0.62824653  1
  O  O322  1  0.24241833  0.38325856  0.23768047  1
  O  O323  1  0.23424768  0.35646445  0.73493555  1
  O  O324  1  0.25124360  0.88174308  0.23549197  1
  O  O325  1  0.24375868  0.86658426  0.74166301  1
  O  O326  1  0.75913130  0.36318501  0.22403710  1
  O  O327  1  0.74051839  0.37272625  0.74857194  1
  O  O328  1  0.74284671  0.88567504  0.24473314  1
  O  O329  1  0.73389709  0.86658885  0.75650684  1
  O  O330  1  0.24633010  0.11823402  0.25637209  1
  O  O331  1  0.26034587  0.12517777  0.75477506  1
  O  O332  1  0.25501699  0.60343736  0.22442931  1
  O  O333  1  0.23787424  0.61337002  0.74083743  1
  O  O334  1  0.75574490  0.12071216  0.26100710  1
  O  O335  1  0.75617295  0.13023937  0.75651579  1
  O  O336  1  0.73679498  0.62890602  0.25817093  1
  O  O337  1  0.75448813  0.62567785  0.77105199  1
  O  O338  1  0.37133359  0.13997116  0.37439635  1
  O  O339  1  0.35905160  0.12742542  0.86443782  1
  O  O340  1  0.44471639  0.63381124  0.31022655  1
  O  O341  1  0.35413862  0.62369236  0.90594096  1
  O  O342  1  0.86834128  0.11418664  0.36987192  1
  O  O343  1  0.87801385  0.11831050  0.86350639  1
  O  O344  1  0.86001792  0.62364374  0.35748717  1
  O  O345  1  0.86601511  0.61879215  0.87493178  1
  O  O346  1  0.13586700  0.36422196  0.13254110  1
  O  O347  1  0.11179579  0.36887488  0.63273997  1
  O  O348  1  0.12869776  0.88300305  0.12371234  1
  O  O349  1  0.16253804  0.87386931  0.59912432  1
  O  O350  1  0.63603192  0.37840251  0.11524610  1
  O  O351  1  0.62825478  0.38026401  0.63907448  1
  O  O352  1  0.62980797  0.88687029  0.13685470  1
  O  O353  1  0.63335077  0.87640930  0.63629983  1
  O  O354  1  0.12457945  0.25897997  0.25798932  1
  O  O355  1  0.11524919  0.25579681  0.75452023  1
  O  O356  1  0.13133860  0.74495369  0.26200586  1
  O  O357  1  0.11060110  0.71701498  0.72235155  1
  O  O358  1  0.62181743  0.24416072  0.24073225  1
  O  O359  1  0.61309203  0.25566463  0.75045976  1
  O  O360  1  0.63644670  0.77389163  0.26110725  1
  O  O361  1  0.61280571  0.76200283  0.75400304  1
  O  O362  1  0.37854407  0.25209975  0.23743830  1
  O  O363  1  0.38404924  0.24735722  0.74489378  1
  O  O364  1  0.37168891  0.75039312  0.24020456  1
  O  O365  1  0.38239277  0.74522466  0.76026476  1
  O  O366  1  0.87254938  0.23962459  0.26543189  1
  O  O367  1  0.87769460  0.24134386  0.74917791  1
  O  O368  1  0.86790192  0.73552200  0.24074981  1
  O  O369  1  0.86995335  0.73905462  0.74945012  1
  O  O370  1  0.40301125  0.51083507  0.49254268  1
  O  O371  1  0.39047297  0.48090433  1.00523628  1
  O  O372  1  0.36006625  0.97901977  0.49123632  1
  O  O373  1  0.36890211  0.98876302  0.99866177  1
  O  O374  1  0.86468750  0.49906519  0.49292003  1
  O  O375  1  0.88111529  0.49223100  0.99464099  1
  O  O376  1  0.86989825  1.00372325  0.49086659  1
  O  O377  1  0.88871212  1.01459569  0.98572836  1
  O  O378  1  0.11452913  0.01214916  -0.00418671  1
  O  O379  1  0.12553674  0.02211427  0.48111092  1
  O  O380  1  0.10923386  0.49110831  0.00232930  1
  O  O381  1  0.13846165  0.50307657  0.50069636  1
  O  O382  1  0.62323500  0.00531550  0.01547915  1
  O  O383  1  0.63265168  0.01092999  0.51673678  1
  O  O384  1  0.60970875  0.49329133  -0.00339940  1
  O  O385  1  0.61882029  0.50726551  0.51569750  1
  O  O386  1  0.37006749  0.36546570  0.11457136  1
  O  O387  1  0.38741142  0.35826483  0.62727975  1
  O  O388  1  0.37239377  0.88217832  0.11522682  1
  O  O389  1  0.36895796  0.85860771  0.62351266  1
  O  O390  1  0.86367576  0.37861429  0.10990151  1
  O  O391  1  0.86730004  0.37339492  0.62456932  1
  O  O392  1  0.86203591  0.85904527  0.13797437  1
  O  O393  1  0.85965164  0.86125103  0.63447786  1
  O  O394  1  0.11849062  0.13909273  0.37771217  1
  O  O395  1  0.13665595  0.13043907  0.86732707  1
  O  O396  1  0.13324325  0.62658826  0.36966461  1
  O  O397  1  0.13575757  0.60310149  0.90271632  1
  O  O398  1  0.63786444  0.11577096  0.38986611  1
  O  O399  1  0.61967815  0.11132413  0.89223162  1
  O  O400  1  0.63249052  0.63653007  0.37892156  1
  O  O401  1  0.63678624  0.62324966  0.87559749  1
