# generated using pymatgen
data_V73Zn73O256
_symmetry_space_group_name_H-M   'P 1'
_cell_length_a   16.98223314
_cell_length_b   16.88763599
_cell_length_c   16.90356172
_cell_angle_alpha   90.10588800
_cell_angle_beta   89.76239202
_cell_angle_gamma   90.04312220
_symmetry_Int_Tables_number   1
_chemical_formula_structural   V73Zn73O256
_chemical_formula_sum   'V73 Zn73 O256'
_cell_volume   4847.71729438
_cell_formula_units_Z   1
loop_
 _symmetry_equiv_pos_site_id
 _symmetry_equiv_pos_as_xyz
  1  'x, y, z'
loop_
 _atom_site_type_symbol
 _atom_site_label
 _atom_site_symmetry_multiplicity
 _atom_site_fract_x
 _atom_site_fract_y
 _atom_site_fract_z
 _atom_site_occupancy
  V  V0  1  0.49410508  0.48987473  0.48033559  1
  V  V1  1  0.73365261  0.12636261  0.87362221  1
  V  V2  1  0.86589492  0.87274597  -0.00008464  1
  V  V3  1  0.12274435  0.87812075  0.25812420  1
  V  V4  1  0.26161022  0.48669116  0.76198282  1
  V  V5  1  0.14042856  0.74016508  0.38234349  1
  V  V6  1  0.84613458  0.63016079  0.75097040  1
  V  V7  1  0.25684523  0.00991924  0.26056463  1
  V  V8  1  0.50151689  0.75133794  0.25628501  1
  V  V9  1  0.36557230  0.60584437  0.26183663  1
  V  V10  1  0.37183540  0.62377347  0.76318298  1
  V  V11  1  0.14168186  0.88752933  0.74607652  1
  V  V12  1  0.62094169  0.37873027  0.25048348  1
  V  V13  1  0.00259632  0.63035753  0.12668144  1
  V  V14  1  0.86331281  0.75260817  0.12011327  1
  V  V15  1  0.13241796  0.75124589  0.87837520  1
  V  V16  1  -0.01386910  0.37997306  0.38747718  1
  V  V17  1  -0.00426015  -0.00967925  0.49363040  1
  V  V18  1  0.36177057  0.75210478  0.61251454  1
  V  V19  1  0.12713437  0.50028337  0.13086698  1
  V  V20  1  0.87435589  0.26205552  0.62285055  1
  V  V21  1  0.88336495  0.75657476  0.62174766  1
  V  V22  1  0.00366358  0.12417099  0.62141656  1
  V  V23  1  0.00183820  0.49994600  -0.01330390  1
  V  V24  1  0.63948535  0.87225765  0.24752204  1
  V  V25  1  0.01228539  0.62937744  0.62107117  1
  V  V26  1  0.00296980  0.75607468  0.25868642  1
  V  V27  1  0.50593595  0.00666961  -0.00044584  1
  V  V28  1  0.00604304  0.75012527  0.75212079  1
  V  V29  1  0.88010196  0.13649274  0.75333132  1
  V  V30  1  -0.00253176  0.00202223  0.00150193  1
  V  V31  1  0.76261394  0.27320929  0.49300013  1
  V  V32  1  0.25165304  0.88109017  0.12437526  1
  V  V33  1  -0.01991690  0.25207041  0.25103648  1
  V  V34  1  0.62717604  0.25690777  0.37103386  1
  V  V35  1  0.62314036  0.62764829  0.49937084  1
  V  V36  1  0.50644137  0.00782485  0.49789946  1
  V  V37  1  0.74651954  0.63413901  0.37790483  1
  V  V38  1  0.13143942  0.62855659  0.00097322  1
  V  V39  1  0.74891824  0.75391115  0.50158151  1
  V  V40  1  0.50761642  0.87466579  0.37699405  1
  V  V41  1  0.12890374  0.13979895  -0.00104245  1
  V  V42  1  0.50441226  0.86850498  0.87271767  1
  V  V43  1  0.13152506  0.50036728  0.62158854  1
  V  V44  1  0.49920582  0.61765907  0.61711144  1
  V  V45  1  0.11751953  0.26159245  0.87226928  1
  V  V46  1  0.25538011  0.36502284  0.11519877  1
  V  V47  1  0.62889674  0.00189427  0.12194285  1
  V  V48  1  -0.01540415  0.13247167  0.13141906  1
  V  V49  1  0.37433115  0.74965761  0.13203514  1
  V  V50  1  0.37563100  0.10785358  0.72157850  1
  V  V51  1  0.62706668  0.00760665  0.62347242  1
  V  V52  1  0.50111692  0.75057685  0.74320965  1
  V  V53  1  0.38012819  0.87306002  -0.00731396  1
  V  V54  1  0.00274251  0.88061449  0.87908746  1
  V  V55  1  0.12598680  0.00644490  0.12523162  1
  V  V56  1  0.87607404  0.62653555  0.25708513  1
  V  V57  1  0.63185511  0.51601137  0.12171565  1
  V  V58  1  0.85144087  0.51169584  0.87262388  1
  V  V59  1  0.12385697  0.37449303  0.25117536  1
  V  V60  1  0.87011809  -0.00489329  0.36939118  1
  V  V61  1  0.09905016  0.37693003  0.75349197  1
  V  V62  1  0.25288328  0.74983251  0.00057594  1
  V  V63  1  0.76491788  0.36145618  0.14060515  1
  V  V64  1  0.13329118  0.12777322  0.49315177  1
  V  V65  1  0.64511337  0.37477083  0.70626981  1
  V  V66  1  0.75841863  0.00367682  0.75158149  1
  V  V67  1  0.75375106  0.24256174  -0.00067092  1
  V  V68  1  0.62872088  0.87100705  0.75019270  1
  V  V69  1  0.75957959  0.87818917  0.61996535  1
  V  V70  1  0.50025207  0.61748619  0.11697401  1
  V  V71  1  0.64347497  0.12657178  0.49415269  1
  V  V72  1  0.36560367  0.88131588  0.49623682  1
  Zn  Zn73  1  0.26411821  0.15827822  0.36211785  1
  Zn  Zn74  1  0.75361896  0.50302848  0.25773152  1
  Zn  Zn75  1  0.42531561  0.05930627  0.33265141  1
  Zn  Zn76  1  0.86333062  0.49368285  0.40849765  1
  Zn  Zn77  1  -0.00649171  0.49823914  0.51222735  1
  Zn  Zn78  1  0.25409209  0.11932661  0.85079589  1
  Zn  Zn79  1  0.48357686  0.35617830  0.92101480  1
  Zn  Zn80  1  0.87950909  0.36551359  -0.00728852  1
  Zn  Zn81  1  0.76050087  0.01496026  0.24076220  1
  Zn  Zn82  1  0.18113508  0.19214398  0.18906770  1
  Zn  Zn83  1  0.19102323  0.19369067  0.68463553  1
  Zn  Zn84  1  0.18942558  0.68723376  0.19597328  1
  Zn  Zn85  1  0.19188618  0.68795180  0.69278526  1
  Zn  Zn86  1  0.68178141  0.19206113  0.16691495  1
  Zn  Zn87  1  0.68909748  0.19776606  0.68261771  1
  Zn  Zn88  1  0.68706694  0.69073095  0.18987203  1
  Zn  Zn89  1  0.68604619  0.68176106  0.68642041  1
  Zn  Zn90  1  0.29027909  0.35274337  0.35020293  1
  Zn  Zn91  1  0.31180658  0.29251697  0.81887606  1
  Zn  Zn92  1  0.31384981  0.82054461  0.31699054  1
  Zn  Zn93  1  0.31767775  0.81124988  0.80987563  1
  Zn  Zn94  1  0.79883483  0.17150603  0.31799940  1
  Zn  Zn95  1  0.75177617  0.35791793  0.84739279  1
  Zn  Zn96  1  0.82358875  0.81604568  0.31810915  1
  Zn  Zn97  1  0.82052826  0.82060320  0.81039221  1
  Zn  Zn98  1  0.12025126  0.25977516  0.38438447  1
  Zn  Zn99  1  0.19817738  0.44043399  0.94042624  1
  Zn  Zn100  1  0.17840575  0.94421704  0.44064455  1
  Zn  Zn101  1  0.19240770  0.94826960  0.92470677  1
  Zn  Zn102  1  0.68417392  0.44640763  0.43881931  1
  Zn  Zn103  1  0.63005213  0.37875551  1.00223986  1
  Zn  Zn104  1  0.69169835  0.93627220  0.43179419  1
  Zn  Zn105  1  0.68683295  0.93939463  0.93229284  1
  Zn  Zn106  1  0.30473259  0.05453142  0.02376657  1
  Zn  Zn107  1  0.35150434  0.10777340  0.51195613  1
  Zn  Zn108  1  0.31637432  0.55568041  0.07478048  1
  Zn  Zn109  1  0.31772083  0.54121958  0.56620487  1
  Zn  Zn110  1  0.81089122  0.05778939  0.05795477  1
  Zn  Zn111  1  0.82160330  0.06360723  0.56170657  1
  Zn  Zn112  1  0.83191568  0.53853021  0.07801880  1
  Zn  Zn113  1  0.81173649  0.57166953  0.58000815  1
  Zn  Zn114  1  0.41082862  0.39710237  0.22750838  1
  Zn  Zn115  1  0.46036338  0.43004046  0.76917713  1
  Zn  Zn116  1  0.43907297  0.94211998  0.18738119  1
  Zn  Zn117  1  0.43846030  0.93465478  0.67819468  1
  Zn  Zn118  1  0.93876024  0.44131195  0.18546676  1
  Zn  Zn119  1  0.92857820  0.44832879  0.69151808  1
  Zn  Zn120  1  0.93602804  0.93730336  0.18741564  1
  Zn  Zn121  1  0.94632084  0.94246342  0.68896721  1
  Zn  Zn122  1  0.05934798  0.06639120  0.31630481  1
  Zn  Zn123  1  0.05782829  0.06778076  0.81515145  1
  Zn  Zn124  1  0.06046478  0.55941986  0.32197918  1
  Zn  Zn125  1  0.07620264  0.56533643  0.80985191  1
  Zn  Zn126  1  0.59921905  0.09477059  0.28093826  1
  Zn  Zn127  1  0.55380688  0.05780921  0.80689666  1
  Zn  Zn128  1  0.56315181  0.56831570  0.30740963  1
  Zn  Zn129  1  0.60774508  0.48785539  0.85720253  1
  Zn  Zn130  1  0.44051517  0.22288907  0.32319924  1
  Zn  Zn131  1  0.47228188  0.22065782  0.81567956  1
  Zn  Zn132  1  0.43106181  0.68948093  0.43542430  1
  Zn  Zn133  1  0.44118321  0.55278380  0.93452515  1
  Zn  Zn134  1  0.93761878  0.18248940  0.43709637  1
  Zn  Zn135  1  0.93771059  0.19035138  0.93538977  1
  Zn  Zn136  1  0.94224994  0.68969183  0.44012659  1
  Zn  Zn137  1  0.93853946  0.68757717  0.93507519  1
  Zn  Zn138  1  0.05605189  0.31620004  0.06609937  1
  Zn  Zn139  1  0.06354792  0.31028258  0.56903908  1
  Zn  Zn140  1  0.06268713  0.81619639  0.06716132  1
  Zn  Zn141  1  0.07630098  0.81800957  0.56394041  1
  Zn  Zn142  1  0.54555119  0.21939945  0.01620186  1
  Zn  Zn143  1  0.56854298  0.31921531  0.55202441  1
  Zn  Zn144  1  0.54914097  0.82954024  0.08119350  1
  Zn  Zn145  1  0.56471844  0.81437415  0.56566453  1
  O  O146  1  0.11105422  0.12275790  0.11750660  1
  O  O147  1  0.10677958  0.13465628  0.62421254  1
  O  O148  1  0.11867139  0.62204662  0.12293590  1
  O  O149  1  0.12375417  0.61319690  0.63737920  1
  O  O150  1  0.60786836  0.09906447  0.13790061  1
  O  O151  1  0.63644957  0.11344428  0.61639151  1
  O  O152  1  0.61237675  0.62635058  0.13007740  1
  O  O153  1  0.60684040  0.63502347  0.61441530  1
  O  O154  1  0.26461384  0.44071640  0.42906444  1
  O  O155  1  0.41887184  0.33206073  0.82526192  1
  O  O156  1  0.38833111  0.87509789  0.38873795  1
  O  O157  1  0.38679893  0.86649852  0.88480893  1
  O  O158  1  0.88761241  0.38030770  0.37426543  1
  O  O159  1  0.85376694  0.40491121  0.88570165  1
  O  O160  1  0.88261018  0.89237053  0.37535710  1
  O  O161  1  0.89119715  0.86625704  0.89022073  1
  O  O162  1  0.24452702  0.00049860  0.35916449  1
  O  O163  1  0.26889112  0.02745979  0.91575510  1
  O  O164  1  0.25108876  0.51580035  0.40461166  1
  O  O165  1  0.24585975  0.50484092  0.86021249  1
  O  O166  1  0.76448813  -0.00173841  0.37073773  1
  O  O167  1  0.74693858  0.01313409  0.86319657  1
  O  O168  1  0.75493821  0.51906543  0.37633617  1
  O  O169  1  0.75736090  0.52945349  0.87857979  1
  O  O170  1  0.22965998  0.49360840  0.12397552  1
  O  O171  1  0.23820189  0.50200391  0.63893900  1
  O  O172  1  0.24193108  0.99568881  0.12452834  1
  O  O173  1  0.26703084  0.98377579  0.61661706  1
  O  O174  1  0.73730248  0.52983983  0.13573159  1
  O  O175  1  0.76502523  0.59645136  0.68322883  1
  O  O176  1  0.73527923  1.00190521  0.12202750  1
  O  O177  1  0.74805527  0.99484240  0.63036760  1
  O  O178  1  -0.00734195  0.36273298  0.24631095  1
  O  O179  1  0.00256038  0.38658408  0.76287907  1
  O  O180  1  0.01348908  0.86716168  0.23730541  1
  O  O181  1  0.00474412  0.86869445  0.76170953  1
  O  O182  1  0.52528940  0.37719364  0.23452367  1
  O  O183  1  0.45397646  0.37000563  0.65662626  1
  O  O184  1  0.50343833  0.86994113  0.25768213  1
  O  O185  1  0.50921564  0.87364650  0.75114133  1
  O  O186  1  0.49226990  0.13239220  0.27626247  1
  O  O187  1  0.48442661  0.12556667  0.74902676  1
  O  O188  1  0.49003970  0.63805222  0.24641052  1
  O  O189  1  0.48377829  0.63383348  0.72718859  1
  O  O190  1  1.00647548  0.13755195  0.23868418  1
  O  O191  1  0.98731931  0.11812881  0.73864729  1
  O  O192  1  0.99422212  0.63531402  0.24421132  1
  O  O193  1  1.01605925  0.64472698  0.74800459  1
  O  O194  1  0.39066428  0.18600063  0.07612883  1
  O  O195  1  0.32353253  0.32836650  0.53221895  1
  O  O196  1  0.36474109  0.75742233  0.01705693  1
  O  O197  1  0.37401628  0.76510117  0.50451957  1
  O  O198  1  0.86297531  0.24978329  -0.00041068  1
  O  O199  1  0.86814848  0.24956464  0.50613175  1
  O  O200  1  0.88321849  0.75793740  0.01143081  1
  O  O201  1  0.87086293  0.74431254  0.51681561  1
  O  O202  1  0.11542244  0.23279468  0.50235441  1
  O  O203  1  0.11048869  0.24576734  0.99217068  1
  O  O204  1  0.12348997  0.75943615  0.48061439  1
  O  O205  1  0.13323852  0.74880205  0.99886816  1
  O  O206  1  0.64548779  0.24775722  0.49475840  1
  O  O207  1  0.66201972  0.21874887  1.04854868  1
  O  O208  1  0.64091900  0.74590295  0.50758014  1
  O  O209  1  0.61275026  0.65941308  0.91968635  1
  O  O210  1  0.45248711  0.21620770  0.11090664  1
  O  O211  1  0.48692402  0.25114816  0.60494421  1
  O  O212  1  0.49122624  0.74484574  0.13400935  1
  O  O213  1  0.48864479  0.75187579  0.62941349  1
  O  O214  1  0.99210975  0.24109202  0.13270722  1
  O  O215  1  0.98397625  0.23556431  0.61647548  1
  O  O216  1  1.00061471  0.74218396  0.13281763  1
  O  O217  1  1.00237454  0.75205809  0.63368916  1
  O  O218  1  -0.00053027  0.25962650  0.36492888  1
  O  O219  1  0.01703523  0.24303263  0.87155723  1
  O  O220  1  0.00431890  0.75066368  0.36171807  1
  O  O221  1  0.01305328  0.76017001  0.87236953  1
  O  O222  1  0.53110451  0.26427148  0.38916957  1
  O  O223  1  0.52925174  0.24739268  0.90645841  1
  O  O224  1  0.49642119  0.76022416  0.36486503  1
  O  O225  1  0.50009737  0.76222940  0.84992155  1
  O  O226  1  0.23189385  0.11731144  0.50814332  1
  O  O227  1  0.22534398  0.14295247  1.01647704  1
  O  O228  1  0.25028782  0.56918568  0.46141044  1
  O  O229  1  0.23839122  0.63830367  1.01696334  1
  O  O230  1  0.74455980  0.12411182  0.49998948  1
  O  O231  1  0.76418711  0.12439984  0.97802710  1
  O  O232  1  0.74270555  0.63448847  0.49899133  1
  O  O233  1  0.67217345  0.64123950  0.96013448  1
  O  O234  1  0.24013282  0.36949061  0.01413591  1
  O  O235  1  0.29737175  0.26830419  0.56840687  1
  O  O236  1  0.25845336  0.87120306  0.00766825  1
  O  O237  1  0.26789793  0.89231686  0.49147530  1
  O  O238  1  0.74550526  0.34981281  0.01771166  1
  O  O239  1  0.75666665  0.37223078  0.49217706  1
  O  O240  1  0.76817358  0.87735480  -0.01205412  1
  O  O241  1  0.74809739  0.86995610  0.51206237  1
  O  O242  1  0.10037805  0.48895886  0.23776752  1
  O  O243  1  0.13791479  0.48573474  0.75189206  1
  O  O244  1  0.13064128  0.99752839  0.24141413  1
  O  O245  1  0.12028091  0.98504981  0.76798786  1
  O  O246  1  0.63211484  0.49407370  0.24716502  1
  O  O247  1  0.57852223  0.44630883  0.74776594  1
  O  O248  1  0.62602192  0.98358185  0.23920466  1
  O  O249  1  0.63464007  0.99397148  0.74075456  1
  O  O250  1  0.36186350  -0.00092484  0.25129803  1
  O  O251  1  0.37732731  0.00783712  0.73843082  1
  O  O252  1  0.38048710  0.50734768  0.25555989  1
  O  O253  1  0.37054817  0.51296565  0.74705429  1
  O  O254  1  0.87427856  -0.00169639  0.25819191  1
  O  O255  1  0.86323447  0.01255800  0.74208600  1
  O  O256  1  0.87586559  0.52236792  0.24318085  1
  O  O257  1  0.87413658  0.51730586  0.76427743  1
  O  O258  1  0.10111729  0.38183850  0.35361708  1
  O  O259  1  0.12618301  0.36888425  0.86870913  1
  O  O260  1  0.12958109  0.87096151  0.36112209  1
  O  O261  1  0.12034064  0.86909564  0.87757427  1
  O  O262  1  0.64085226  0.37326763  0.35863829  1
  O  O263  1  0.65318928  0.39174218  0.89165260  1
  O  O264  1  0.61780506  0.87907631  0.36107316  1
  O  O265  1  0.62210255  0.87570313  0.85873925  1
  O  O266  1  0.36331967  0.11807689  0.10867231  1
  O  O267  1  0.37341897  0.12780378  0.62246984  1
  O  O268  1  0.38478868  0.63105621  0.13806020  1
  O  O269  1  0.38210071  0.63904752  0.61027991  1
  O  O270  1  0.88720695  0.11491219  0.12554092  1
  O  O271  1  0.88178133  0.13251297  0.63230336  1
  O  O272  1  0.88480182  0.63780715  0.12977143  1
  O  O273  1  0.89817428  0.64113979  0.64315573  1
  O  O274  1  0.24660588  0.26622262  0.13561207  1
  O  O275  1  0.23782354  0.28435339  0.62508735  1
  O  O276  1  0.25330609  0.76267266  0.12269980  1
  O  O277  1  0.26332074  0.74786965  0.62433848  1
  O  O278  1  0.77763019  0.26103295  0.13923245  1
  O  O279  1  0.76535198  0.24898636  0.60765911  1
  O  O280  1  0.76542771  0.74423840  0.12315664  1
  O  O281  1  0.76272075  0.76022482  0.62098897  1
  O  O282  1  0.23113073  0.26266920  0.37933677  1
  O  O283  1  0.22302684  0.23618481  0.86820011  1
  O  O284  1  0.23936519  0.75299367  0.36832784  1
  O  O285  1  0.24461193  0.75792245  0.89057968  1
  O  O286  1  0.75000785  0.25089967  0.39014727  1
  O  O287  1  0.74045332  0.24178553  0.89263382  1
  O  O288  1  0.76531668  0.74722907  0.39290576  1
  O  O289  1  0.75467443  0.73633606  0.85523100  1
  O  O290  1  0.00026256  0.11955957  0.01232115  1
  O  O291  1  0.00552783  0.11792574  0.50906410  1
  O  O292  1  0.01420711  0.62637555  0.00732841  1
  O  O293  1  0.00437368  0.63041077  0.51846819  1
  O  O294  1  0.50431868  0.10432461  -0.00069605  1
  O  O295  1  0.51679031  0.10747898  0.49940255  1
  O  O296  1  0.49054253  0.62243480  0.01856271  1
  O  O297  1  0.50724991  0.63576968  0.50353701  1
  O  O298  1  0.51414645  0.39218321  0.48555486  1
  O  O299  1  0.52796841  0.33786831  1.02473760  1
  O  O300  1  0.50604032  0.87895716  0.48996703  1
  O  O301  1  0.49701576  0.86264714  0.98771601  1
  O  O302  1  1.00360461  0.37209144  0.48861163  1
  O  O303  1  0.99424825  0.39703873  1.00625212  1
  O  O304  1  1.00685962  0.89228264  0.50928433  1
  O  O305  1  1.00014318  0.88313425  0.99672773  1
  O  O306  1  0.50192529  0.51118721  0.38160424  1
  O  O307  1  0.49231482  0.46607210  0.88189268  1
  O  O308  1  0.50327543  0.99007768  0.38897007  1
  O  O309  1  0.51093336  0.98308808  0.88932597  1
  O  O310  1  0.99188697  0.49250455  0.38588525  1
  O  O311  1  1.01086378  0.50772442  0.88696823  1
  O  O312  1  0.99416967  1.00274944  0.38566336  1
  O  O313  1  1.00303374  0.99261008  0.88995761  1
  O  O314  1  0.00844007  0.00893293  0.12228344  1
  O  O315  1  -0.00865058  0.01496361  0.61271318  1
  O  O316  1  0.00226612  0.51636731  0.11352512  1
  O  O317  1  0.01141365  0.51487766  0.63775749  1
  O  O318  1  0.51379384  -0.02322919  0.10854283  1
  O  O319  1  0.52037826  -0.01374157  0.61027875  1
  O  O320  1  0.51521263  0.51715813  0.13627224  1
  O  O321  1  0.49782773  0.52008677  0.60727399  1
  O  O322  1  0.22427457  0.38335813  0.24596098  1
  O  O323  1  0.26730117  0.38629178  0.75797214  1
  O  O324  1  0.24409601  0.88829614  0.24044887  1
  O  O325  1  0.24074611  0.87871274  0.76281217  1
  O  O326  1  0.76160108  0.38504128  0.24037926  1
  O  O327  1  0.74096558  0.38878361  0.73754218  1
  O  O328  1  0.73902344  0.86779216  0.25664110  1
  O  O329  1  0.74815925  0.88470000  0.74387422  1
  O  O330  1  0.24278235  0.11359374  0.25006582  1
  O  O331  1  0.21462372  0.02101184  0.64938696  1
  O  O332  1  0.26708741  0.62178112  0.24035528  1
  O  O333  1  0.26788370  0.62156303  0.74948765  1
  O  O334  1  0.72055773  0.12347550  0.25086307  1
  O  O335  1  0.75552051  0.12495742  0.75802672  1
  O  O336  1  0.76015897  0.63863037  0.26362259  1
  O  O337  1  0.74997680  0.67987684  0.79604421  1
  O  O338  1  0.36840564  0.13524492  0.40070046  1
  O  O339  1  0.35884650  0.18136619  0.80530360  1
  O  O340  1  0.37377574  0.63237194  0.35912833  1
  O  O341  1  0.38732937  0.63136054  0.85957171  1
  O  O342  1  0.87804814  0.11081729  0.37304038  1
  O  O343  1  0.87227005  0.13311080  0.85625303  1
  O  O344  1  0.87086307  0.62956617  0.36872356  1
  O  O345  1  0.88358733  0.62513357  0.85815722  1
  O  O346  1  0.12109410  0.38322725  0.13247761  1
  O  O347  1  0.11022889  0.38737178  0.64387026  1
  O  O348  1  0.13424177  0.88590690  0.12972219  1
  O  O349  1  0.12842271  0.87506213  0.64671403  1
  O  O350  1  0.65443691  0.38986141  0.13860771  1
  O  O351  1  0.64272571  0.38724769  0.60554175  1
  O  O352  1  0.63142780  0.87641938  0.13842751  1
  O  O353  1  0.64089363  0.88435887  0.63151139  1
  O  O354  1  0.10807169  0.26528242  0.24609564  1
  O  O355  1  0.12245377  0.26988022  0.75486497  1
  O  O356  1  0.12052249  0.75955788  0.25527367  1
  O  O357  1  0.12570416  0.76197471  0.76171561  1
  O  O358  1  0.63572437  0.26506416  0.26008672  1
  O  O359  1  0.61882095  0.27510854  0.72639846  1
  O  O360  1  0.61297537  0.76242006  0.24440128  1
  O  O361  1  0.61542250  0.76349728  0.73117567  1
  O  O362  1  0.38488078  0.31693021  0.30389389  1
  O  O363  1  0.25610864  0.11435732  0.73282275  1
  O  O364  1  0.38095951  0.75812078  0.24072939  1
  O  O365  1  0.37879087  0.74314811  0.73584922  1
  O  O366  1  0.88386503  0.24068860  0.25876073  1
  O  O367  1  0.86850509  0.23820273  0.73359435  1
  O  O368  1  0.88417305  0.74875239  0.23854360  1
  O  O369  1  0.88777686  0.74684899  0.74410794  1
  O  O370  1  0.39487086  0.49752360  0.49927958  1
  O  O371  1  0.35736497  0.50205590  0.98875652  1
  O  O372  1  0.39819965  0.98972221  0.51015568  1
  O  O373  1  0.39702546  0.98057940  1.00907889  1
  O  O374  1  0.87847987  0.50773943  0.52014253  1
  O  O375  1  0.89258833  0.52618928  0.98309805  1
  O  O376  1  0.88700265  1.00243105  0.49010145  1
  O  O377  1  0.88703996  0.98197961  1.01155060  1
  O  O378  1  0.11582762  0.01183695  0.00975825  1
  O  O379  1  0.10904742  0.01468795  0.49711972  1
  O  O380  1  0.11642324  0.51021726  0.00650855  1
  O  O381  1  0.11899616  0.49281994  0.52468062  1
  O  O382  1  0.61853044  -0.01126773  0.01043226  1
  O  O383  1  0.62605614  0.00530829  0.50243713  1
  O  O384  1  0.62732966  0.49834592  0.02492401  1
  O  O385  1  0.61537428  0.52191524  0.49409356  1
  O  O386  1  0.35205448  0.38709737  0.13042469  1
  O  O387  1  0.44671876  0.29095389  0.66115771  1
  O  O388  1  0.36841889  0.86915524  0.12002459  1
  O  O389  1  0.37779473  0.86359788  0.61040302  1
  O  O390  1  0.85592317  0.41181748  0.10679400  1
  O  O391  1  0.88766297  0.36050385  0.63129751  1
  O  O392  1  0.87964854  0.86164020  0.11501031  1
  O  O393  1  0.86976309  0.86860525  0.63656382  1
  O  O394  1  0.12877897  0.12928669  0.38566843  1
  O  O395  1  0.12079213  0.12831544  0.89147367  1
  O  O396  1  0.12286349  0.64083616  0.36747169  1
  O  O397  1  0.12474447  0.64090915  0.88723272  1
  O  O398  1  0.63085234  0.14531204  0.38419980  1
  O  O399  1  0.63555024  0.12127705  0.86910450  1
  O  O400  1  0.63977219  0.63324498  0.37976898  1
  O  O401  1  0.58039498  0.60260245  0.86881371  1
