# generated using pymatgen
data_V73Zn73O256
_symmetry_space_group_name_H-M   'P 1'
_cell_length_a   16.92043108
_cell_length_b   16.94734926
_cell_length_c   16.89168695
_cell_angle_alpha   90.15473173
_cell_angle_beta   90.12118893
_cell_angle_gamma   89.83490897
_symmetry_Int_Tables_number   1
_chemical_formula_structural   V73Zn73O256
_chemical_formula_sum   'V73 Zn73 O256'
_cell_volume   4843.75174608
_cell_formula_units_Z   1
loop_
 _symmetry_equiv_pos_site_id
 _symmetry_equiv_pos_as_xyz
  1  'x, y, z'
loop_
 _atom_site_type_symbol
 _atom_site_label
 _atom_site_symmetry_multiplicity
 _atom_site_fract_x
 _atom_site_fract_y
 _atom_site_fract_z
 _atom_site_occupancy
  V  V0  1  0.00210388  0.38188143  0.36732800  1
  V  V1  1  0.25303904  0.13866062  0.38360554  1
  V  V2  1  0.75289863  0.23944070  -0.00420789  1
  V  V3  1  0.35191128  0.88187296  0.50553184  1
  V  V4  1  0.12834756  0.36804230  0.74841401  1
  V  V5  1  0.01743455  0.73709188  0.25325738  1
  V  V6  1  0.50020027  0.37969243  0.37737702  1
  V  V7  1  0.13054852  0.49332035  0.61713201  1
  V  V8  1  0.63082259  0.37841637  0.25148217  1
  V  V9  1  -0.00598589  0.60927531  0.10708603  1
  V  V10  1  0.49677879  0.63627849  0.13812921  1
  V  V11  1  0.50186392  0.37643789  0.87459188  1
  V  V12  1  0.50142647  0.88173320  0.38750137  1
  V  V13  1  0.75214234  0.37837067  0.12451933  1
  V  V14  1  0.88039877  0.24326580  0.12871248  1
  V  V15  1  0.36758461  0.85921182  0.00236012  1
  V  V16  1  0.12679105  0.24929971  0.37738797  1
  V  V17  1  0.25074726  -0.00721729  0.74314055  1
  V  V18  1  0.74245930  0.74804861  -0.00695668  1
  V  V19  1  0.74332503  0.88449199  0.13975172  1
  V  V20  1  -0.00232711  0.50181799  0.50254650  1
  V  V21  1  0.62522502  0.25016592  0.37225253  1
  V  V22  1  0.50084858  0.85859964  0.87352827  1
  V  V23  1  0.86437326  0.74089321  0.13125995  1
  V  V24  1  0.24291577  0.12880592  0.87678186  1
  V  V25  1  0.51960011  0.50188090  0.51541210  1
  V  V26  1  0.36401691  0.74070247  0.14117587  1
  V  V27  1  0.88333055  0.88334897  0.48280383  1
  V  V28  1  0.75489520  0.61248623  0.86909412  1
  V  V29  1  0.11732422  0.11416711  0.01665720  1
  V  V30  1  0.37474534  0.51758249  0.37926405  1
  V  V31  1  -0.00467175  0.38705908  0.87271121  1
  V  V32  1  0.74276326  0.61380953  0.37386013  1
  V  V33  1  0.36334019  0.25895299  0.62238076  1
  V  V34  1  0.61831578  0.11552785  0.00546697  1
  V  V35  1  0.11767226  -0.00279263  0.62651000  1
  V  V36  1  0.13429151  0.63903253  0.50408641  1
  V  V37  1  0.75201296  0.25001557  0.49993273  1
  V  V38  1  0.76045737  0.11528814  0.35922525  1
  V  V39  1  0.87169870  0.88230301  -0.00134112  1
  V  V40  1  0.61852048  0.63052089  -0.00695790  1
  V  V41  1  0.17236822  0.45092728  0.19413663  1
  V  V42  1  0.86764259  0.37747940  0.50824013  1
  V  V43  1  0.37083048  0.13613152  0.23924715  1
  V  V44  1  0.49311541  0.25564904  0.23695401  1
  V  V45  1  0.62060980  0.11763823  0.49555135  1
  V  V46  1  0.50254064  0.25524108  0.74854845  1
  V  V47  1  0.25014785  0.50237715  0.75124904  1
  V  V48  1  0.25806164  0.26015597  0.01429260  1
  V  V49  1  0.23948907  -0.00324272  0.24670752  1
  V  V50  1  0.62864147  0.24780000  0.87524184  1
  V  V51  1  0.03485739  0.86370954  0.84228583  1
  V  V52  1  0.49846711  0.12626362  0.61864533  1
  V  V53  1  0.88401247  0.22868207  0.62575109  1
  V  V54  1  0.40081336  0.62817750  0.74475407  1
  V  V55  1  0.38250738  0.00680054  0.88385143  1
  V  V56  1  0.36284416  0.37899093  0.50186649  1
  V  V57  1  0.37196912  0.49465223  0.87807547  1
  V  V58  1  0.38204062  0.00997184  0.37956196  1
  V  V59  1  0.88177574  0.38452275  -0.00418157  1
  V  V60  1  0.49574388  0.49214592  0.00152898  1
  V  V61  1  0.62477984  0.63145970  0.52209436  1
  V  V62  1  0.61167919  0.89106052  0.24677104  1
  V  V63  1  -0.00171723  0.23861919  0.24959904  1
  V  V64  1  0.87711446  0.75430055  0.63380626  1
  V  V65  1  0.62611781  0.50117194  0.12784471  1
  V  V66  1  0.25120364  0.63997368  0.37674489  1
  V  V67  1  0.10632483  0.13068210  0.50680034  1
  V  V68  1  0.63551799  0.00826536  0.63725747  1
  V  V69  1  0.62224971  0.86797972  0.74697899  1
  V  V70  1  0.86299551  0.61426391  0.25178347  1
  V  V71  1  0.61717438  0.74836558  0.36417995  1
  V  V72  1  0.14980540  0.61135047  -0.00348394  1
  Zn  Zn73  1  0.49788888  0.10627765  0.12388294  1
  Zn  Zn74  1  -0.00353198  0.62739163  0.63536951  1
  Zn  Zn75  1  0.74807463  0.76202693  0.50247692  1
  Zn  Zn76  1  -0.00599822  0.24017610  0.75247902  1
  Zn  Zn77  1  0.26243811  0.65252806  0.89250364  1
  Zn  Zn78  1  0.85492185  0.48841845  0.37322426  1
  Zn  Zn79  1  0.11965633  0.25178887  0.88602419  1
  Zn  Zn80  1  0.37294102  0.12946418  0.74816651  1
  Zn  Zn81  1  0.36684217  0.75740270  0.62774210  1
  Zn  Zn82  1  0.18530357  0.19083829  0.19017531  1
  Zn  Zn83  1  0.18797256  0.18642718  0.68816130  1
  Zn  Zn84  1  0.19204104  0.64600149  0.17913020  1
  Zn  Zn85  1  0.20237469  0.71714866  0.73190584  1
  Zn  Zn86  1  0.68807634  0.18915835  0.18199582  1
  Zn  Zn87  1  0.67034711  0.23134890  0.66623557  1
  Zn  Zn88  1  0.68096581  0.68934133  0.18850040  1
  Zn  Zn89  1  0.70112865  0.70394094  0.69376862  1
  Zn  Zn90  1  0.31401909  0.33101154  0.18533780  1
  Zn  Zn91  1  0.31269891  0.31273550  0.81693979  1
  Zn  Zn92  1  0.31160863  0.81673286  0.32103860  1
  Zn  Zn93  1  0.32250527  0.81458856  0.80880244  1
  Zn  Zn94  1  0.81263915  0.30968142  0.31451457  1
  Zn  Zn95  1  0.81682985  0.30559357  0.81110099  1
  Zn  Zn96  1  0.80708189  0.80722038  0.31749794  1
  Zn  Zn97  1  0.83046992  0.85385369  0.78990655  1
  Zn  Zn98  1  0.22173857  0.40126753  0.36962000  1
  Zn  Zn99  1  0.18252871  0.44061821  0.94204312  1
  Zn  Zn100  1  0.18903107  0.96146919  0.43676998  1
  Zn  Zn101  1  0.18820433  0.93571641  0.93270348  1
  Zn  Zn102  1  0.67762059  0.43903209  0.66898708  1
  Zn  Zn103  1  0.68551603  0.43424939  0.93651016  1
  Zn  Zn104  1  0.69563231  0.93674221  0.43541086  1
  Zn  Zn105  1  0.67823944  0.92258164  0.94268591  1
  Zn  Zn106  1  0.30487773  0.05987876  0.06145703  1
  Zn  Zn107  1  0.31131321  0.06937379  0.56166963  1
  Zn  Zn108  1  0.32027484  0.52643617  0.08578554  1
  Zn  Zn109  1  0.31324699  0.56009269  0.56537627  1
  Zn  Zn110  1  0.86596203  0.03316333  0.11245375  1
  Zn  Zn111  1  0.81087972  0.05938900  0.55012779  1
  Zn  Zn112  1  0.80938440  0.56091680  0.05552228  1
  Zn  Zn113  1  0.80582754  0.57338723  0.57380308  1
  Zn  Zn114  1  0.43984927  0.44940353  0.19536374  1
  Zn  Zn115  1  0.44063899  0.43945427  0.69089084  1
  Zn  Zn116  1  0.42032143  0.93354688  0.19183946  1
  Zn  Zn117  1  0.43793251  0.94329604  0.68975024  1
  Zn  Zn118  1  0.93568260  0.43681210  0.18927857  1
  Zn  Zn119  1  0.93946167  0.43157167  0.68435917  1
  Zn  Zn120  1  0.97662483  0.89342984  0.14598899  1
  Zn  Zn121  1  0.94475570  0.93364676  0.66801186  1
  Zn  Zn122  1  0.05281401  0.05551999  0.19397095  1
  Zn  Zn123  1  0.06421862  0.03894165  0.82622135  1
  Zn  Zn124  1  0.05800705  0.57965525  0.31908026  1
  Zn  Zn125  1  0.07547383  0.55713405  0.82308310  1
  Zn  Zn126  1  0.55763982  0.06838373  0.30690259  1
  Zn  Zn127  1  0.56181185  0.07453088  0.81248920  1
  Zn  Zn128  1  0.55938125  0.56007043  0.31755121  1
  Zn  Zn129  1  0.60198277  0.57521144  0.77950826  1
  Zn  Zn130  1  0.43702571  0.19637196  0.43617425  1
  Zn  Zn131  1  0.43698805  0.19088408  0.94292870  1
  Zn  Zn132  1  0.44658724  0.70316384  0.47474658  1
  Zn  Zn133  1  0.43914283  0.67992050  0.93586573  1
  Zn  Zn134  1  0.93498908  0.18625248  0.43153516  1
  Zn  Zn135  1  0.94730562  0.19582757  0.94238753  1
  Zn  Zn136  1  0.93505726  0.69482565  0.43925009  1
  Zn  Zn137  1  0.92568650  0.69444802  0.92163388  1
  Zn  Zn138  1  0.07056139  0.31470666  0.06371693  1
  Zn  Zn139  1  0.05605816  0.31290322  0.56153900  1
  Zn  Zn140  1  0.04438723  0.77937752  0.00487092  1
  Zn  Zn141  1  0.05539300  0.81656620  0.56698715  1
  Zn  Zn142  1  0.56581787  0.31257009  0.05831348  1
  Zn  Zn143  1  0.56269037  0.31552963  0.56065761  1
  Zn  Zn144  1  0.55193123  0.93499105  0.05996989  1
  Zn  Zn145  1  0.55484508  0.81519671  0.57282186  1
  O  O146  1  0.12081723  0.12237391  0.12226617  1
  O  O147  1  0.12428871  0.13565811  0.61004682  1
  O  O148  1  0.09676971  0.61342448  0.11123857  1
  O  O149  1  0.11768981  0.60350576  0.61004583  1
  O  O150  1  0.62403404  0.12883655  0.10970211  1
  O  O151  1  0.61886900  0.12597397  0.61624761  1
  O  O152  1  0.61869809  0.61659758  0.11862904  1
  O  O153  1  0.63260670  0.63215547  0.61977681  1
  O  O154  1  0.39011868  0.38699046  0.39037972  1
  O  O155  1  0.38773168  0.38241748  0.87185595  1
  O  O156  1  0.38257576  0.89086449  0.38439540  1
  O  O157  1  0.38517196  0.88609365  0.87672721  1
  O  O158  1  0.88479973  0.37267716  0.38267346  1
  O  O159  1  0.88409183  0.36747578  0.88612843  1
  O  O160  1  0.87277549  0.87123140  0.38025974  1
  O  O161  1  0.85922937  0.86500752  0.90070224  1
  O  O162  1  0.25838145  0.02278620  0.36827725  1
  O  O163  1  0.25673911  0.01221140  0.86409658  1
  O  O164  1  0.27270005  0.50392321  0.38520608  1
  O  O165  1  0.26357310  0.48768509  0.86827239  1
  O  O166  1  0.74034875  0.01762316  0.37045807  1
  O  O167  1  0.80859668  0.01803341  0.78304267  1
  O  O168  1  0.73771543  0.51504500  0.37561472  1
  O  O169  1  0.74612849  0.51343875  0.88468231  1
  O  O170  1  0.22505743  0.52900225  0.14885463  1
  O  O171  1  0.23554129  0.49375513  0.63090318  1
  O  O172  1  0.25787332  1.00244977  0.14663196  1
  O  O173  1  0.24517373  1.01835258  0.63951406  1
  O  O174  1  0.73868963  0.48814549  0.11650744  1
  O  O175  1  0.75523866  0.48301534  0.60631031  1
  O  O176  1  0.76099272  0.98141324  0.13635437  1
  O  O177  1  0.73360435  1.01181790  0.62494004  1
  O  O178  1  -0.00656239  0.37200111  0.26475090  1
  O  O179  1  0.00435500  0.37222759  0.76013635  1
  O  O180  1  0.00789338  0.83705505  0.23666138  1
  O  O181  1  0.00796467  0.86854929  0.74427527  1
  O  O182  1  0.50681921  0.37335209  0.25828058  1
  O  O183  1  0.49698425  0.36251610  0.75883074  1
  O  O184  1  0.50817847  0.87854585  0.26206968  1
  O  O185  1  0.50358707  0.88553832  0.76547794  1
  O  O186  1  0.48998651  0.14018603  0.24577075  1
  O  O187  1  0.49204901  0.14073571  0.74226496  1
  O  O188  1  0.51036840  0.62378366  0.23687906  1
  O  O189  1  0.49897905  0.61600524  0.75313994  1
  O  O190  1  0.99132811  0.14159721  0.25324019  1
  O  O191  1  0.97639164  0.11830613  0.79612708  1
  O  O192  1  0.98043615  0.62283432  0.23681556  1
  O  O193  1  1.03883265  0.64830913  0.75253764  1
  O  O194  1  0.35770336  0.24677802  0.00161416  1
  O  O195  1  0.38285631  0.26868056  0.51020963  1
  O  O196  1  0.37441710  0.75621146  -0.00413565  1
  O  O197  1  0.36189639  0.78148783  0.48862394  1
  O  O198  1  0.87195540  0.25647473  0.00934192  1
  O  O199  1  0.87371630  0.25657972  0.50480555  1
  O  O200  1  0.85286888  0.74705042  0.01153268  1
  O  O201  1  0.86913619  0.75910351  0.50123225  1
  O  O202  1  0.11373116  0.24502794  0.48798902  1
  O  O203  1  0.13527295  0.23674564  1.00366719  1
  O  O204  1  0.12226112  0.73582127  0.51161252  1
  O  O205  1  0.13141743  0.71521212  1.01103099  1
  O  O206  1  0.63258719  0.24379724  0.48825263  1
  O  O207  1  0.63369333  0.24476404  0.99445946  1
  O  O208  1  0.62269972  0.73922030  0.49990060  1
  O  O209  1  0.63210295  0.73309266  1.00876130  1
  O  O210  1  0.50319374  0.25852473  0.13631162  1
  O  O211  1  0.49506354  0.24607214  0.63246636  1
  O  O212  1  0.49085166  0.73479392  0.12446061  1
  O  O213  1  0.47200027  0.74145069  0.58702294  1
  O  O214  1  0.99062638  0.25907417  0.13698134  1
  O  O215  1  0.98824436  0.24862915  0.63020036  1
  O  O216  1  0.97513608  0.72799605  0.13242935  1
  O  O217  1  0.98669421  0.74318803  0.61942959  1
  O  O218  1  0.00024850  0.25904951  0.36439907  1
  O  O219  1  0.00409761  0.26443378  0.86912253  1
  O  O220  1  0.00383071  0.72203782  0.35414444  1
  O  O221  1  -0.00069797  0.77598389  0.89399406  1
  O  O222  1  0.50676091  0.26145223  0.36700531  1
  O  O223  1  0.50263261  0.25673907  0.86999647  1
  O  O224  1  0.51334835  0.76187478  0.38734659  1
  O  O225  1  0.49781023  0.76002757  0.87329747  1
  O  O226  1  0.25172634  0.13637876  0.48654774  1
  O  O227  1  0.24268092  0.13354683  0.99330551  1
  O  O228  1  0.23875079  0.62188326  0.50268349  1
  O  O229  1  0.25343093  0.60496696  1.00293201  1
  O  O230  1  0.74006370  0.13320630  0.48365697  1
  O  O231  1  0.73863262  0.13916686  1.00021533  1
  O  O232  1  0.73389829  0.62676636  0.48885086  1
  O  O233  1  0.73786439  0.62882487  0.99307977  1
  O  O234  1  0.24144975  0.35694001  -0.00729254  1
  O  O235  1  0.26636320  0.38010341  0.48594679  1
  O  O236  1  0.26975242  0.87514978  -0.01134482  1
  O  O237  1  0.25252224  0.89027598  0.49792507  1
  O  O238  1  0.75936190  0.36559284  0.00590128  1
  O  O239  1  0.76655367  0.36002020  0.48832594  1
  O  O240  1  0.74463872  0.86237433  0.01320102  1
  O  O241  1  0.76245824  0.87564997  0.49832939  1
  O  O242  1  0.11166117  0.49728411  0.25919485  1
  O  O243  1  0.12925920  0.48817810  0.74174565  1
  O  O244  1  0.13968020  1.01497041  0.25509776  1
  O  O245  1  0.14012947  1.01130782  0.74033764  1
  O  O246  1  0.61843479  0.48823505  0.24040824  1
  O  O247  1  0.61785471  0.46981153  0.75574329  1
  O  O248  1  0.62293422  0.98880294  0.25515344  1
  O  O249  1  0.62517517  1.01202169  0.73994896  1
  O  O250  1  0.36660431  0.01551952  0.26299195  1
  O  O251  1  0.36514629  0.00953134  0.75918075  1
  O  O252  1  0.39481185  0.51305806  0.28142187  1
  O  O253  1  0.37011395  0.50195144  0.75870502  1
  O  O254  1  0.96439025  0.00226881  0.15655110  1
  O  O255  1  0.87302924  -0.03800495  0.76045758  1
  O  O256  1  0.86966314  0.50846361  0.25672036  1
  O  O257  1  0.84254633  0.46347976  0.75064665  1
  O  O258  1  0.10897434  0.36258303  0.38155575  1
  O  O259  1  0.11233650  0.37753444  0.86449781  1
  O  O260  1  0.10760105  0.88559559  0.37861034  1
  O  O261  1  0.13602335  0.86771012  0.85840610  1
  O  O262  1  0.61751063  0.36514583  0.36460761  1
  O  O263  1  0.61316363  0.36048915  0.88396825  1
  O  O264  1  0.62040707  0.86957600  0.36587921  1
  O  O265  1  0.60780190  0.88242852  0.86532266  1
  O  O266  1  0.37333040  0.12313552  0.13718097  1
  O  O267  1  0.38188450  0.14422765  0.61882224  1
  O  O268  1  0.38949930  0.62727240  0.12548247  1
  O  O269  1  0.37545182  0.61161546  0.64599695  1
  O  O270  1  0.86958234  0.14617225  0.12258027  1
  O  O271  1  0.88180255  0.13080805  0.61035585  1
  O  O272  1  0.86120396  0.62520465  0.13428134  1
  O  O273  1  0.88150318  0.63824619  0.62186423  1
  O  O274  1  0.24957201  0.25568928  0.12073642  1
  O  O275  1  0.26520460  0.25138912  0.62764578  1
  O  O276  1  0.26702832  0.72192491  0.12924185  1
  O  O277  1  0.25528036  0.74852332  0.64020310  1
  O  O278  1  0.75996311  0.26072453  0.11749214  1
  O  O279  1  0.76708040  0.23543704  0.60649671  1
  O  O280  1  0.74876444  0.75006615  0.11970422  1
  O  O281  1  0.76733779  0.74470243  0.61660094  1
  O  O282  1  0.22854995  0.25583797  0.36865878  1
  O  O283  1  0.24714631  0.23866948  0.88116932  1
  O  O284  1  0.25228152  0.73982965  0.37971621  1
  O  O285  1  0.24056078  0.74585952  0.83666610  1
  O  O286  1  0.74037644  0.24420273  0.37795995  1
  O  O287  1  0.74061658  0.25811829  0.88137120  1
  O  O288  1  0.72775005  0.74507146  0.38020468  1
  O  O289  1  0.74233639  0.74082885  0.89383112  1
  O  O290  1  0.01880482  0.12497672  -0.00319964  1
  O  O291  1  0.00847051  0.12475214  0.49384320  1
  O  O292  1  -0.02437197  0.62996224  0.00807325  1
  O  O293  1  0.01266175  0.60773915  0.49001559  1
  O  O294  1  0.51326231  0.13141073  0.00602754  1
  O  O295  1  0.50982868  0.13891376  0.50654155  1
  O  O296  1  0.50906213  0.61685793  0.00794737  1
  O  O297  1  0.51546165  0.61170430  0.49990139  1
  O  O298  1  0.50663671  0.38598277  0.49191699  1
  O  O299  1  0.50333808  0.38446398  0.99384252  1
  O  O300  1  0.50726114  0.88683182  0.48762964  1
  O  O301  1  0.48811557  0.88018484  0.98073668  1
  O  O302  1  0.98831385  0.38087748  0.49130037  1
  O  O303  1  0.99026458  0.37125506  0.98966892  1
  O  O304  1  0.98610203  0.86899789  0.49442913  1
  O  O305  1  0.97292958  0.86422159  1.03021011  1
  O  O306  1  0.49965317  0.49535750  0.39160605  1
  O  O307  1  0.49312167  0.48882361  0.88421031  1
  O  O308  1  0.48952226  0.99948468  0.37013383  1
  O  O309  1  0.48237215  1.01214676  0.87188349  1
  O  O310  1  0.99958495  0.48799434  0.38241776  1
  O  O311  1  0.99519495  0.48711360  0.86602125  1
  O  O312  1  1.04419261  0.91811428  0.36048164  1
  O  O313  1  1.00817239  0.95586316  0.87946626  1
  O  O314  1  0.12461059  -0.11682303  0.10036439  1
  O  O315  1  0.01924983  0.01407177  0.63913368  1
  O  O316  1  -0.02406348  0.51071647  0.11718357  1
  O  O317  1  0.00324379  0.50289062  0.62020315  1
  O  O318  1  0.49182631  -0.00559957  0.13119503  1
  O  O319  1  0.50345455  0.02392509  0.63177696  1
  O  O320  1  0.51017419  0.50665420  0.11819915  1
  O  O321  1  0.50721316  0.48947080  0.61437074  1
  O  O322  1  0.23500918  0.38820297  0.25394055  1
  O  O323  1  0.23353088  0.37845874  0.75620675  1
  O  O324  1  0.25057925  0.89847371  0.26966923  1
  O  O325  1  0.26101352  0.89523997  0.74531419  1
  O  O326  1  0.74113684  0.36781352  0.23906062  1
  O  O327  1  0.78671948  0.40967310  0.75256733  1
  O  O328  1  0.73252021  0.86481501  0.24282253  1
  O  O329  1  0.72082606  0.87795313  0.76300463  1
  O  O330  1  0.25812017  0.13191224  0.26142523  1
  O  O331  1  0.25315519  0.12863037  0.76545397  1
  O  O332  1  0.25083232  0.62187521  0.27945646  1
  O  O333  1  0.24544491  0.60250293  0.75314498  1
  O  O334  1  0.74457745  0.13367760  0.26019565  1
  O  O335  1  0.80929003  0.08395637  0.75037829  1
  O  O336  1  0.74765515  0.62777861  0.26343047  1
  O  O337  1  0.71410828  0.62550479  0.77302898  1
  O  O338  1  0.37173763  0.12959752  0.36831061  1
  O  O339  1  0.36363076  0.11806674  0.88072804  1
  O  O340  1  0.36699573  0.62128965  0.40391108  1
  O  O341  1  0.37486679  0.61324659  0.86257064  1
  O  O342  1  0.85972052  0.12803959  0.37256429  1
  O  O343  1  0.91997235  0.11835726  0.85216471  1
  O  O344  1  0.85392154  0.62389745  0.37181215  1
  O  O345  1  0.85376982  0.62933933  0.86474582  1
  O  O346  1  0.12105050  0.39124388  0.12980811  1
  O  O347  1  0.11218690  0.38152429  0.63978841  1
  O  O348  1  0.17851106  0.84975226  0.13607206  1
  O  O349  1  0.12355265  0.89899332  0.61327603  1
  O  O350  1  0.63246340  0.38085611  0.13025699  1
  O  O351  1  0.64197861  0.33784610  0.63445872  1
  O  O352  1  0.62978654  0.87947074  0.13626157  1
  O  O353  1  0.60934954  0.89964600  0.63670824  1
  O  O354  1  0.10774948  0.24604918  0.26196690  1
  O  O355  1  0.12147658  0.26192044  0.74936969  1
  O  O356  1  0.11381708  0.71488980  0.23730711  1
  O  O357  1  0.08372517  0.71348600  0.75432997  1
  O  O358  1  0.61674998  0.25996392  0.25355587  1
  O  O359  1  0.61490806  0.23670181  0.76553529  1
  O  O360  1  0.61792805  0.75642611  0.26179574  1
  O  O361  1  0.61245074  0.77059319  0.72952264  1
  O  O362  1  0.38123527  0.25035944  0.24580722  1
  O  O363  1  0.38072689  0.25512138  0.73682989  1
  O  O364  1  0.37244296  0.75994143  0.23891990  1
  O  O365  1  0.38563247  0.73126698  0.74971195  1
  O  O366  1  0.88273372  0.25928996  0.23694802  1
  O  O367  1  0.86943768  0.24596285  0.73036311  1
  O  O368  1  0.86501590  0.73372772  0.24380943  1
  O  O369  1  0.86862950  0.76239134  0.73568908  1
  O  O370  1  0.38832576  0.49065043  0.50214968  1
  O  O371  1  0.38812265  0.50941835  0.98952653  1
  O  O372  1  0.36895620  1.00085841  0.48702439  1
  O  O373  1  0.36857194  0.99366628  0.98667884  1
  O  O374  1  0.88137407  0.48839901  0.49588870  1
  O  O375  1  0.86880217  0.48201100  0.99740463  1
  O  O376  1  0.87600893  0.98443057  0.50117183  1
  O  O377  1  0.86020293  0.98072538  1.00752255  1
  O  O378  1  0.13832638  0.01572487  -0.00018722  1
  O  O379  1  0.13132952  0.02301644  0.51357286  1
  O  O380  1  0.11704126  0.51157030  -0.00116471  1
  O  O381  1  0.11452082  0.48268898  0.51549746  1
  O  O382  1  0.62727738  0.01058678  -0.00422423  1
  O  O383  1  0.62708733  0.01514685  0.50741376  1
  O  O384  1  0.61666130  0.50591026  0.00939956  1
  O  O385  1  0.62075921  0.51392318  0.50711938  1
  O  O386  1  0.35730626  0.41853120  0.12760280  1
  O  O387  1  0.37697547  0.36964512  0.61495545  1
  O  O388  1  0.37686847  0.85465346  0.11150175  1
  O  O389  1  0.37941743  0.88846528  0.60687502  1
  O  O390  1  0.86949672  0.36965623  0.11413641  1
  O  O391  1  0.87939414  0.36438061  0.60928429  1
  O  O392  1  0.85284979  0.85729014  0.12386525  1
  O  O393  1  0.88005930  0.86127095  0.61000086  1
  O  O394  1  0.13275554  0.13971077  0.38881798  1
  O  O395  1  0.13636128  0.12237579  0.88003467  1
  O  O396  1  0.13977567  0.61729572  0.39504757  1
  O  O397  1  0.14253727  0.61618117  0.89021583  1
  O  O398  1  0.62173956  0.13743620  0.37730804  1
  O  O399  1  0.61986032  0.13709509  0.89141873  1
  O  O400  1  0.62651118  0.63659377  0.37434762  1
  O  O401  1  0.61996222  0.62047803  0.89310331  1
