# generated using pymatgen
data_V73Zn73O256
_symmetry_space_group_name_H-M   'P 1'
_cell_length_a   16.83154772
_cell_length_b   16.84164736
_cell_length_c   16.83635640
_cell_angle_alpha   90.06314624
_cell_angle_beta   89.76083229
_cell_angle_gamma   89.94421840
_symmetry_Int_Tables_number   1
_chemical_formula_structural   V73Zn73O256
_chemical_formula_sum   'V73 Zn73 O256'
_cell_volume   4772.57187562
_cell_formula_units_Z   1
loop_
 _symmetry_equiv_pos_site_id
 _symmetry_equiv_pos_as_xyz
  1  'x, y, z'
loop_
 _atom_site_type_symbol
 _atom_site_label
 _atom_site_symmetry_multiplicity
 _atom_site_fract_x
 _atom_site_fract_y
 _atom_site_fract_z
 _atom_site_occupancy
  V  V0  1  0.26122021  0.12430449  0.85667487  1
  V  V1  1  0.24708487  -0.03621092  0.24676789  1
  V  V2  1  0.63846752  0.38396265  0.24300848  1
  V  V3  1  -0.01083710  0.25638781  0.23262467  1
  V  V4  1  0.13056734  0.25889925  0.85654339  1
  V  V5  1  0.00084331  0.14981426  0.62344824  1
  V  V6  1  0.49606171  0.24091387  0.75311997  1
  V  V7  1  0.61218479  0.12483399  0.50592791  1
  V  V8  1  0.89153344  -0.00238912  0.38506312  1
  V  V9  1  0.24874221  0.61842125  0.39180343  1
  V  V10  1  0.62962091  0.62401568  0.00654349  1
  V  V11  1  0.10348238  0.62416073  0.50249175  1
  V  V12  1  0.87406024  0.12950763  0.23369645  1
  V  V13  1  0.35971967  0.62114385  0.25022943  1
  V  V14  1  0.61862571  0.00552635  0.62542950  1
  V  V15  1  0.86764047  0.77054788  0.62048059  1
  V  V16  1  0.75270204  0.26930336  0.50720155  1
  V  V17  1  0.63174007  0.87422608  0.74621527  1
  V  V18  1  0.12551068  0.74786677  0.88265650  1
  V  V19  1  0.11874841  -0.00505346  0.62797155  1
  V  V20  1  0.26859444  -0.01520596  0.74751539  1
  V  V21  1  0.50706890  0.49927355  0.01204379  1
  V  V22  1  0.11821091  0.49428074  0.62388266  1
  V  V23  1  0.87528862  0.36299077  0.01480231  1
  V  V24  1  0.50296533  0.75073249  0.27454938  1
  V  V25  1  0.43875477  0.43917880  0.42876303  1
  V  V26  1  0.60937118  0.52291247  0.62479610  1
  V  V27  1  0.00103605  0.76350623  0.26367173  1
  V  V28  1  0.76162787  0.62568952  0.88013604  1
  V  V29  1  0.12442503  -0.00850484  0.11550922  1
  V  V30  1  0.85817200  0.86829370  0.00723528  1
  V  V31  1  0.24502741  0.62079146  0.88586222  1
  V  V32  1  0.14061575  0.37591955  0.24735105  1
  V  V33  1  0.62483551  0.87281430  0.28260653  1
  V  V34  1  0.50284592  0.63134472  0.13044842  1
  V  V35  1  0.74943620  0.50271033  0.74848531  1
  V  V36  1  0.00848737  0.74863754  0.74498949  1
  V  V37  1  0.36718652  0.12345230  0.24825840  1
  V  V38  1  0.24873585  0.86174027  0.60695788  1
  V  V39  1  0.51311696  0.37330412  0.87919500  1
  V  V40  1  0.62790044  0.13165314  -0.00269316  1
  V  V41  1  0.87961553  0.62200744  0.73300514  1
  V  V42  1  0.37580984  0.49423439  0.88002084  1
  V  V43  1  -0.01832485  0.37912779  0.37589199  1
  V  V44  1  0.26146627  0.37650592  0.61286463  1
  V  V45  1  0.75382271  0.11821228  0.38262002  1
  V  V46  1  0.48929635  -0.00179101  -0.00425008  1
  V  V47  1  0.37064061  0.36968044  0.02254012  1
  V  V48  1  -0.00276209  0.37373790  0.86530173  1
  V  V49  1  0.86990553  0.62841519  0.25751162  1
  V  V50  1  0.38015105  0.62056366  0.75021648  1
  V  V51  1  0.38259302  -0.01402058  0.38452860  1
  V  V52  1  0.24664884  0.23948568  0.49553241  1
  V  V53  1  -0.00183073  0.50262031  -0.00135181  1
  V  V54  1  0.50260655  0.74312393  0.74745437  1
  V  V55  1  0.49876608  0.25176486  0.24500897  1
  V  V56  1  0.61976566  0.24915750  0.37052010  1
  V  V57  1  0.00382637  0.88120336  0.88014968  1
  V  V58  1  0.87940430  0.15006905  0.74724735  1
  V  V59  1  0.50297421  0.11611445  0.12442963  1
  V  V60  1  0.48743072  0.88303103  0.86716065  1
  V  V61  1  0.37675514  0.74009008  0.61279010  1
  V  V62  1  -0.00209768  0.63399665  0.12267447  1
  V  V63  1  0.24761345  0.49060947  0.75146633  1
  V  V64  1  0.24718565  0.24184841  0.01137166  1
  V  V65  1  0.62920165  0.75201574  0.88504473  1
  V  V66  1  0.75897581  -0.00471134  0.74725028  1
  V  V67  1  0.38098137  0.23424932  0.62162536  1
  V  V68  1  0.13587575  0.50081707  0.12591675  1
  V  V69  1  0.62559622  0.37265024  0.73886175  1
  V  V70  1  0.74407632  -0.00591486  0.24289549  1
  V  V71  1  0.74295530  0.14297185  0.87010386  1
  V  V72  1  0.26179732  0.76667756  -0.00086298  1
  Zn  Zn73  1  -0.01364442  0.03064128  0.01974103  1
  Zn  Zn74  1  0.74486725  0.52137032  0.22460948  1
  Zn  Zn75  1  0.87375788  0.00554117  0.87857138  1
  Zn  Zn76  1  0.06512737  0.06939121  0.45477732  1
  Zn  Zn77  1  -0.01289916  0.48777355  0.49936421  1
  Zn  Zn78  1  0.24241230  0.11468462  0.37672075  1
  Zn  Zn79  1  0.12278040  0.75505353  0.37497027  1
  Zn  Zn80  1  0.35758745  0.77240803  0.14029369  1
  Zn  Zn81  1  0.11527715  0.24345362  0.37569741  1
  Zn  Zn82  1  0.17626569  0.18479845  0.18512050  1
  Zn  Zn83  1  0.18588092  0.18316225  0.68485703  1
  Zn  Zn84  1  0.17799750  0.69695535  0.17928961  1
  Zn  Zn85  1  0.18941722  0.67684464  0.68673773  1
  Zn  Zn86  1  0.69082809  0.18683309  0.18023361  1
  Zn  Zn87  1  0.69057505  0.19338750  0.68637352  1
  Zn  Zn88  1  0.68354033  0.70395099  0.18853597  1
  Zn  Zn89  1  0.69549992  0.68992787  0.68423039  1
  Zn  Zn90  1  0.31784466  0.31273290  0.31632719  1
  Zn  Zn91  1  0.31783026  0.31101382  0.81216782  1
  Zn  Zn92  1  0.31792001  0.79644947  0.33521866  1
  Zn  Zn93  1  0.31040838  0.80618304  0.80782218  1
  Zn  Zn94  1  0.80769736  0.30980074  0.31456817  1
  Zn  Zn95  1  0.77089482  0.35751265  0.87084637  1
  Zn  Zn96  1  0.82480724  0.81531218  0.31702943  1
  Zn  Zn97  1  0.81997439  0.80939824  0.81761779  1
  Zn  Zn98  1  0.18330132  0.43789425  0.43010793  1
  Zn  Zn99  1  0.18629583  0.43216847  0.94461832  1
  Zn  Zn100  1  0.19695654  0.94349143  0.44239027  1
  Zn  Zn101  1  0.18753689  0.94328153  0.93087832  1
  Zn  Zn102  1  0.62148485  0.42165368  0.45094561  1
  Zn  Zn103  1  0.69976465  0.42092380  1.06107572  1
  Zn  Zn104  1  0.54175214  0.93868288  0.45556264  1
  Zn  Zn105  1  0.68127509  0.94798984  0.93349431  1
  Zn  Zn106  1  0.30758796  0.06031306  0.06465407  1
  Zn  Zn107  1  0.31210688  0.05701643  0.56636162  1
  Zn  Zn108  1  0.32053950  0.56834686  0.06981760  1
  Zn  Zn109  1  0.31976214  0.55545959  0.55909967  1
  Zn  Zn110  1  0.80417276  0.05444363  0.05586894  1
  Zn  Zn111  1  0.81618429  0.06558427  0.56632381  1
  Zn  Zn112  1  0.82174874  0.56545906  0.05942528  1
  Zn  Zn113  1  0.76365849  0.47897071  0.53253540  1
  Zn  Zn114  1  0.44123193  0.44333378  0.20373951  1
  Zn  Zn115  1  0.43961700  0.43476871  0.68673454  1
  Zn  Zn116  1  0.43766380  0.93685422  0.19479033  1
  Zn  Zn117  1  0.44892056  0.92251059  0.64371404  1
  Zn  Zn118  1  0.93378179  0.44712925  0.18791574  1
  Zn  Zn119  1  0.93013850  0.43176742  0.69047963  1
  Zn  Zn120  1  0.93292331  0.93690915  0.18446866  1
  Zn  Zn121  1  0.94405371  0.93618608  0.69759221  1
  Zn  Zn122  1  0.07221740  0.06545853  0.27962952  1
  Zn  Zn123  1  0.04953856  0.08924218  0.84114194  1
  Zn  Zn124  1  0.05983770  0.56222787  0.31023606  1
  Zn  Zn125  1  0.06305031  0.56162480  0.81268471  1
  Zn  Zn126  1  0.56319474  0.06363438  0.31300106  1
  Zn  Zn127  1  0.56474804  0.06015508  0.81304807  1
  Zn  Zn128  1  0.55920801  0.55918429  0.32219162  1
  Zn  Zn129  1  0.56754711  0.55863838  0.82185491  1
  Zn  Zn130  1  0.42984871  0.18530075  0.43292381  1
  Zn  Zn131  1  0.43430374  0.18899447  0.93880296  1
  Zn  Zn132  1  0.44609751  0.63903623  0.44296632  1
  Zn  Zn133  1  0.44160572  0.68728481  0.93553927  1
  Zn  Zn134  1  0.93356376  0.19894685  0.43526855  1
  Zn  Zn135  1  0.93572678  0.19548366  0.93378536  1
  Zn  Zn136  1  0.89457185  0.65731611  0.46547953  1
  Zn  Zn137  1  0.93947931  0.69309323  0.94350956  1
  Zn  Zn138  1  0.06908467  0.31727262  0.05712689  1
  Zn  Zn139  1  0.06816541  0.31917615  0.56262117  1
  Zn  Zn140  1  0.06718974  0.81956479  0.06016678  1
  Zn  Zn141  1  0.05781797  0.81530421  0.56026693  1
  Zn  Zn142  1  0.56064946  0.30619807  0.06596826  1
  Zn  Zn143  1  0.55639117  0.31152323  0.56206342  1
  Zn  Zn144  1  0.52224943  0.83148106  0.07738112  1
  Zn  Zn145  1  0.57357895  0.80464392  0.56155635  1
  O  O146  1  0.11974376  0.08945911  0.17044319  1
  O  O147  1  0.10524052  0.11885309  0.63129912  1
  O  O148  1  0.11227237  0.60859085  0.13441722  1
  O  O149  1  0.13182127  0.60856775  0.61098850  1
  O  O150  1  0.61823466  0.12201391  0.10844353  1
  O  O151  1  0.63102236  0.12082887  0.61400070  1
  O  O152  1  0.62333579  0.63308507  0.11329795  1
  O  O153  1  0.61717457  0.62337509  0.63538238  1
  O  O154  1  0.36833794  0.37537205  0.39543926  1
  O  O155  1  0.38350433  0.38606476  0.87901328  1
  O  O156  1  0.37780469  0.88520838  0.37610089  1
  O  O157  1  0.38975385  0.86905735  0.86672542  1
  O  O158  1  0.88071971  0.37606801  0.37244559  1
  O  O159  1  0.89441142  0.36928065  0.88371221  1
  O  O160  1  0.88052426  0.89868615  0.37272747  1
  O  O161  1  0.88845184  0.87759650  0.88028501  1
  O  O162  1  0.26231370  -0.00442906  0.36152167  1
  O  O163  1  0.24798080  0.01212432  0.85815460  1
  O  O164  1  0.24279303  0.51797129  0.37086432  1
  O  O165  1  0.25520536  0.50043218  0.87228898  1
  O  O166  1  0.75879097  0.01556487  0.36919257  1
  O  O167  1  0.74828848  0.01522738  0.85749347  1
  O  O168  1  0.74471626  0.57820893  0.40760677  1
  O  O169  1  0.74297419  0.52239944  0.85974817  1
  O  O170  1  0.23546921  0.50730729  0.11873509  1
  O  O171  1  0.25292323  0.48938171  0.62978376  1
  O  O172  1  0.24743989  0.99776176  0.14339971  1
  O  O173  1  0.25564249  0.97656922  0.62746073  1
  O  O174  1  0.74320876  0.50904107  0.11345484  1
  O  O175  1  0.73420965  0.50508214  0.64515874  1
  O  O176  1  0.74740968  1.00018808  0.14394829  1
  O  O177  1  0.74300507  1.01030191  0.64093339  1
  O  O178  1  -0.00765044  0.36633549  0.25466437  1
  O  O179  1  -0.00107818  0.38497529  0.76590191  1
  O  O180  1  -0.00774456  0.86303244  0.24736450  1
  O  O181  1  -0.00437719  0.85385712  0.76473313  1
  O  O182  1  0.50633160  0.35452865  0.23937683  1
  O  O183  1  0.51083701  0.37395537  0.75884174  1
  O  O184  1  0.51673731  0.86435914  0.25399355  1
  O  O185  1  0.50934244  0.86691569  0.75471937  1
  O  O186  1  0.49725797  0.12517973  0.24095830  1
  O  O187  1  0.50756510  0.14288253  0.75664442  1
  O  O188  1  0.50089414  0.63498569  0.25011247  1
  O  O189  1  0.49131180  0.63120625  0.76544420  1
  O  O190  1  0.98041573  0.14056658  0.24769942  1
  O  O191  1  0.98611703  0.12850642  0.74620114  1
  O  O192  1  0.99065784  0.62991326  0.23892727  1
  O  O193  1  0.98648089  0.63359675  0.76068371  1
  O  O194  1  0.37028544  0.26377780  0.00276384  1
  O  O195  1  0.36837405  0.24659136  0.51320757  1
  O  O196  1  0.36366912  0.74771474  -0.00722558  1
  O  O197  1  0.39197216  0.71838666  0.51681973  1
  O  O198  1  0.88173868  0.26217812  0.00584244  1
  O  O199  1  0.85105329  0.25749341  0.49006207  1
  O  O200  1  0.87236429  0.76692483  -0.00348468  1
  O  O201  1  0.89304997  0.75295760  0.52235606  1
  O  O202  1  0.14305667  0.25363226  0.50023083  1
  O  O203  1  0.14472868  0.25896748  0.99122697  1
  O  O204  1  0.10902722  0.72629420  0.50425264  1
  O  O205  1  0.13879513  0.75117470  0.98853932  1
  O  O206  1  0.62820739  0.24156821  0.49284961  1
  O  O207  1  0.60998023  0.23192032  0.99274183  1
  O  O208  1  0.65545076  0.75049120  0.49747879  1
  O  O209  1  0.61547494  0.74194712  0.98798836  1
  O  O210  1  0.50249490  0.23278709  0.13704111  1
  O  O211  1  0.48883200  0.25298343  0.63328571  1
  O  O212  1  0.51148667  0.73570891  0.13971071  1
  O  O213  1  0.49005517  0.74898052  0.63853956  1
  O  O214  1  1.00092542  0.25664078  0.13388426  1
  O  O215  1  1.00699294  0.24878173  0.63102345  1
  O  O216  1  1.01391239  0.73573005  0.12194876  1
  O  O217  1  0.99938747  0.75595523  0.64218500  1
  O  O218  1  -0.00254317  0.26155500  0.36129891  1
  O  O219  1  0.01875454  0.26347491  0.87523353  1
  O  O220  1  0.00049511  0.75044655  0.36403185  1
  O  O221  1  0.01006778  0.75352528  0.87194153  1
  O  O222  1  0.51024431  0.23612262  0.36031761  1
  O  O223  1  0.48827743  0.26090932  0.86106765  1
  O  O224  1  0.49369390  0.74670843  0.37151861  1
  O  O225  1  0.50821767  0.75985486  0.86666119  1
  O  O226  1  0.25201973  0.13650185  0.50328481  1
  O  O227  1  0.25986927  0.13798272  0.98896261  1
  O  O228  1  0.24534267  0.61947280  0.49455397  1
  O  O229  1  0.25783643  0.62640963  0.98787389  1
  O  O230  1  0.74397520  0.13203196  0.49081300  1
  O  O231  1  0.73767018  0.12073835  0.98498927  1
  O  O232  1  0.79045134  0.58657848  0.48440526  1
  O  O233  1  0.74479621  0.62395560  0.98684673  1
  O  O234  1  0.26622924  0.36760375  0.00153141  1
  O  O235  1  0.25044536  0.36966648  0.50991366  1
  O  O236  1  0.25569187  0.86551378  -0.01524461  1
  O  O237  1  0.25295785  0.86246962  0.50763575  1
  O  O238  1  0.77277770  0.38355163  -0.01754261  1
  O  O239  1  0.72973575  0.37100408  0.48856572  1
  O  O240  1  0.75892482  0.88369313  -0.01514824  1
  O  O241  1  0.71448502  0.79814449  0.46669488  1
  O  O242  1  0.12081885  0.48596896  0.24067385  1
  O  O243  1  0.13821331  0.51182595  0.73556880  1
  O  O244  1  0.14674474  0.96892129  0.26391730  1
  O  O245  1  0.14872079  1.00418744  0.72583946  1
  O  O246  1  0.63481820  0.48941000  0.26175395  1
  O  O247  1  0.62414363  0.49443807  0.74365868  1
  O  O248  1  0.63446381  0.98743360  0.25854056  1
  O  O249  1  0.63705698  0.99606219  0.74489797  1
  O  O250  1  0.36873862  0.00643558  0.25757436  1
  O  O251  1  0.36696565  -0.01226738  0.73207569  1
  O  O252  1  0.36793682  0.52135577  0.24061758  1
  O  O253  1  0.37138168  0.50262882  0.76002829  1
  O  O254  1  0.86480398  0.01318405  0.25731511  1
  O  O255  1  0.86460160  0.00369313  0.75159374  1
  O  O256  1  0.86384032  0.52011589  0.24355514  1
  O  O257  1  0.86744362  0.51342186  0.74496120  1
  O  O258  1  0.11894354  0.37074528  0.35741846  1
  O  O259  1  0.12102967  0.36722267  0.87615867  1
  O  O260  1  0.10382229  0.87233304  0.41307291  1
  O  O261  1  0.11487914  0.86386307  0.87796832  1
  O  O262  1  0.62251833  0.36003695  0.35383908  1
  O  O263  1  0.61327515  0.37609843  0.87090513  1
  O  O264  1  0.61655417  0.88074219  0.38082593  1
  O  O265  1  0.62069946  0.86997454  0.86179635  1
  O  O266  1  0.38538176  0.11550143  0.14033655  1
  O  O267  1  0.37247622  0.13551179  0.62802356  1
  O  O268  1  0.38501148  0.63927607  0.13561003  1
  O  O269  1  0.36653877  0.62885790  0.64104407  1
  O  O270  1  0.86348649  0.12099081  0.13496457  1
  O  O271  1  0.88818361  0.12481347  0.63697957  1
  O  O272  1  0.89247611  0.62894829  0.12659970  1
  O  O273  1  0.88028008  0.63269883  0.63531244  1
  O  O274  1  0.24519581  0.23930033  0.11148407  1
  O  O275  1  0.25985990  0.25859092  0.62004360  1
  O  O276  1  0.24848881  0.74969202  0.10387018  1
  O  O277  1  0.25967391  0.75164959  0.62941720  1
  O  O278  1  0.73371632  0.26235747  0.11146040  1
  O  O279  1  0.74236327  0.25602105  0.60686273  1
  O  O280  1  0.69243077  0.80614054  0.12095465  1
  O  O281  1  0.76696083  0.75624205  0.62869396  1
  O  O282  1  0.25448398  0.24568677  0.39005725  1
  O  O283  1  0.24734221  0.24698837  0.87574885  1
  O  O284  1  0.23545521  0.72975069  0.37357557  1
  O  O285  1  0.24529119  0.74053641  0.87962086  1
  O  O286  1  0.73647640  0.23945200  0.37769100  1
  O  O287  1  0.74939353  0.24153317  0.87019019  1
  O  O288  1  0.75868937  0.75988653  0.41384433  1
  O  O289  1  0.73882386  0.73732389  0.86399205  1
  O  O290  1  0.00645034  0.11131685  -0.05152917  1
  O  O291  1  -0.00727092  0.13800654  0.51662815  1
  O  O292  1  -0.00037975  0.61386876  0.00678276  1
  O  O293  1  0.00053976  0.60567209  0.49854346  1
  O  O294  1  0.50178582  0.11839424  0.00265761  1
  O  O295  1  0.51365808  0.13246884  0.49823463  1
  O  O296  1  0.50642998  0.61906264  0.00823216  1
  O  O297  1  0.54728391  0.59455481  0.42790979  1
  O  O298  1  0.51245756  0.38493800  0.48441115  1
  O  O299  1  0.49147291  0.37886611  0.99949634  1
  O  O300  1  0.49761713  0.88372402  0.54061548  1
  O  O301  1  0.51037493  0.88953020  0.97852995  1
  O  O302  1  1.00620741  0.36972711  0.48012099  1
  O  O303  1  0.99276513  0.38310395  0.99795712  1
  O  O304  1  1.04119166  0.88148717  0.46390761  1
  O  O305  1  0.99516183  0.87767029  0.98650407  1
  O  O306  1  0.48144412  0.47125111  0.34194571  1
  O  O307  1  0.49362532  0.49369342  0.88888751  1
  O  O308  1  0.48980721  1.00154586  0.37496199  1
  O  O309  1  0.49523310  0.99058082  0.87316411  1
  O  O310  1  0.99891849  0.48369923  0.37248985  1
  O  O311  1  1.01650586  0.48858671  0.89006966  1
  O  O312  1  0.99276806  1.02212960  0.36863542  1
  O  O313  1  1.00626385  0.98049190  0.85484602  1
  O  O314  1  0.01368834  -0.00668523  0.12237218  1
  O  O315  1  0.01673405  -0.00983701  0.62871806  1
  O  O316  1  0.00567423  0.50867125  0.11554782  1
  O  O317  1  0.01726832  0.48804351  0.62875965  1
  O  O318  1  0.50280315  0.00481514  0.10825433  1
  O  O319  1  0.52084750  0.01313798  0.64557339  1
  O  O320  1  0.49501767  0.51447664  0.12153757  1
  O  O321  1  0.50976396  0.50360221  0.62791105  1
  O  O322  1  0.23986920  0.36419189  0.24967032  1
  O  O323  1  0.25793900  0.38625007  0.74195007  1
  O  O324  1  0.27009410  0.86653404  0.24669644  1
  O  O325  1  0.24892980  0.88208282  0.74980147  1
  O  O326  1  0.73872766  0.37157652  0.24508931  1
  O  O327  1  0.73089152  0.38580725  0.76536169  1
  O  O328  1  0.73967305  0.88450051  0.26627302  1
  O  O329  1  0.74738269  0.88794758  0.75834716  1
  O  O330  1  0.26578057  0.13486136  0.24987979  1
  O  O331  1  0.25735024  0.11764464  0.75098430  1
  O  O332  1  0.26013682  0.63722157  0.24173970  1
  O  O333  1  0.26129829  0.61382607  0.76201729  1
  O  O334  1  0.75084197  0.11735758  0.25758459  1
  O  O335  1  0.75677261  0.12447732  0.75401480  1
  O  O336  1  0.76367760  0.64166568  0.23877389  1
  O  O337  1  0.76497477  0.62494952  0.75538090  1
  O  O338  1  0.37224212  0.11349880  0.36207190  1
  O  O339  1  0.36101354  0.13352398  0.86968421  1
  O  O340  1  0.35834273  0.63153976  0.36210572  1
  O  O341  1  0.37069563  0.61041042  0.87181773  1
  O  O342  1  0.86167038  0.12809222  0.36633549  1
  O  O343  1  0.86186105  0.12854954  0.86083332  1
  O  O344  1  0.88058567  0.62778423  0.35716628  1
  O  O345  1  0.86355982  0.63268447  0.87479222  1
  O  O346  1  0.12159609  0.38494717  0.13791073  1
  O  O347  1  0.14281183  0.38765572  0.62435493  1
  O  O348  1  0.13108749  0.88887464  0.12321891  1
  O  O349  1  0.13909730  0.87915053  0.61976399  1
  O  O350  1  0.62092922  0.37651269  0.13576249  1
  O  O351  1  0.62089405  0.38277140  0.63743897  1
  O  O352  1  0.63489543  0.85717924  0.13667428  1
  O  O353  1  0.62952977  0.88923571  0.63806471  1
  O  O354  1  0.10909705  0.26148246  0.24594663  1
  O  O355  1  0.13626596  0.26098963  0.75636825  1
  O  O356  1  0.10752588  0.74673788  0.25260141  1
  O  O357  1  0.11409692  0.73717364  0.75713584  1
  O  O358  1  0.61678999  0.24799116  0.25329375  1
  O  O359  1  0.61215108  0.26415506  0.74148838  1
  O  O360  1  0.61923138  0.76063169  0.26893931  1
  O  O361  1  0.61990939  0.75586148  0.75389077  1
  O  O362  1  0.39043329  0.23686858  0.25880556  1
  O  O363  1  0.38703687  0.25657526  0.73625697  1
  O  O364  1  0.39137843  0.74448539  0.25272845  1
  O  O365  1  0.38366453  0.73696186  0.74822014  1
  O  O366  1  0.87579891  0.24131725  0.24590083  1
  O  O367  1  0.87128945  0.24589984  0.74625409  1
  O  O368  1  0.88643973  0.74300817  0.24956393  1
  O  O369  1  0.88405141  0.74081459  0.74290730  1
  O  O370  1  0.39904180  0.52029305  0.48422293  1
  O  O371  1  0.38233867  0.49026820  0.99886571  1
  O  O372  1  0.37003261  1.00454632  0.48367499  1
  O  O373  1  0.38917477  1.00709026  0.99698518  1
  O  O374  1  0.87874471  0.45731225  0.54508432  1
  O  O375  1  0.89431774  0.49372106  0.99877399  1
  O  O376  1  0.87596658  1.01280068  0.48419811  1
  O  O377  1  0.87794064  0.99284678  0.99357945  1
  O  O378  1  0.13834873  0.00830098  0.01502310  1
  O  O379  1  0.14076962  0.01095904  0.51928744  1
  O  O380  1  0.11458072  0.48795930  0.01695996  1
  O  O381  1  0.12326164  0.50159762  0.51134763  1
  O  O382  1  0.60641731  0.01939193  -0.01604663  1
  O  O383  1  0.62258867  0.01244142  0.51427623  1
  O  O384  1  0.61223444  0.50724278  0.00041121  1
  O  O385  1  0.64215545  0.50372842  0.52507205  1
  O  O386  1  0.37980547  0.37979603  0.12074915  1
  O  O387  1  0.36585477  0.37185457  0.62245946  1
  O  O388  1  0.41612222  0.86383822  0.11404968  1
  O  O389  1  0.36226424  0.84943135  0.62560255  1
  O  O390  1  0.87424207  0.38013698  0.11404774  1
  O  O391  1  0.88022942  0.39172109  0.59618597  1
  O  O392  1  0.86853569  0.88257127  0.10774524  1
  O  O393  1  0.87977210  0.87024883  0.62978070  1
  O  O394  1  0.12610628  0.12542232  0.36888996  1
  O  O395  1  0.14537908  0.14701025  0.86619419  1
  O  O396  1  0.12681738  0.61857164  0.39172578  1
  O  O397  1  0.13579749  0.63150246  0.87214509  1
  O  O398  1  0.63336696  0.12631678  0.38609165  1
  O  O399  1  0.63588639  0.12926778  0.87506787  1
  O  O400  1  0.68696105  0.62500096  0.40118270  1
  O  O401  1  0.63015898  0.63308807  0.88535197  1
