# generated using pymatgen
data_V73Zn73O256
_symmetry_space_group_name_H-M   'P 1'
_cell_length_a   16.93265510
_cell_length_b   16.92460170
_cell_length_c   16.95992320
_cell_angle_alpha   89.92478708
_cell_angle_beta   89.70576931
_cell_angle_gamma   89.66437964
_symmetry_Int_Tables_number   1
_chemical_formula_structural   V73Zn73O256
_chemical_formula_sum   'V73 Zn73 O256'
_cell_volume   4860.19692208
_cell_formula_units_Z   1
loop_
 _symmetry_equiv_pos_site_id
 _symmetry_equiv_pos_as_xyz
  1  'x, y, z'
loop_
 _atom_site_type_symbol
 _atom_site_label
 _atom_site_symmetry_multiplicity
 _atom_site_fract_x
 _atom_site_fract_y
 _atom_site_fract_z
 _atom_site_occupancy
  V  V0  1  0.00614972  -0.00497853  -0.01031190  1
  V  V1  1  0.49977675  0.12177367  0.64315128  1
  V  V2  1  0.12368635  0.62338138  0.50149538  1
  V  V3  1  0.75073048  0.87782515  0.63562889  1
  V  V4  1  0.49212656  0.74247793  0.24984416  1
  V  V5  1  0.48880488  0.24123710  0.26243581  1
  V  V6  1  0.49199567  0.48745332  0.49175542  1
  V  V7  1  0.26908914  0.24249104  0.51091421  1
  V  V8  1  0.87332782  0.75322078  0.12143953  1
  V  V9  1  0.25455602  0.25990755  -0.00136842  1
  V  V10  1  0.63000302  0.60037999  0.01038208  1
  V  V11  1  0.00166102  0.62816966  0.12085321  1
  V  V12  1  0.85701537  0.01070981  0.87030773  1
  V  V13  1  0.88672511  0.73920092  0.62909245  1
  V  V14  1  0.74812459  0.23888218  -0.00173187  1
  V  V15  1  0.87954722  0.50095470  0.37819025  1
  V  V16  1  0.87856053  0.15326354  0.72034886  1
  V  V17  1  0.11483217  0.26345662  0.87018058  1
  V  V18  1  0.38496825  0.25083419  0.12754413  1
  V  V19  1  0.26084726  0.50921987  0.25408661  1
  V  V20  1  0.88209702  -0.00415245  0.37829714  1
  V  V21  1  0.01206218  0.49767448  0.50756800  1
  V  V22  1  0.25524298  0.62790743  0.37172942  1
  V  V23  1  0.62406521  0.26671801  0.37919462  1
  V  V24  1  0.74778170  0.49369575  0.23760060  1
  V  V25  1  0.36510030  0.48179159  0.87557362  1
  V  V26  1  0.50406061  0.00353068  0.49230682  1
  V  V27  1  0.25771066  0.38035425  0.12445333  1
  V  V28  1  0.00348878  0.74189707  0.76259248  1
  V  V29  1  0.12373139  0.12365842  -0.00017755  1
  V  V30  1  0.12098143  0.75736665  0.37904656  1
  V  V31  1  0.37624999  0.87517656  0.50232937  1
  V  V32  1  0.87518957  0.48808887  0.87705014  1
  V  V33  1  0.00446376  0.00082591  0.51253513  1
  V  V34  1  0.75323794  0.49494422  0.74829934  1
  V  V35  1  0.87387486  0.62895927  0.24989195  1
  V  V36  1  0.50230343  0.86383941  0.88727837  1
  V  V37  1  0.74143757  0.12129620  0.37941064  1
  V  V38  1  0.44830628  0.92539578  0.31948061  1
  V  V39  1  0.60613350  0.39037767  0.23829495  1
  V  V40  1  0.75134199  0.25956415  0.51004633  1
  V  V41  1  0.25501614  0.48077855  0.72868519  1
  V  V42  1  0.74907716  0.88675704  0.12730653  1
  V  V43  1  0.13778176  0.87692865  0.22347861  1
  V  V44  1  0.36337131  0.75055031  0.63728027  1
  V  V45  1  0.61970288  0.22802507  0.87210051  1
  V  V46  1  0.61461525  0.37542349  0.76375447  1
  V  V47  1  0.75513260  0.63127158  0.87183812  1
  V  V48  1  0.13615689  0.62855711  -0.01150099  1
  V  V49  1  0.49540806  0.63138764  0.63067764  1
  V  V50  1  0.00134689  0.75857672  0.24986403  1
  V  V51  1  0.87711853  0.87614893  -0.00826164  1
  V  V52  1  0.62914317  0.49546552  0.62596490  1
  V  V53  1  0.62959457  -0.00079799  0.63630144  1
  V  V54  1  0.26569785  -0.00006934  0.75187766  1
  V  V55  1  0.63848875  0.87768505  0.25835992  1
  V  V56  1  0.29962671  0.77655358  0.01979267  1
  V  V57  1  0.38462771  0.25540495  0.64642174  1
  V  V58  1  0.16429442  0.20987330  0.35661010  1
  V  V59  1  0.12613577  0.37373668  0.25448532  1
  V  V60  1  -0.00520246  0.36214999  0.37367947  1
  V  V61  1  0.62116256  0.75025290  0.37737137  1
  V  V62  1  0.50044404  0.02129249  -0.00017811  1
  V  V63  1  -0.00111055  0.11585003  0.12738648  1
  V  V64  1  0.26307418  0.12171794  0.87297753  1
  V  V65  1  0.73525547  0.75373263  0.00012535  1
  V  V66  1  0.75095156  0.62474696  0.37693568  1
  V  V67  1  -0.00203973  0.49007354  -0.00392188  1
  V  V68  1  -0.05951198  0.29478297  0.19045893  1
  V  V69  1  0.12546003  0.50084768  0.12626696  1
  V  V70  1  0.62394470  0.62497746  0.50201212  1
  V  V71  1  0.87138761  0.11614496  0.24664925  1
  V  V72  1  0.11569159  0.88101609  0.76918497  1
  Zn  Zn73  1  0.24237908  0.87662293  0.62299966  1
  Zn  Zn74  1  0.87918230  0.87258510  0.50052389  1
  Zn  Zn75  1  0.86787005  0.36446114  0.01470564  1
  Zn  Zn76  1  0.61801331  0.02123891  0.12039851  1
  Zn  Zn77  1  0.12132568  0.01118538  0.63834757  1
  Zn  Zn78  1  0.53566445  0.77510029  0.74983812  1
  Zn  Zn79  1  0.87276787  0.37601625  0.50649446  1
  Zn  Zn80  1  0.75520262  0.75252709  0.50318528  1
  Zn  Zn81  1  0.50292794  0.63885283  0.11726705  1
  Zn  Zn82  1  0.18783085  0.18759523  0.17834822  1
  Zn  Zn83  1  0.19058879  0.19000563  0.68957735  1
  Zn  Zn84  1  0.19126715  0.69338133  0.18271233  1
  Zn  Zn85  1  0.17613823  0.69089181  0.68827165  1
  Zn  Zn86  1  0.69137639  0.17933816  0.18656751  1
  Zn  Zn87  1  0.69148244  0.18001382  0.69717579  1
  Zn  Zn88  1  0.68458123  0.68891811  0.18827128  1
  Zn  Zn89  1  0.69691725  0.69088245  0.68676738  1
  Zn  Zn90  1  0.31593502  0.32787711  0.32593030  1
  Zn  Zn91  1  0.30746815  0.31652766  0.80947104  1
  Zn  Zn92  1  0.30513862  0.81202197  0.31385089  1
  Zn  Zn93  1  0.31472848  0.81697409  0.82489708  1
  Zn  Zn94  1  0.80650529  0.31544599  0.31707788  1
  Zn  Zn95  1  0.80570062  0.30514568  0.81516498  1
  Zn  Zn96  1  0.81328515  0.81163073  0.31495720  1
  Zn  Zn97  1  0.81506740  0.81287205  0.80976603  1
  Zn  Zn98  1  0.19657929  0.42107965  0.44607936  1
  Zn  Zn99  1  0.19094675  0.44584591  0.93162570  1
  Zn  Zn100  1  0.18246192  0.93494656  0.44485404  1
  Zn  Zn101  1  0.19641341  0.93793295  0.94149413  1
  Zn  Zn102  1  0.68693148  0.43872532  0.43743244  1
  Zn  Zn103  1  0.69381836  0.42655338  0.94223000  1
  Zn  Zn104  1  0.69254979  0.93528456  0.44729353  1
  Zn  Zn105  1  0.67689238  0.94008293  0.93929414  1
  Zn  Zn106  1  0.32474984  0.08904579  0.05669894  1
  Zn  Zn107  1  0.31458411  0.06659644  0.56581122  1
  Zn  Zn108  1  0.33886791  0.58588428  0.04594275  1
  Zn  Zn109  1  0.31184609  0.56417887  0.55579098  1
  Zn  Zn110  1  0.81453643  0.06344061  0.05623787  1
  Zn  Zn111  1  0.81129271  0.06979698  0.56411004  1
  Zn  Zn112  1  0.81496650  0.56482771  0.05706636  1
  Zn  Zn113  1  0.81622722  0.56568309  0.56253199  1
  Zn  Zn114  1  0.43252739  0.46508517  0.17088988  1
  Zn  Zn115  1  0.43854072  0.44644476  0.68569280  1
  Zn  Zn116  1  0.39586996  0.95223237  0.13005682  1
  Zn  Zn117  1  0.43983330  0.93667366  0.68457744  1
  Zn  Zn118  1  0.93784334  0.45576652  0.19151255  1
  Zn  Zn119  1  0.94007440  0.46641472  0.68917208  1
  Zn  Zn120  1  0.93723899  0.93995223  0.18519183  1
  Zn  Zn121  1  0.93490121  0.93535019  0.69301947  1
  Zn  Zn122  1  0.05910931  0.05344152  0.30477803  1
  Zn  Zn123  1  0.05753959  0.07526095  0.80872835  1
  Zn  Zn124  1  0.06531050  0.56758265  0.31443313  1
  Zn  Zn125  1  0.06056094  0.56010032  0.81101216  1
  Zn  Zn126  1  0.57150156  0.07698036  0.29190874  1
  Zn  Zn127  1  0.56145821  0.04400159  0.81841932  1
  Zn  Zn128  1  0.55900277  0.56381106  0.31348476  1
  Zn  Zn129  1  0.58284047  0.59924436  0.80237137  1
  Zn  Zn130  1  0.46248128  0.20703540  0.46295945  1
  Zn  Zn131  1  0.44345011  0.19958009  0.93637960  1
  Zn  Zn132  1  0.43685077  0.68752210  0.44308853  1
  Zn  Zn133  1  0.45373932  0.68547178  0.93561345  1
  Zn  Zn134  1  0.92790229  0.18065650  0.44883286  1
  Zn  Zn135  1  0.93234794  0.18853417  0.93422163  1
  Zn  Zn136  1  0.94212479  0.68866405  0.44058879  1
  Zn  Zn137  1  0.93746978  0.68184503  0.93709530  1
  Zn  Zn138  1  0.07036958  0.31406930  0.05552533  1
  Zn  Zn139  1  0.11195369  0.14126337  0.52155900  1
  Zn  Zn140  1  0.06719575  0.81124993  0.05261211  1
  Zn  Zn141  1  0.06109475  0.82548997  0.56930787  1
  Zn  Zn142  1  0.59582252  0.28016853  0.08321314  1
  Zn  Zn143  1  0.56456982  0.31459076  0.57422040  1
  Zn  Zn144  1  0.53896059  0.85099590  0.08570616  1
  Zn  Zn145  1  0.56186941  0.81721120  0.55973871  1
  O  O146  1  0.11266069  0.13310762  0.11080835  1
  O  O147  1  0.12017671  0.12609422  0.63158509  1
  O  O148  1  0.11496484  0.61782051  0.12105978  1
  O  O149  1  0.12759545  0.63494642  0.59858456  1
  O  O150  1  0.60729586  0.10875726  0.18559498  1
  O  O151  1  0.61717924  0.10959156  0.62975547  1
  O  O152  1  0.62769843  0.62676071  0.11393931  1
  O  O153  1  0.61871082  0.61906138  0.61673938  1
  O  O154  1  0.30218058  0.39966206  0.40792127  1
  O  O155  1  0.38161785  0.38138665  0.86822030  1
  O  O156  1  0.37929434  0.87592530  0.38356904  1
  O  O157  1  0.39981239  0.88658719  0.85146377  1
  O  O158  1  0.87809389  0.38813975  0.37374869  1
  O  O159  1  0.87030686  0.38782808  0.87676302  1
  O  O160  1  0.86218179  0.89356307  0.37532710  1
  O  O161  1  0.86994744  0.87725608  0.89041634  1
  O  O162  1  0.25193213  -0.00617394  0.35607747  1
  O  O163  1  0.25275152  0.01422924  0.87313267  1
  O  O164  1  0.23200040  0.51729841  0.35676550  1
  O  O165  1  0.25917463  0.49258088  0.85478990  1
  O  O166  1  0.75185928  0.01794934  0.38441531  1
  O  O167  1  0.75904217  -0.00409149  0.88693351  1
  O  O168  1  0.75998384  0.51037934  0.37275181  1
  O  O169  1  0.76093475  0.50440612  0.86938916  1
  O  O170  1  0.23899312  0.49738514  0.13843004  1
  O  O171  1  0.26120547  0.49497825  0.62805670  1
  O  O172  1  0.25953377  1.03418691  0.15018517  1
  O  O173  1  0.24881454  1.00527941  0.64446495  1
  O  O174  1  0.76115957  0.50525310  0.14003607  1
  O  O175  1  0.74726721  0.51205651  0.64083742  1
  O  O176  1  0.74773327  0.98858563  0.11966904  1
  O  O177  1  0.73886445  0.99193113  0.61597553  1
  O  O178  1  0.00158656  0.36340105  0.24797029  1
  O  O179  1  0.01480287  0.38477599  0.73883044  1
  O  O180  1  0.00505493  0.86119814  0.23661325  1
  O  O181  1  0.01238583  0.87287672  0.75554445  1
  O  O182  1  0.50674616  0.40996855  0.24167648  1
  O  O183  1  0.51758963  0.38621390  0.74737158  1
  O  O184  1  0.51777230  0.86118767  0.27112187  1
  O  O185  1  0.49923635  0.88126577  0.76120906  1
  O  O186  1  0.47598809  0.14459036  0.27273441  1
  O  O187  1  0.49981115  0.11205119  0.74075724  1
  O  O188  1  0.50796716  0.63910929  0.24701303  1
  O  O189  1  0.49295627  0.61237606  0.72687218  1
  O  O190  1  0.98742008  0.12226867  0.24033080  1
  O  O191  1  0.97129143  0.11737035  0.75259443  1
  O  O192  1  0.99535482  0.63318993  0.23794620  1
  O  O193  1  1.01245915  0.64248567  0.74666346  1
  O  O194  1  0.36980905  0.25100741  0.01747789  1
  O  O195  1  0.37187795  0.25477115  0.50593697  1
  O  O196  1  0.38088037  0.70965888  0.02223678  1
  O  O197  1  0.38451138  0.76896863  0.50795187  1
  O  O198  1  0.85861879  0.24777928  -0.00056888  1
  O  O199  1  0.85644791  0.25667816  0.49768984  1
  O  O200  1  0.87582618  0.75711905  0.00991266  1
  O  O201  1  0.87991005  0.75140089  0.51301134  1
  O  O202  1  0.10919260  0.22403042  0.43842253  1
  O  O203  1  0.13711781  0.24377485  0.99562218  1
  O  O204  1  0.11005857  0.73968114  0.48495752  1
  O  O205  1  0.11158136  0.72713361  0.99466425  1
  O  O206  1  0.62824337  0.26243261  0.48346853  1
  O  O207  1  0.62758511  0.24517083  0.97903148  1
  O  O208  1  0.62703262  0.74052646  0.49481354  1
  O  O209  1  0.63864265  0.76053842  1.00411509  1
  O  O210  1  0.49142518  0.25932419  0.14333594  1
  O  O211  1  0.49978682  0.23130735  0.62052830  1
  O  O212  1  0.50406816  0.75760214  0.14668518  1
  O  O213  1  0.50071752  0.74134779  0.62990185  1
  O  O214  1  0.99837442  0.24129278  0.12410192  1
  O  O215  1  0.96580814  0.30956998  0.62403504  1
  O  O216  1  0.99215256  0.74360476  0.12741507  1
  O  O217  1  0.98981164  0.75687762  0.63058705  1
  O  O218  1  -0.02354856  0.26519034  0.37822095  1
  O  O219  1  0.01605794  0.24767074  0.88727814  1
  O  O220  1  0.00959042  0.74311119  0.36039735  1
  O  O221  1  -0.01023911  0.74764741  0.86194534  1
  O  O222  1  0.51117964  0.25655609  0.37280158  1
  O  O223  1  0.51905142  0.24747873  0.87002833  1
  O  O224  1  0.51551048  0.73920453  0.37123493  1
  O  O225  1  0.49637508  0.75947617  0.86462319  1
  O  O226  1  0.23958606  0.13984780  0.50882731  1
  O  O227  1  0.24297230  0.13628305  0.99457503  1
  O  O228  1  0.23380782  0.61437903  0.48192979  1
  O  O229  1  0.23377608  0.61114080  1.00565918  1
  O  O230  1  0.75186461  0.14166811  0.48333924  1
  O  O231  1  0.74947729  0.13643859  1.00320669  1
  O  O232  1  0.74220793  0.62554976  0.49341747  1
  O  O233  1  0.74364908  0.63509535  0.99995663  1
  O  O234  1  0.24085065  0.36775428  0.01225399  1
  O  O235  1  0.20805416  0.32228744  0.51225746  1
  O  O236  1  0.29168868  0.88966934  0.00203454  1
  O  O237  1  0.26986646  0.88953940  0.50366058  1
  O  O238  1  0.75357274  0.35771213  0.00437334  1
  O  O239  1  0.75194700  0.36725355  0.50015899  1
  O  O240  1  0.75854576  0.86913228  0.00980094  1
  O  O241  1  0.75828026  0.86929663  0.51215898  1
  O  O242  1  0.11672179  0.49274868  0.23775926  1
  O  O243  1  0.14683005  0.52863000  0.73593562  1
  O  O244  1  0.11388957  0.97124983  0.24965415  1
  O  O245  1  0.12587921  0.99246515  0.75861861  1
  O  O246  1  0.63950875  0.49816241  0.25531322  1
  O  O247  1  0.63691345  0.50107087  0.74580518  1
  O  O248  1  0.62425064  0.97484669  0.27071333  1
  O  O249  1  0.62396315  0.99219302  0.73429558  1
  O  O250  1  0.39453679  -0.03602149  0.24524001  1
  O  O251  1  0.36344356  0.00091529  0.74652908  1
  O  O252  1  0.35729957  0.49672985  0.26028957  1
  O  O253  1  0.35982432  0.49675541  0.75136397  1
  O  O254  1  0.87502286  0.00877627  0.26008444  1
  O  O255  1  0.87381315  -0.01373498  0.77359014  1
  O  O256  1  0.86464252  0.50897421  0.25943449  1
  O  O257  1  0.86550020  0.50060171  0.76265468  1
  O  O258  1  0.11149162  0.37991944  0.35921325  1
  O  O259  1  0.12708688  0.36322535  0.88450527  1
  O  O260  1  0.13079090  0.85819432  0.37622558  1
  O  O261  1  0.13108945  0.87714868  0.86887694  1
  O  O262  1  0.63162561  0.36985504  0.36159859  1
  O  O263  1  0.62175943  0.38763865  0.86363529  1
  O  O264  1  0.64647003  0.85786522  0.37027025  1
  O  O265  1  0.60389510  0.88176080  0.87737637  1
  O  O266  1  0.37247893  0.15371086  0.14165598  1
  O  O267  1  0.39585800  0.12790108  0.62346701  1
  O  O268  1  0.41919182  0.56418234  0.12075302  1
  O  O269  1  0.38702725  0.64273444  0.60940795  1
  O  O270  1  0.87853801  0.11972334  0.13944921  1
  O  O271  1  0.88032877  0.13976084  0.61773822  1
  O  O272  1  0.88245825  0.63432452  0.12743953  1
  O  O273  1  0.87550813  0.63940345  0.62699505  1
  O  O274  1  0.25888145  0.26146316  0.12094836  1
  O  O275  1  0.27714105  0.23710329  0.62357210  1
  O  O276  1  0.23933082  0.74128094  0.09295432  1
  O  O277  1  0.26040260  0.74886000  0.62793958  1
  O  O278  1  0.71155766  0.24913769  0.10435909  1
  O  O279  1  0.72867633  0.24487620  0.60505993  1
  O  O280  1  0.76059800  0.75592743  0.11932079  1
  O  O281  1  0.76390669  0.75797581  0.62552853  1
  O  O282  1  0.26287713  0.23382927  0.38225587  1
  O  O283  1  0.24626952  0.24419123  0.88584277  1
  O  O284  1  0.23270245  0.73761101  0.36694055  1
  O  O285  1  0.27080515  0.76861657  0.92074829  1
  O  O286  1  0.73747381  0.24798398  0.37869112  1
  O  O287  1  0.73494692  0.25224372  0.88617804  1
  O  O288  1  0.74819047  0.73568775  0.37651233  1
  O  O289  1  0.76228774  0.73723053  0.88453398  1
  O  O290  1  0.00428699  0.11402513  0.00653999  1
  O  O291  1  0.00184953  0.10728513  0.48948599  1
  O  O292  1  0.00134597  0.61191678  0.00901862  1
  O  O293  1  0.01241023  0.60730971  0.48506072  1
  O  O294  1  0.49995530  0.12169817  0.00414743  1
  O  O295  1  0.49764204  0.10695307  0.49805166  1
  O  O296  1  0.53001829  0.62508869  -0.00239020  1
  O  O297  1  0.51235557  0.62099924  0.50585695  1
  O  O298  1  0.50916047  0.38840366  0.50639767  1
  O  O299  1  0.51196160  0.37178626  1.00083524  1
  O  O300  1  0.48996660  0.88735696  0.50069208  1
  O  O301  1  0.48379399  0.86145861  0.98787131  1
  O  O302  1  0.99636049  0.39438879  0.48334314  1
  O  O303  1  0.99424821  0.38733365  1.01068733  1
  O  O304  1  0.99554914  0.89287906  0.49862495  1
  O  O305  1  0.99236609  0.88828568  1.00752690  1
  O  O306  1  0.51043541  0.50392886  0.39315203  1
  O  O307  1  0.47290991  0.53293468  0.86345486  1
  O  O308  1  0.49750256  0.99933374  0.37641761  1
  O  O309  1  0.49683722  0.99659102  0.89830554  1
  O  O310  1  0.98810674  0.49500826  0.36615319  1
  O  O311  1  0.98459080  0.50432148  0.88119297  1
  O  O312  1  0.98428402  0.99949371  0.37593557  1
  O  O313  1  0.99249190  1.00339474  0.89036396  1
  O  O314  1  -0.00603381  0.01043631  0.11318237  1
  O  O315  1  -0.00606052  -0.00059912  0.61395322  1
  O  O316  1  0.00472813  0.50954707  0.11852336  1
  O  O317  1  0.00618985  0.50036979  0.60681137  1
  O  O318  1  0.50927072  -0.03397088  0.10861248  1
  O  O319  1  0.51067086  0.00590596  0.61699334  1
  O  O320  1  0.49059346  0.43456288  0.03187575  1
  O  O321  1  0.51046053  0.51244203  0.61335533  1
  O  O322  1  0.23964199  0.38977760  0.24481116  1
  O  O323  1  0.24024542  0.38116447  0.74084400  1
  O  O324  1  0.23692360  0.86605116  0.24256777  1
  O  O325  1  0.24329950  0.89024933  0.75695471  1
  O  O326  1  0.74758948  0.39150932  0.25211249  1
  O  O327  1  0.74340655  0.39301298  0.75441775  1
  O  O328  1  0.74576204  0.86909123  0.24199745  1
  O  O329  1  0.74825107  0.86892673  0.73533402  1
  O  O330  1  0.24709696  0.08296756  0.20809820  1
  O  O331  1  0.24769321  0.11518205  0.76756923  1
  O  O332  1  0.24688379  0.61888930  0.25324855  1
  O  O333  1  0.20469554  0.59193910  0.74634018  1
  O  O334  1  0.76535818  0.13411516  0.26331430  1
  O  O335  1  0.77993763  0.12406507  0.74080295  1
  O  O336  1  0.75380546  0.61851942  0.25900093  1
  O  O337  1  0.75219388  0.61576110  0.76821045  1
  O  O338  1  0.30190182  0.04381140  0.37659394  1
  O  O339  1  0.36040421  0.13547448  0.88442096  1
  O  O340  1  0.35390646  0.63478056  0.38324555  1
  O  O341  1  0.41565731  0.59314105  0.86527032  1
  O  O342  1  0.86668046  0.11620187  0.36595462  1
  O  O343  1  0.87093024  0.11048649  0.88001760  1
  O  O344  1  0.87010282  0.62072086  0.37126077  1
  O  O345  1  0.85991638  0.60968757  0.89062727  1
  O  O346  1  0.13062933  0.37994122  0.13515175  1
  O  O347  1  0.04273534  0.33848125  0.68659936  1
  O  O348  1  0.12976042  0.87191149  0.12323342  1
  O  O349  1  0.12911233  0.88635480  0.63873652  1
  O  O350  1  0.62120096  0.37990673  0.14154820  1
  O  O351  1  0.62730395  0.39112158  0.63704080  1
  O  O352  1  0.63743514  0.87074872  0.14667203  1
  O  O353  1  0.63749395  0.88271528  0.61937783  1
  O  O354  1  0.14179388  0.25808157  0.26014994  1
  O  O355  1  0.13439869  0.24495711  0.77329042  1
  O  O356  1  0.11836506  0.75879547  0.25247500  1
  O  O357  1  0.11409240  0.76601546  0.74869966  1
  O  O358  1  0.60039736  0.27224468  0.25779581  1
  O  O359  1  0.63692600  0.26812756  0.76068673  1
  O  O360  1  0.62250187  0.75585031  0.26129458  1
  O  O361  1  0.61853506  0.70424660  0.76222492  1
  O  O362  1  0.38814708  0.27669103  0.25100045  1
  O  O363  1  0.37573138  0.24623529  0.74492804  1
  O  O364  1  0.39403951  0.75755876  0.26439879  1
  O  O365  1  0.37022624  0.75272860  0.73653468  1
  O  O366  1  0.87580499  0.24197196  0.25046888  1
  O  O367  1  0.87657853  0.25306835  0.74690143  1
  O  O368  1  0.88106878  0.74838100  0.24123428  1
  O  O369  1  0.89051036  0.75788114  0.73918470  1
  O  O370  1  0.39392306  0.50485669  0.50424393  1
  O  O371  1  0.35563588  0.49526335  0.97537743  1
  O  O372  1  0.39015459  0.98941118  0.51184860  1
  O  O373  1  0.39286445  1.00798179  1.02630802  1
  O  O374  1  0.88521032  0.50139480  0.49343615  1
  O  O375  1  0.87936056  0.49216096  0.99374360  1
  O  O376  1  0.88064482  1.00517135  0.48768518  1
  O  O377  1  0.88419543  0.99320697  0.99357684  1
  O  O378  1  0.11428674  0.00587742  -0.00497364  1
  O  O379  1  0.11200996  0.00235451  0.50217087  1
  O  O380  1  0.11666844  0.50129039  0.01225042  1
  O  O381  1  0.11852977  0.50425898  0.48939789  1
  O  O382  1  0.61000765  0.00196758  0.00833304  1
  O  O383  1  0.60809871  -0.00806373  0.50285473  1
  O  O384  1  0.63896415  0.50170491  0.01127816  1
  O  O385  1  0.62686793  0.50867781  0.50886197  1
  O  O386  1  0.36152360  0.37554039  0.13079869  1
  O  O387  1  0.39499620  0.35377804  0.63215924  1
  O  O388  1  0.31530072  0.87414208  0.08374274  1
  O  O389  1  0.37345620  0.86402596  0.61919701  1
  O  O390  1  0.88723325  0.36336205  0.13761337  1
  O  O391  1  0.90899498  0.36163377  0.63024154  1
  O  O392  1  0.86819052  0.86964619  0.11952362  1
  O  O393  1  0.86229211  0.87336450  0.62497499  1
  O  O394  1  0.15180771  0.11304252  0.33316189  1
  O  O395  1  0.13215210  0.13256216  0.88903115  1
  O  O396  1  0.13017994  0.63684974  0.37698438  1
  O  O397  1  0.12302131  0.60632021  0.89226657  1
  O  O398  1  0.63772715  0.14280876  0.36416135  1
  O  O399  1  0.62844934  0.12987764  0.85461634  1
  O  O400  1  0.63487742  0.63009127  0.38316537  1
  O  O401  1  0.64977792  0.61194607  0.89589161  1
