# generated using pymatgen
data_V73Zn73O256
_symmetry_space_group_name_H-M   'P 1'
_cell_length_a   16.84948497
_cell_length_b   16.85508209
_cell_length_c   16.83046060
_cell_angle_alpha   90.16535070
_cell_angle_beta   90.01094442
_cell_angle_gamma   89.97265340
_symmetry_Int_Tables_number   1
_chemical_formula_structural   V73Zn73O256
_chemical_formula_sum   'V73 Zn73 O256'
_cell_volume   4779.82106100
_cell_formula_units_Z   1
loop_
 _symmetry_equiv_pos_site_id
 _symmetry_equiv_pos_as_xyz
  1  'x, y, z'
loop_
 _atom_site_type_symbol
 _atom_site_label
 _atom_site_symmetry_multiplicity
 _atom_site_fract_x
 _atom_site_fract_y
 _atom_site_fract_z
 _atom_site_occupancy
  V  V0  1  0.25205243  0.76288241  0.50738894  1
  V  V1  1  0.87258614  -0.01411313  0.36938612  1
  V  V2  1  0.62110737  0.24803136  0.37823412  1
  V  V3  1  0.48668663  0.22161206  0.75246947  1
  V  V4  1  0.61240441  0.37642255  0.74594609  1
  V  V5  1  0.25390735  0.00910250  0.74319372  1
  V  V6  1  0.62721534  0.50059273  0.12308164  1
  V  V7  1  0.88759053  0.13074158  0.73437412  1
  V  V8  1  0.87610122  0.01182666  0.87753021  1
  V  V9  1  0.24533922  0.26657448  0.00261664  1
  V  V10  1  0.12637035  -0.00203701  0.14051520  1
  V  V11  1  0.24055023  0.48842981  0.23408162  1
  V  V12  1  0.38510291  0.77200671  0.62269175  1
  V  V13  1  0.00622500  0.49429040  -0.00752886  1
  V  V14  1  0.75485916  0.37273340  0.12165964  1
  V  V15  1  0.88452820  0.26494966  0.62519383  1
  V  V16  1  0.86398254  0.38265785  0.48825354  1
  V  V17  1  0.49811202  0.75081906  0.24047820  1
  V  V18  1  0.00758631  0.61769160  0.12917658  1
  V  V19  1  0.12203960  0.75747417  0.37371138  1
  V  V20  1  0.86736585  0.86675358  0.52152631  1
  V  V21  1  -0.00326846  -0.00657181  0.49691893  1
  V  V22  1  0.00965847  0.86521443  0.87542191  1
  V  V23  1  0.12216607  -0.00128123  0.62189324  1
  V  V24  1  0.87711611  0.36883803  -0.00953984  1
  V  V25  1  0.26700027  0.25671408  0.50857975  1
  V  V26  1  0.00452704  0.60672663  0.62854644  1
  V  V27  1  0.37917282  0.87498019  -0.00334845  1
  V  V28  1  0.75296498  0.62416689  0.38580537  1
  V  V29  1  0.62745835  0.74808364  0.38127909  1
  V  V30  1  0.87152371  0.74792979  0.12679144  1
  V  V31  1  0.86501803  0.11992532  0.24745538  1
  V  V32  1  0.75936201  0.50257418  0.25397381  1
  V  V33  1  0.62178079  0.87905416  0.74528321  1
  V  V34  1  0.24807027  0.75061876  -0.01951965  1
  V  V35  1  0.13380302  0.86614028  0.74486732  1
  V  V36  1  0.25785590  0.00280559  0.25088549  1
  V  V37  1  0.11579754  0.13606224  0.49890191  1
  V  V38  1  0.00150443  0.49354986  0.47400762  1
  V  V39  1  0.75509558  0.73872957  -0.01962173  1
  V  V40  1  0.05409702  0.31942111  0.29004539  1
  V  V41  1  0.87491952  0.24836449  0.12466406  1
  V  V42  1  0.63516500  0.87561463  0.22456458  1
  V  V43  1  0.51505585  0.01162711  0.50449830  1
  V  V44  1  0.63363711  0.62251296  -0.01776330  1
  V  V45  1  0.37849706  0.38038494  0.00262610  1
  V  V46  1  0.12787268  0.63026487  -0.01273814  1
  V  V47  1  0.38783338  0.48443828  0.37997913  1
  V  V48  1  0.10970352  0.35714988  0.74738687  1
  V  V49  1  0.50162396  0.62705611  0.12226248  1
  V  V50  1  0.24821563  0.39844575  0.63050718  1
  V  V51  1  0.24630295  0.86296773  0.13399344  1
  V  V52  1  0.50477286  0.49633403  -0.01544034  1
  V  V53  1  0.38300307  0.23418193  0.12343945  1
  V  V54  1  0.86391813  0.51584587  0.87294613  1
  V  V55  1  0.37531564  -0.00228437  0.38225263  1
  V  V56  1  0.00483148  0.76151009  0.25350538  1
  V  V57  1  0.74928893  0.12552518  0.38343103  1
  V  V58  1  0.63033183  0.24017258  0.88098476  1
  V  V59  1  0.35823062  0.50935196  0.87198699  1
  V  V60  1  0.25419863  0.13663487  0.37060969  1
  V  V61  1  -0.00544589  0.74647877  0.74038678  1
  V  V62  1  0.12962229  0.13110621  -0.00386835  1
  V  V63  1  0.49892515  0.87679864  0.37489963  1
  V  V64  1  0.37222156  0.00718345  0.87881117  1
  V  V65  1  0.37565883  0.62450377  0.24516712  1
  V  V66  1  0.25156276  0.61968389  0.37721622  1
  V  V67  1  0.87512687  0.87037802  0.00345061  1
  V  V68  1  -0.00069688  0.12388138  0.12989175  1
  V  V69  1  0.00879351  -0.00408726  0.00085660  1
  V  V70  1  0.74382631  0.50018414  0.73177655  1
  V  V71  1  0.61866074  0.37320976  0.24912919  1
  V  V72  1  0.37571613  0.62722570  0.73942777  1
  Zn  Zn73  1  0.50667589  0.76649052  0.80760838  1
  Zn  Zn74  1  0.24798444  0.14238707  0.86060946  1
  Zn  Zn75  1  0.87979789  0.62149868  0.25790733  1
  Zn  Zn76  1  0.73973068  0.25878450  0.52089024  1
  Zn  Zn77  1  0.82832218  0.67274958  0.69767467  1
  Zn  Zn78  1  0.13347111  0.61239163  0.50746540  1
  Zn  Zn79  1  0.74141927  0.00486254  0.76676925  1
  Zn  Zn80  1  0.73786141  0.75423936  0.53822434  1
  Zn  Zn81  1  0.49515961  0.25092481  0.24525874  1
  Zn  Zn82  1  0.19291785  0.19480768  0.18138153  1
  Zn  Zn83  1  0.18297969  0.19153650  0.67863871  1
  Zn  Zn84  1  0.18453609  0.67862798  0.18947151  1
  Zn  Zn85  1  0.19119850  0.67948666  0.68869099  1
  Zn  Zn86  1  0.69027249  0.18991069  0.18918851  1
  Zn  Zn87  1  0.71361615  0.20505311  0.72513139  1
  Zn  Zn88  1  0.68843646  0.68873781  0.18852302  1
  Zn  Zn89  1  0.67681473  0.69502893  0.73592046  1
  Zn  Zn90  1  0.31186986  0.31406470  0.30283557  1
  Zn  Zn91  1  0.31144767  0.32051020  0.81247478  1
  Zn  Zn92  1  0.31172142  0.81090314  0.31332593  1
  Zn  Zn93  1  0.31758941  0.81514715  0.80684142  1
  Zn  Zn94  1  0.81798814  0.31053058  0.30486983  1
  Zn  Zn95  1  0.81105885  0.31766277  0.80758467  1
  Zn  Zn96  1  0.80992561  0.80778270  0.30616928  1
  Zn  Zn97  1  0.81491274  0.82433747  0.81070307  1
  Zn  Zn98  1  0.18549247  0.42789209  0.42449212  1
  Zn  Zn99  1  0.18492371  0.43765702  0.92972892  1
  Zn  Zn100  1  0.18426069  0.94040506  0.43220602  1
  Zn  Zn101  1  0.19345548  0.93833011  0.93474486  1
  Zn  Zn102  1  0.68183336  0.43382872  0.43951791  1
  Zn  Zn103  1  0.68695973  0.42562452  0.93064553  1
  Zn  Zn104  1  0.69068923  0.92937615  0.43357559  1
  Zn  Zn105  1  0.69388761  0.92515449  0.93358710  1
  Zn  Zn106  1  0.31051029  0.06057296  0.06266092  1
  Zn  Zn107  1  0.31288941  0.06455757  0.56065724  1
  Zn  Zn108  1  0.31222857  0.56569226  0.05853057  1
  Zn  Zn109  1  0.31835306  0.55991489  0.56047326  1
  Zn  Zn110  1  0.81292181  0.06162376  0.05324157  1
  Zn  Zn111  1  0.81826114  0.06872006  0.55771225  1
  Zn  Zn112  1  0.81913919  0.56058801  0.06338795  1
  Zn  Zn113  1  0.81824391  0.56562337  0.55823648  1
  Zn  Zn114  1  0.43246964  0.44074146  0.18511298  1
  Zn  Zn115  1  0.42927749  0.42956602  0.68348756  1
  Zn  Zn116  1  0.43496281  0.93539347  0.18317457  1
  Zn  Zn117  1  0.44458207  0.94774359  0.69133463  1
  Zn  Zn118  1  0.95675107  0.42867246  0.18937763  1
  Zn  Zn119  1  0.93614045  0.43598601  0.69784322  1
  Zn  Zn120  1  0.93762467  0.93715670  0.18996102  1
  Zn  Zn121  1  0.94430645  0.93955547  0.68974125  1
  Zn  Zn122  1  0.06530139  0.14734198  0.31322893  1
  Zn  Zn123  1  0.06618799  0.06122095  0.81186714  1
  Zn  Zn124  1  0.06932164  0.56490627  0.31384593  1
  Zn  Zn125  1  0.06457353  0.55460221  0.80985959  1
  Zn  Zn126  1  0.57718818  0.04872821  0.31313485  1
  Zn  Zn127  1  0.56722051  0.05111883  0.83643308  1
  Zn  Zn128  1  0.56657769  0.56217067  0.31362970  1
  Zn  Zn129  1  0.55495762  0.56481732  0.79614695  1
  Zn  Zn130  1  0.43917975  0.18503114  0.43794636  1
  Zn  Zn131  1  0.44118080  0.18878164  0.93185360  1
  Zn  Zn132  1  0.43007894  0.69594311  0.43153402  1
  Zn  Zn133  1  0.43664989  0.68556509  0.94235735  1
  Zn  Zn134  1  0.93683545  0.20082450  0.43483983  1
  Zn  Zn135  1  0.95125487  0.19439372  0.93385192  1
  Zn  Zn136  1  0.93863817  0.68620121  0.44657675  1
  Zn  Zn137  1  0.94467204  0.68658935  0.93470296  1
  Zn  Zn138  1  0.06412351  0.31618259  0.08273628  1
  Zn  Zn139  1  0.06021035  0.32279161  0.56153752  1
  Zn  Zn140  1  0.06643875  0.80881129  0.06825145  1
  Zn  Zn141  1  0.06235864  0.81235648  0.55831769  1
  Zn  Zn142  1  0.56188031  0.30845248  0.05550106  1
  Zn  Zn143  1  0.57294496  0.27787477  0.58727941  1
  Zn  Zn144  1  0.55775943  0.80760023  0.02802912  1
  Zn  Zn145  1  0.56212965  0.82997242  0.56558664  1
  O  O146  1  0.11670242  0.11634812  0.11889764  1
  O  O147  1  0.13132350  0.11327449  0.60554392  1
  O  O148  1  0.11193175  0.62766498  0.11449904  1
  O  O149  1  0.11064417  0.63117775  0.62174996  1
  O  O150  1  0.66363619  0.13346129  0.08365572  1
  O  O151  1  0.66093325  0.08544235  0.62269917  1
  O  O152  1  0.62332940  0.61449368  0.11890730  1
  O  O153  1  0.55389420  0.63392569  0.54281197  1
  O  O154  1  0.37647140  0.38450636  0.36677392  1
  O  O155  1  0.36631511  0.39453196  0.88956352  1
  O  O156  1  0.38671625  0.88382355  0.36363094  1
  O  O157  1  0.36771009  0.88098901  0.88852728  1
  O  O158  1  0.85846306  0.37600519  0.38907294  1
  O  O159  1  0.87476507  0.37646124  0.88847834  1
  O  O160  1  0.86486607  0.88456006  0.37634962  1
  O  O161  1  0.89070806  0.88300127  0.88657888  1
  O  O162  1  0.25802003  0.00185454  0.36880675  1
  O  O163  1  0.24657163  0.00373299  0.85643487  1
  O  O164  1  0.25828077  0.50655581  0.36493336  1
  O  O165  1  0.25918278  0.50923667  0.87842999  1
  O  O166  1  0.76179442  0.01365066  0.38257243  1
  O  O167  1  0.77462650  0.00077830  0.89110279  1
  O  O168  1  0.73567519  0.51582206  0.37036467  1
  O  O169  1  0.76390874  0.50081437  0.88511150  1
  O  O170  1  0.25396659  0.50613847  0.13458619  1
  O  O171  1  0.23776770  0.49877918  0.61742601  1
  O  O172  1  0.24243514  0.99817251  0.13456772  1
  O  O173  1  0.23771825  0.99663619  0.63405252  1
  O  O174  1  0.74483324  0.49521012  0.13113082  1
  O  O175  1  0.75470173  0.50498321  0.63257058  1
  O  O176  1  0.72684785  0.98410593  0.09091245  1
  O  O177  1  0.71286765  1.03185336  0.61419657  1
  O  O178  1  -0.04117088  0.36514629  0.28515337  1
  O  O179  1  0.00873459  0.35976791  0.73959281  1
  O  O180  1  0.00156969  0.86117045  0.24806393  1
  O  O181  1  0.00880545  0.86479367  0.75570322  1
  O  O182  1  0.51575281  0.37728690  0.23908834  1
  O  O183  1  0.51062668  0.38536677  0.74824420  1
  O  O184  1  0.50384456  0.86646632  0.24940032  1
  O  O185  1  0.51205931  0.87474805  0.75063684  1
  O  O186  1  0.51184177  0.09353010  0.21435025  1
  O  O187  1  0.49984939  0.12246681  0.76063570  1
  O  O188  1  0.49690261  0.62996256  0.24149150  1
  O  O189  1  0.48412341  0.65035573  0.77088620  1
  O  O190  1  0.98482137  0.11086096  0.23520003  1
  O  O191  1  0.98582482  0.12194982  0.76209212  1
  O  O192  1  1.00099726  0.62674940  0.23793571  1
  O  O193  1  1.00991487  0.63752227  0.74323574  1
  O  O194  1  0.36823139  0.26025870  0.00553676  1
  O  O195  1  0.36598214  0.25434313  0.49155809  1
  O  O196  1  0.35524239  0.76039550  0.00172333  1
  O  O197  1  0.36276745  0.74944496  0.50769095  1
  O  O198  1  0.87758331  0.26291911  0.00511270  1
  O  O199  1  0.87108406  0.26557878  0.50610353  1
  O  O200  1  0.87378226  0.75115947  0.00513994  1
  O  O201  1  0.87778003  0.76413035  0.50657976  1
  O  O202  1  0.12505770  0.23682035  0.50210345  1
  O  O203  1  0.13680220  0.24516122  1.02046128  1
  O  O204  1  0.13344066  0.74562268  0.49059118  1
  O  O205  1  0.13189968  0.73994809  0.99905557  1
  O  O206  1  0.62340939  0.25628067  0.48483704  1
  O  O207  1  0.63531541  0.27144245  0.97956973  1
  O  O208  1  0.62697353  0.76324097  0.48393662  1
  O  O209  1  0.64943531  0.73872864  0.99942192  1
  O  O210  1  0.48942529  0.24991230  0.12127692  1
  O  O211  1  0.48959656  0.24413199  0.64857534  1
  O  O212  1  0.50661143  0.73442208  0.12610712  1
  O  O213  1  0.48434333  0.75737741  0.60987282  1
  O  O214  1  0.98596943  0.23177159  0.11380400  1
  O  O215  1  0.98367619  0.24742561  0.61112332  1
  O  O216  1  0.99670782  0.74038729  0.13286428  1
  O  O217  1  1.00111009  0.74968131  0.63807130  1
  O  O218  1  0.00804960  0.24074585  0.35726452  1
  O  O219  1  0.03178557  0.26392387  0.91212032  1
  O  O220  1  0.01398946  0.73786697  0.37056191  1
  O  O221  1  0.00270118  0.75830310  0.86510626  1
  O  O222  1  0.51694059  0.23224291  0.36265282  1
  O  O223  1  0.51456594  0.24897126  0.86461364  1
  O  O224  1  0.50792077  0.75551398  0.36587307  1
  O  O225  1  0.50415575  0.77091729  0.92377148  1
  O  O226  1  0.24573946  0.13597228  0.49020266  1
  O  O227  1  0.23389950  0.13033351  1.00457476  1
  O  O228  1  0.25239037  0.63153399  0.48975153  1
  O  O229  1  0.23810933  0.63839443  1.00576203  1
  O  O230  1  0.75657330  0.13653978  0.48550404  1
  O  O231  1  0.71980543  0.13613754  1.03099061  1
  O  O232  1  0.74990829  0.63088718  0.48887424  1
  O  O233  1  0.74908280  0.63046577  1.00164821  1
  O  O234  1  0.24902150  0.37010993  0.00346867  1
  O  O235  1  0.23608611  0.35985586  0.50571063  1
  O  O236  1  0.24399338  0.86018959  0.00712400  1
  O  O237  1  0.24550310  0.86191111  0.49627559  1
  O  O238  1  0.76832492  0.38508299  0.01090165  1
  O  O239  1  0.75885604  0.37874585  0.50676115  1
  O  O240  1  0.76532335  0.85416489  -0.00829378  1
  O  O241  1  0.76130579  0.86767766  0.50174560  1
  O  O242  1  0.14210419  0.51058779  0.24769912  1
  O  O243  1  0.12543483  0.47444385  0.76243895  1
  O  O244  1  0.13432641  1.00362144  0.24188333  1
  O  O245  1  0.12929401  0.99291274  0.74047477  1
  O  O246  1  0.63405658  0.49381830  0.24087029  1
  O  O247  1  0.63250797  0.49312638  0.74843194  1
  O  O248  1  0.62798499  0.97624838  0.24247526  1
  O  O249  1  0.62478572  0.99607664  0.75090830  1
  O  O250  1  0.36313429  0.00032534  0.25480245  1
  O  O251  1  0.35894825  -0.01018829  0.76152671  1
  O  O252  1  0.36709266  0.50822922  0.25617729  1
  O  O253  1  0.38644666  0.51420491  0.76340508  1
  O  O254  1  0.87364350  0.00102710  0.26171620  1
  O  O255  1  0.88586415  0.00285406  0.77021658  1
  O  O256  1  0.86181323  0.50018041  0.24212641  1
  O  O257  1  0.86470301  0.49597145  0.76572283  1
  O  O258  1  0.11521467  0.37132196  0.35152345  1
  O  O259  1  0.12385679  0.38525521  0.85284505  1
  O  O260  1  0.12704689  0.85714796  0.37478776  1
  O  O261  1  0.11691818  0.88396545  0.86048036  1
  O  O262  1  0.63235624  0.35803717  0.36297186  1
  O  O263  1  0.62964781  0.36524900  0.85556447  1
  O  O264  1  0.61987726  0.86247095  0.35829878  1
  O  O265  1  0.60891291  0.93027955  0.86494816  1
  O  O266  1  0.37915474  0.13425083  0.11409325  1
  O  O267  1  0.36560086  0.10603774  0.64883781  1
  O  O268  1  0.38946311  0.61622383  0.13305936  1
  O  O269  1  0.38302521  0.62135311  0.63685298  1
  O  O270  1  0.87713834  0.12484847  0.12556890  1
  O  O271  1  0.88961365  0.11888800  0.63183921  1
  O  O272  1  0.89098191  0.63269474  0.12301591  1
  O  O273  1  0.89750581  0.62193442  0.62387470  1
  O  O274  1  0.26726739  0.24694923  0.11212599  1
  O  O275  1  0.25776437  0.24558871  0.60902048  1
  O  O276  1  0.24290759  0.76173235  0.12959555  1
  O  O277  1  0.25519846  0.74622577  0.61106836  1
  O  O278  1  0.75987516  0.26387948  0.12752668  1
  O  O279  1  0.77280055  0.23454550  0.62751232  1
  O  O280  1  0.76880065  0.73890246  0.11987623  1
  O  O281  1  0.73839012  0.71717727  0.64248874  1
  O  O282  1  0.25376915  0.23973208  0.37686786  1
  O  O283  1  0.25240545  0.25258376  0.89793673  1
  O  O284  1  0.24436032  0.74296726  0.38140159  1
  O  O285  1  0.24799728  0.75350129  0.88204656  1
  O  O286  1  0.74004662  0.23783528  0.36724319  1
  O  O287  1  0.73287968  0.24276348  0.84355213  1
  O  O288  1  0.73636994  0.73999841  0.36873640  1
  O  O289  1  0.76579561  0.74039620  0.88171079  1
  O  O290  1  0.00968127  0.11293626  0.00963142  1
  O  O291  1  0.01186010  0.11812592  0.48891230  1
  O  O292  1  0.01052959  0.61985662  0.00697936  1
  O  O293  1  0.00015347  0.60727352  0.51064664  1
  O  O294  1  0.50928430  0.11964837  -0.00834902  1
  O  O295  1  0.50160973  0.11245960  0.49810528  1
  O  O296  1  0.51342969  0.61465723  0.00711516  1
  O  O297  1  0.49838215  0.61327691  0.49841652  1
  O  O298  1  0.54145397  0.45243836  0.54365521  1
  O  O299  1  0.49322724  0.38830587  1.00306154  1
  O  O300  1  0.50472422  0.88332271  0.47863167  1
  O  O301  1  0.47382505  0.89121451  1.02443930  1
  O  O302  1  0.98894269  0.38747008  0.49413212  1
  O  O303  1  0.99254013  0.38863188  1.01052354  1
  O  O304  1  0.98499180  0.88327364  0.50290090  1
  O  O305  1  1.00112059  0.87725642  0.99544822  1
  O  O306  1  0.48843750  0.50181379  0.36705069  1
  O  O307  1  0.50025973  0.50329416  0.88390717  1
  O  O308  1  0.49285166  0.99623149  0.37431205  1
  O  O309  1  0.47038033  1.00439699  0.87926596  1
  O  O310  1  0.98863764  0.51190353  0.37650493  1
  O  O311  1  0.98775456  0.50322781  0.88859269  1
  O  O312  1  0.97656486  1.00325732  0.38735637  1
  O  O313  1  0.99912646  0.99131055  0.88805802  1
  O  O314  1  0.00732162  0.00083138  0.11805638  1
  O  O315  1  0.01038653  -0.00073223  0.61364613  1
  O  O316  1  -0.00760799  0.51389685  0.11332150  1
  O  O317  1  0.00615002  0.50668844  0.63513065  1
  O  O318  1  0.50104942  0.04364996  0.15646840  1
  O  O319  1  0.50234917  -0.01152851  0.60238817  1
  O  O320  1  0.51300677  0.50702367  0.11973827  1
  O  O321  1  0.50943647  0.49034913  0.60465073  1
  O  O322  1  0.24833248  0.38806205  0.24418504  1
  O  O323  1  0.24755963  0.37595057  0.73426601  1
  O  O324  1  0.25241986  0.88184908  0.23946060  1
  O  O325  1  0.23627884  0.88122599  0.75172096  1
  O  O326  1  0.74356283  0.38239076  0.24085767  1
  O  O327  1  0.74594774  0.39528664  0.75199565  1
  O  O328  1  0.73506625  0.85704684  0.23646092  1
  O  O329  1  0.73623488  0.88864956  0.76600331  1
  O  O330  1  0.24272550  0.11882903  0.26386836  1
  O  O331  1  0.23952721  0.11256975  0.74722726  1
  O  O332  1  0.26114369  0.62338262  0.25590358  1
  O  O333  1  0.27438708  0.63624573  0.75335835  1
  O  O334  1  0.75918155  0.11958936  0.25074501  1
  O  O335  1  0.78074561  0.11076837  0.75119802  1
  O  O336  1  0.75097598  0.61756558  0.25838560  1
  O  O337  1  0.74687647  0.60587261  0.75787357  1
  O  O338  1  0.36032342  0.11609657  0.37617666  1
  O  O339  1  0.35879989  0.11157207  0.89006076  1
  O  O340  1  0.36952819  0.62193596  0.36332223  1
  O  O341  1  0.37465343  0.61281260  0.88219992  1
  O  O342  1  0.86418514  0.12424677  0.36567694  1
  O  O343  1  0.88480364  0.11332843  0.89050346  1
  O  O344  1  0.85760469  0.63423818  0.37557105  1
  O  O345  1  0.87649044  0.61537859  0.87752695  1
  O  O346  1  0.06193876  0.36726995  0.18345700  1
  O  O347  1  0.13529373  0.36731936  0.63537725  1
  O  O348  1  0.13712355  0.88536096  0.12072917  1
  O  O349  1  0.11926265  0.88220671  0.63677874  1
  O  O350  1  0.63559610  0.38247704  0.12691681  1
  O  O351  1  0.63242441  0.35721167  0.64512190  1
  O  O352  1  0.61259671  0.85843696  0.12676326  1
  O  O353  1  0.63247017  0.86940544  0.64382889  1
  O  O354  1  0.11237606  0.23458740  0.24725275  1
  O  O355  1  0.13402220  0.25666953  0.75537690  1
  O  O356  1  0.11951951  0.74142114  0.26380588  1
  O  O357  1  0.12160246  0.76241104  0.74529460  1
  O  O358  1  0.62039548  0.25523394  0.25131485  1
  O  O359  1  0.60853692  0.25397089  0.75529437  1
  O  O360  1  0.61243757  0.75215419  0.25337487  1
  O  O361  1  0.62313718  0.77647892  0.78534590  1
  O  O362  1  0.37755467  0.25164255  0.23002150  1
  O  O363  1  0.38796852  0.24510525  0.77495436  1
  O  O364  1  0.38792806  0.73982375  0.25349525  1
  O  O365  1  0.37667994  0.74958755  0.73344916  1
  O  O366  1  0.87124479  0.23456175  0.23437337  1
  O  O367  1  0.87800817  0.24113036  0.73869920  1
  O  O368  1  0.88670304  0.74499567  0.24400336  1
  O  O369  1  0.89032353  0.75349753  0.75494973  1
  O  O370  1  0.37449121  0.50311051  0.47907744  1
  O  O371  1  0.38443931  0.50090454  0.99180134  1
  O  O372  1  0.38113257  1.00094743  0.48590059  1
  O  O373  1  0.34753244  0.98385305  0.98715784  1
  O  O374  1  0.88550961  0.48926503  0.50309984  1
  O  O375  1  0.88488863  0.49274428  0.99279456  1
  O  O376  1  0.87584617  0.98876231  0.49556079  1
  O  O377  1  0.88904890  0.99067996  0.99930167  1
  O  O378  1  0.12276061  0.00866601  0.00771434  1
  O  O379  1  0.11530233  -0.00177421  0.50380584  1
  O  O380  1  0.11289161  0.50823059  -0.00426945  1
  O  O381  1  0.10701712  0.49530699  0.48516087  1
  O  O382  1  0.66650393  -0.01705441  0.04366850  1
  O  O383  1  0.61430334  -0.00225918  0.48366925  1
  O  O384  1  0.62428301  0.50117944  0.00533387  1
  O  O385  1  0.60957977  0.48776371  0.51803220  1
  O  O386  1  0.37556470  0.37573822  0.10826554  1
  O  O387  1  0.35070310  0.38801320  0.61624012  1
  O  O388  1  0.35229073  0.88497606  0.11344638  1
  O  O389  1  0.37432266  0.86993429  0.62845820  1
  O  O390  1  0.87340461  0.36645761  0.11975216  1
  O  O391  1  0.87741005  0.36782615  0.62159849  1
  O  O392  1  0.88630279  0.86450840  0.11234995  1
  O  O393  1  0.87026259  0.88259110  0.62124217  1
  O  O394  1  0.14276376  0.11308733  0.39103475  1
  O  O395  1  0.12478947  0.12306697  0.89318474  1
  O  O396  1  0.13950317  0.63178482  0.37944339  1
  O  O397  1  0.11985522  0.62403609  0.88837333  1
  O  O398  1  0.64035002  0.13177280  0.36369727  1
  O  O399  1  0.62488249  0.13686914  0.88709658  1
  O  O400  1  0.62918985  0.64026612  0.37271529  1
  O  O401  1  0.62542476  0.61686529  0.88410143  1
