# generated using pymatgen
data_V73Zn73O256
_symmetry_space_group_name_H-M   'P 1'
_cell_length_a   16.85417668
_cell_length_b   16.87156207
_cell_length_c   16.86156892
_cell_angle_alpha   90.02459557
_cell_angle_beta   89.95979943
_cell_angle_gamma   89.96768769
_symmetry_Int_Tables_number   1
_chemical_formula_structural   V73Zn73O256
_chemical_formula_sum   'V73 Zn73 O256'
_cell_volume   4794.69076135
_cell_formula_units_Z   1
loop_
 _symmetry_equiv_pos_site_id
 _symmetry_equiv_pos_as_xyz
  1  'x, y, z'
loop_
 _atom_site_type_symbol
 _atom_site_label
 _atom_site_symmetry_multiplicity
 _atom_site_fract_x
 _atom_site_fract_y
 _atom_site_fract_z
 _atom_site_occupancy
  V  V0  1  0.36080545  0.75839404  0.11531115  1
  V  V1  1  0.37871514  0.62641040  0.24194673  1
  V  V2  1  0.51699270  0.12203013  0.11991265  1
  V  V3  1  0.00801226  0.24746552  0.75130944  1
  V  V4  1  0.90317652  -0.01353990  0.89196819  1
  V  V5  1  -0.00204355  0.51276050  -0.01297998  1
  V  V6  1  0.01283179  0.51024487  0.49813246  1
  V  V7  1  0.23509431  0.61255306  0.88094572  1
  V  V8  1  0.37653112  0.12323080  0.24679110  1
  V  V9  1  -0.00080685  0.62498649  0.15109991  1
  V  V10  1  0.76934236  0.49015912  0.74612119  1
  V  V11  1  0.25891933  0.87027740  0.61397062  1
  V  V12  1  0.12799363  0.50012802  0.11181633  1
  V  V13  1  0.86480766  0.39345818  0.49953924  1
  V  V14  1  0.24652414  0.64025150  0.37136259  1
  V  V15  1  0.76327553  0.61911447  0.88387018  1
  V  V16  1  0.76688817  0.87092652  0.12003710  1
  V  V17  1  0.00816002  0.64380239  0.62900523  1
  V  V18  1  -0.00234347  0.14065109  0.12879625  1
  V  V19  1  0.61438801  0.49769343  0.12543383  1
  V  V20  1  -0.00221797  0.11888431  0.62096707  1
  V  V21  1  -0.01716402  0.88217613  0.38152214  1
  V  V22  1  0.24408236  0.49769466  0.24085754  1
  V  V23  1  0.75998634  0.52002905  0.25194797  1
  V  V24  1  0.48956668  0.75292744  0.76437523  1
  V  V25  1  0.13079981  0.64643275  0.49248007  1
  V  V26  1  0.75106779  0.74425283  0.51525950  1
  V  V27  1  0.37135799  0.38999958  -0.00108129  1
  V  V28  1  0.87555368  0.64927138  0.74189247  1
  V  V29  1  0.62587969  0.26114144  0.36941130  1
  V  V30  1  0.62564105  0.88592833  0.25157611  1
  V  V31  1  0.24699647  0.12427969  0.37953251  1
  V  V32  1  0.23740768  0.15438117  0.87632431  1
  V  V33  1  0.57694789  -0.05375567  0.07316156  1
  V  V34  1  0.37707351  0.50238899  0.83698138  1
  V  V35  1  0.12337365  0.14524467  0.00166014  1
  V  V36  1  0.37812041  0.75023175  0.59577238  1
  V  V37  1  0.12718562  0.38166366  0.71797707  1
  V  V38  1  0.11937292  -0.00531020  0.12075222  1
  V  V39  1  0.75668900  0.24941350  0.00468920  1
  V  V40  1  0.61700422  0.12554130  0.49665308  1
  V  V41  1  0.63217053  0.88374762  0.73224680  1
  V  V42  1  0.50113413  -0.00477071  0.50390816  1
  V  V43  1  0.75386264  0.11388764  0.88416703  1
  V  V44  1  0.37359915  0.48129802  0.37432667  1
  V  V45  1  0.12015387  -0.01278369  0.62643076  1
  V  V46  1  0.75099242  0.24832495  0.51348605  1
  V  V47  1  0.86235839  0.88873230  0.52410891  1
  V  V48  1  0.75294985  0.37552831  0.13302278  1
  V  V49  1  0.76968193  0.00217308  0.25282292  1
  V  V50  1  0.50315154  0.74709618  0.24135742  1
  V  V51  1  0.49854426  0.87122609  0.37911529  1
  V  V52  1  0.60689829  0.61052835  -0.00598943  1
  V  V53  1  0.49546907  0.11902075  0.62335147  1
  V  V54  1  0.25133840  0.25963428  0.50524183  1
  V  V55  1  0.12302599  0.86403438  0.26122761  1
  V  V56  1  0.24244693  -0.01382387  0.76605029  1
  V  V57  1  0.63144426  0.73378544  0.37840004  1
  V  V58  1  0.87768021  0.37543075  -0.00756437  1
  V  V59  1  0.24809380  -0.00451710  0.24370995  1
  V  V60  1  0.12657320  0.11767978  0.50077679  1
  V  V61  1  0.87898683  0.11446970  0.75644803  1
  V  V62  1  0.39198764  0.10626888  0.78474402  1
  V  V63  1  0.88365450  0.14450217  0.25550470  1
  V  V64  1  0.63388108  0.37434407  0.74380779  1
  V  V65  1  0.50522299  0.24605648  0.75415891  1
  V  V66  1  0.63070836  0.75388311  0.88055100  1
  V  V67  1  0.37536494  -0.00467518  0.38111123  1
  V  V68  1  0.37174411  0.24781288  0.62926439  1
  V  V69  1  0.49823412  0.26077917  0.25514216  1
  V  V70  1  0.00977353  0.36970254  0.87238365  1
  V  V71  1  0.36665658  0.24658932  0.10998867  1
  V  V72  1  0.62916275  0.24560445  0.88301487  1
  Zn  Zn73  1  0.63149004  0.51241075  0.60942858  1
  Zn  Zn74  1  0.87970747  0.74538920  0.11640806  1
  Zn  Zn75  1  0.11089634  0.35767888  0.25221671  1
  Zn  Zn76  1  0.49879950  0.49447982  0.49950874  1
  Zn  Zn77  1  -0.00291104  0.35912496  0.36814191  1
  Zn  Zn78  1  0.87275403  0.25425334  0.62986720  1
  Zn  Zn79  1  0.76217142  0.11939764  0.38374862  1
  Zn  Zn80  1  0.50408925  0.62892690  0.61968277  1
  Zn  Zn81  1  0.50875842  0.39216879  0.88165521  1
  Zn  Zn82  1  0.18322149  0.19024786  0.19099518  1
  Zn  Zn83  1  0.18732048  0.17912666  0.69009775  1
  Zn  Zn84  1  0.18628965  0.68228202  0.17644247  1
  Zn  Zn85  1  0.22209280  0.65545913  0.66546057  1
  Zn  Zn86  1  0.69236032  0.18949182  0.19097760  1
  Zn  Zn87  1  0.68762464  0.16714495  0.69143971  1
  Zn  Zn88  1  0.68191222  0.69024913  0.17756981  1
  Zn  Zn89  1  0.68492621  0.68972484  0.69662863  1
  Zn  Zn90  1  0.28565146  0.30376856  0.30017328  1
  Zn  Zn91  1  0.31517438  0.32383303  0.79888948  1
  Zn  Zn92  1  0.31422326  0.81485070  0.30452481  1
  Zn  Zn93  1  0.29955880  0.81689310  0.82653620  1
  Zn  Zn94  1  0.81057609  0.31715666  0.32050634  1
  Zn  Zn95  1  0.81963962  0.30475338  0.81484513  1
  Zn  Zn96  1  0.80549530  0.81760835  0.32126324  1
  Zn  Zn97  1  0.80502855  0.81855147  0.81805764  1
  Zn  Zn98  1  0.18478799  0.44235619  0.43194317  1
  Zn  Zn99  1  0.19433699  0.43145304  0.92783725  1
  Zn  Zn100  1  0.18674470  0.93764553  0.43715301  1
  Zn  Zn101  1  0.11280482  0.94404553  0.92235734  1
  Zn  Zn102  1  0.69133372  0.44517325  0.43032377  1
  Zn  Zn103  1  0.69235943  0.43629710  0.93124685  1
  Zn  Zn104  1  0.68841413  0.93680630  0.43791949  1
  Zn  Zn105  1  0.70084006  0.93494128  0.93968436  1
  Zn  Zn106  1  0.30509382  0.06482752  0.05676439  1
  Zn  Zn107  1  0.31311600  0.05653356  0.57105512  1
  Zn  Zn108  1  0.31246607  0.57469074  0.05533192  1
  Zn  Zn109  1  0.31466491  0.55852575  0.55693101  1
  Zn  Zn110  1  0.81978584  0.05725082  0.06687759  1
  Zn  Zn111  1  0.79456425  0.05649815  0.58038015  1
  Zn  Zn112  1  0.82025181  0.55634697  0.07230962  1
  Zn  Zn113  1  0.80707362  0.57355273  0.57135158  1
  Zn  Zn114  1  0.42788832  0.43515331  0.18193659  1
  Zn  Zn115  1  0.44474697  0.42502346  0.65942717  1
  Zn  Zn116  1  0.43394161  0.93425589  0.18808869  1
  Zn  Zn117  1  0.43784928  0.93070301  0.69715861  1
  Zn  Zn118  1  0.93747148  0.43567631  0.18686271  1
  Zn  Zn119  1  0.95110369  0.43827820  0.67181179  1
  Zn  Zn120  1  0.94668551  0.93847421  0.19015304  1
  Zn  Zn121  1  0.93918683  0.92700344  0.70081601  1
  Zn  Zn122  1  0.05859476  0.05735896  0.31341614  1
  Zn  Zn123  1  0.06506658  0.06410168  0.81206646  1
  Zn  Zn124  1  0.06314802  0.53346630  0.32482592  1
  Zn  Zn125  1  0.05914665  0.55479783  0.80168992  1
  Zn  Zn126  1  0.56108049  0.06528346  0.31435515  1
  Zn  Zn127  1  0.56677450  0.05906498  0.82355032  1
  Zn  Zn128  1  0.55928303  0.55170328  0.30963291  1
  Zn  Zn129  1  0.56361838  0.56732785  0.79767340  1
  Zn  Zn130  1  0.43138005  0.19320117  0.43746565  1
  Zn  Zn131  1  0.44356893  0.16899152  0.93606495  1
  Zn  Zn132  1  0.44203460  0.67388506  0.43048175  1
  Zn  Zn133  1  0.42724790  0.67202418  0.92705622  1
  Zn  Zn134  1  0.94374603  0.18679735  0.43745271  1
  Zn  Zn135  1  0.94018441  0.18821451  0.94068984  1
  Zn  Zn136  1  0.94206466  0.70845833  0.44482038  1
  Zn  Zn137  1  0.95225613  0.69680061  0.91540766  1
  Zn  Zn138  1  0.06180122  0.32167359  0.06786882  1
  Zn  Zn139  1  0.05116337  0.30307215  0.54032292  1
  Zn  Zn140  1  0.06273607  0.80365892  0.07720862  1
  Zn  Zn141  1  0.05356015  0.82000528  0.55380232  1
  Zn  Zn142  1  0.55798774  0.31539745  0.06105700  1
  Zn  Zn143  1  0.57612850  0.34471561  0.54168288  1
  Zn  Zn144  1  0.51633221  0.77362099  0.02559225  1
  Zn  Zn145  1  0.56684671  0.80908458  0.56448679  1
  O  O146  1  0.11853659  0.12359641  0.12050530  1
  O  O147  1  0.11894118  0.11074739  0.62082653  1
  O  O148  1  0.10868459  0.61542741  0.12141721  1
  O  O149  1  0.11444480  0.63649241  0.61453513  1
  O  O150  1  0.61569631  0.12476417  0.13563040  1
  O  O151  1  0.60243387  0.14090564  0.60619309  1
  O  O152  1  0.62964121  0.61253751  0.10313809  1
  O  O153  1  0.62119825  0.62352404  0.63409892  1
  O  O154  1  0.35573935  0.38367640  0.35803748  1
  O  O155  1  0.37589921  0.39263402  0.87478768  1
  O  O156  1  0.38621506  0.88455806  0.36491758  1
  O  O157  1  0.36223042  0.88265846  0.90640385  1
  O  O158  1  0.87982308  0.36463251  0.39669523  1
  O  O159  1  0.88618309  0.37222261  0.88429543  1
  O  O160  1  0.88102462  0.88530053  0.37001868  1
  O  O161  1  0.87406647  0.89121063  0.87231544  1
  O  O162  1  0.25883877  0.00506801  0.36839517  1
  O  O163  1  0.21620074  -0.02112772  0.86350624  1
  O  O164  1  0.25384047  0.50910084  0.35530976  1
  O  O165  1  0.26096252  0.50533049  0.86727019  1
  O  O166  1  0.74197370  0.00628457  0.35655936  1
  O  O167  1  0.76362522  0.01239768  0.88371227  1
  O  O168  1  0.74370369  0.49838050  0.35038862  1
  O  O169  1  0.75259099  0.51163863  0.86001022  1
  O  O170  1  0.23603639  0.51736166  0.12527812  1
  O  O171  1  0.24754564  0.54804902  0.64370328  1
  O  O172  1  0.23644824  1.01207700  0.13545242  1
  O  O173  1  0.24269528  0.98771975  0.63576740  1
  O  O174  1  0.74332000  0.48974662  0.12986705  1
  O  O175  1  0.74634448  0.50393955  0.64444827  1
  O  O176  1  0.76030544  0.98873428  0.14119510  1
  O  O177  1  0.71940467  1.06145979  0.66010305  1
  O  O178  1  -0.00411027  0.36748532  0.25214436  1
  O  O179  1  0.00383070  0.36491002  0.75095852  1
  O  O180  1  0.01537852  0.87902911  0.26294517  1
  O  O181  1  0.02598553  0.86783248  0.76034081  1
  O  O182  1  0.49353308  0.35846669  0.24394137  1
  O  O183  1  0.51587725  0.35651993  0.75321892  1
  O  O184  1  0.50720486  0.86858550  0.25776189  1
  O  O185  1  0.51335098  0.86074920  0.74904129  1
  O  O186  1  0.48931730  0.12670308  0.24427820  1
  O  O187  1  0.50607613  0.12709327  0.73621016  1
  O  O188  1  0.48739965  0.63456502  0.25971034  1
  O  O189  1  0.50401152  0.65006298  0.74246791  1
  O  O190  1  0.99355056  0.12801918  0.24587731  1
  O  O191  1  0.99891771  0.12962705  0.74472135  1
  O  O192  1  1.00261032  0.60274977  0.24737180  1
  O  O193  1  0.98821068  0.62585259  0.74000132  1
  O  O194  1  0.37964282  0.23738868  0.00998745  1
  O  O195  1  0.36906579  0.25039598  0.52004977  1
  O  O196  1  0.40121774  0.74186139  0.01694263  1
  O  O197  1  0.38300818  0.75569433  0.49690486  1
  O  O198  1  0.86766605  0.25992547  -0.00047103  1
  O  O199  1  0.85394737  0.23422779  0.50356737  1
  O  O200  1  0.91767709  0.77501731  -0.00098372  1
  O  O201  1  0.85847128  0.76519099  0.49907863  1
  O  O202  1  0.14852093  0.22742461  0.51360264  1
  O  O203  1  0.12556565  0.24407441  1.00772102  1
  O  O204  1  0.12863683  0.74554106  0.49944843  1
  O  O205  1  0.13436740  0.77821162  0.98204910  1
  O  O206  1  0.62870682  0.25119560  0.48810394  1
  O  O207  1  0.63637771  0.25492172  0.99034018  1
  O  O208  1  0.63326842  0.75428615  0.48572167  1
  O  O209  1  0.61771638  0.72624747  0.98817872  1
  O  O210  1  0.49680316  0.23753671  0.13728569  1
  O  O211  1  0.48355562  0.23796275  0.63675020  1
  O  O212  1  0.50790608  0.75070195  0.14093609  1
  O  O213  1  0.48332844  0.75796917  0.62970583  1
  O  O214  1  1.00704884  0.24018679  0.13177323  1
  O  O215  1  0.99582270  0.23209654  0.62915239  1
  O  O216  1  1.00264300  0.73145264  0.14106750  1
  O  O217  1  0.99878112  0.74360653  0.62391197  1
  O  O218  1  0.01886498  0.26834571  0.43466531  1
  O  O219  1  -0.00353525  0.25564212  0.86304497  1
  O  O220  1  0.00786426  0.78067517  0.38622835  1
  O  O221  1  0.02071778  0.77988400  0.86184645  1
  O  O222  1  0.50421592  0.24822466  0.36410453  1
  O  O223  1  0.51575515  0.23571253  0.86642296  1
  O  O224  1  0.50624473  0.75683904  0.36736384  1
  O  O225  1  0.51379198  0.74094285  0.87195280  1
  O  O226  1  0.24734688  0.11599292  0.49397649  1
  O  O227  1  0.23249998  0.12725683  0.98978129  1
  O  O228  1  0.24006256  0.62594269  0.48364894  1
  O  O229  1  0.25247039  0.63352277  0.97926944  1
  O  O230  1  0.73374534  0.13419686  0.49856132  1
  O  O231  1  0.76598857  0.13490217  0.99355596  1
  O  O232  1  0.75675211  0.64384577  0.49809040  1
  O  O233  1  0.76330666  0.61450439  0.98458086  1
  O  O234  1  0.27088712  0.37199983  -0.01053151  1
  O  O235  1  0.23727706  0.35734806  0.49439063  1
  O  O236  1  0.32436263  0.92270484  -0.03554238  1
  O  O237  1  0.25188254  0.88062666  0.51491629  1
  O  O238  1  0.76032655  0.36925573  -0.00071708  1
  O  O239  1  0.75755444  0.35664520  0.49412651  1
  O  O240  1  0.76170560  0.87950206  0.02065196  1
  O  O241  1  0.75649475  0.86594552  0.49458862  1
  O  O242  1  0.13913160  0.51052318  0.23463300  1
  O  O243  1  0.10609206  0.48091679  0.73003787  1
  O  O244  1  0.13368746  0.99597844  0.24376104  1
  O  O245  1  0.13530475  1.00399907  0.73640744  1
  O  O246  1  0.63395671  0.50801260  0.23033932  1
  O  O247  1  0.63246905  0.47948621  0.75479617  1
  O  O248  1  0.62574130  0.98950439  0.25332357  1
  O  O249  1  0.61521249  0.97809868  0.76790282  1
  O  O250  1  0.36885620  0.00535484  0.25560736  1
  O  O251  1  0.35707436  0.00505851  0.75321954  1
  O  O252  1  0.36615233  0.50951061  0.24732638  1
  O  O253  1  0.37434148  0.49103184  0.73911671  1
  O  O254  1  0.87115976  0.00561595  0.25503876  1
  O  O255  1  0.89287289  0.00842985  0.77001630  1
  O  O256  1  0.85913425  0.50180174  0.23779042  1
  O  O257  1  0.87004199  0.49307141  0.74349656  1
  O  O258  1  0.10056680  0.42109005  0.35808737  1
  O  O259  1  0.11189971  0.37572573  0.86853335  1
  O  O260  1  0.13502282  0.87050852  0.36296228  1
  O  O261  1  0.16385370  0.83860674  0.94184371  1
  O  O262  1  0.62710924  0.35946400  0.36957298  1
  O  O263  1  0.62587365  0.36186379  0.86751439  1
  O  O264  1  0.61543244  0.86961066  0.36741373  1
  O  O265  1  0.63660679  0.85354481  0.89090900  1
  O  O266  1  0.38295228  0.12625799  0.13087897  1
  O  O267  1  0.38119484  0.12693276  0.63667959  1
  O  O268  1  0.37218134  0.63498217  0.13589038  1
  O  O269  1  0.37377116  0.64879132  0.61489614  1
  O  O270  1  0.89166584  0.12277269  0.13588453  1
  O  O271  1  0.88706960  0.11375238  0.63855388  1
  O  O272  1  0.89429416  0.62874102  0.11856576  1
  O  O273  1  0.88069039  0.63539652  0.63735231  1
  O  O274  1  0.26873052  0.23733350  0.12393713  1
  O  O275  1  0.26229950  0.23138893  0.61815342  1
  O  O276  1  0.26140066  0.74640276  0.11254711  1
  O  O277  1  0.26384977  0.76118984  0.62678445  1
  O  O278  1  0.73963850  0.26412908  0.11533762  1
  O  O279  1  0.74630156  0.24441074  0.61560751  1
  O  O280  1  0.75843089  0.76506380  0.13350664  1
  O  O281  1  0.74006549  0.75092363  0.61472506  1
  O  O282  1  0.27056525  0.23261220  0.39947044  1
  O  O283  1  0.23992585  0.25159304  0.86365680  1
  O  O284  1  0.25578055  0.73888301  0.36784499  1
  O  O285  1  0.22750030  0.72508398  0.83850762  1
  O  O286  1  0.73496737  0.24144470  0.37472858  1
  O  O287  1  0.74852169  0.24364904  0.88760076  1
  O  O288  1  0.73346855  0.74755956  0.37289136  1
  O  O289  1  0.73950961  0.73168077  0.87164711  1
  O  O290  1  0.01099234  0.13120050  0.01562739  1
  O  O291  1  0.01141743  0.12002983  0.51245496  1
  O  O292  1  -0.00056751  0.61285619  -0.01817712  1
  O  O293  1  0.01238144  0.63603610  0.50813057  1
  O  O294  1  0.50724452  0.12548114  0.02090281  1
  O  O295  1  0.49665314  0.11684290  0.50287983  1
  O  O296  1  0.50847548  0.60947015  -0.01065831  1
  O  O297  1  0.49616051  0.60962434  0.50317405  1
  O  O298  1  0.47234875  0.38980984  0.54808054  1
  O  O299  1  0.48101082  0.36075955  0.98878311  1
  O  O300  1  0.50752562  0.88317086  0.48860864  1
  O  O301  1  0.51890864  0.88665336  1.01848833  1
  O  O302  1  0.98662535  0.40739500  0.50070575  1
  O  O303  1  0.99484585  0.37618878  0.99144498  1
  O  O304  1  0.97213482  0.87974681  0.49838285  1
  O  O305  1  0.97237777  0.83520015  1.00421819  1
  O  O306  1  0.47892713  0.49311611  0.36878532  1
  O  O307  1  0.48420346  0.50411029  0.85567836  1
  O  O308  1  0.49300690  0.99235523  0.38102549  1
  O  O309  1  0.46158732  1.07208234  0.86110857  1
  O  O310  1  0.97725354  0.53385557  0.40527879  1
  O  O311  1  1.00175124  0.48856421  0.88359766  1
  O  O312  1  1.01760434  0.98080730  0.38454301  1
  O  O313  1  1.01182715  0.98749164  0.88271651  1
  O  O314  1  0.01530065  0.01535147  0.13519754  1
  O  O315  1  0.01474247  -0.00002510  0.63720713  1
  O  O316  1  0.00733527  0.51101682  0.11039498  1
  O  O317  1  -0.01616935  0.52763764  0.60382000  1
  O  O318  1  0.50657933  0.00670978  0.13025921  1
  O  O319  1  0.48641787  0.00525014  0.61411038  1
  O  O320  1  0.51499289  0.49063696  0.12837704  1
  O  O321  1  0.51256271  0.51021632  0.63411026  1
  O  O322  1  0.25665361  0.39982797  0.23314027  1
  O  O323  1  0.22408319  0.36842612  0.74362949  1
  O  O324  1  0.24296033  0.88858785  0.25058052  1
  O  O325  1  0.24982286  0.88341176  0.74257953  1
  O  O326  1  0.75303806  0.37284945  0.23428156  1
  O  O327  1  0.74817715  0.38120234  0.75949842  1
  O  O328  1  0.74516410  0.88725086  0.24835465  1
  O  O329  1  0.73162021  0.87094997  0.75145515  1
  O  O330  1  0.25927033  0.11687872  0.26002079  1
  O  O331  1  0.24537104  0.11347174  0.77155979  1
  O  O332  1  0.25611653  0.62381552  0.25471592  1
  O  O333  1  0.24964092  0.66683665  0.77861226  1
  O  O334  1  0.76738335  0.11631855  0.24312480  1
  O  O335  1  0.77155809  0.13668291  0.77808126  1
  O  O336  1  0.74978182  0.61961032  0.23800439  1
  O  O337  1  0.76699711  0.61635015  0.75461443  1
  O  O338  1  0.37140527  0.11457769  0.36680221  1
  O  O339  1  0.34004040  0.13087839  0.88562884  1
  O  O340  1  0.36095279  0.61777562  0.36281252  1
  O  O341  1  0.36301888  0.60663071  0.86376676  1
  O  O342  1  0.87985527  0.13015181  0.36101579  1
  O  O343  1  0.88072468  0.11120933  0.87598519  1
  O  O344  1  0.88507696  0.66790013  0.33480163  1
  O  O345  1  0.87034807  0.63385491  0.86105304  1
  O  O346  1  0.11849211  0.39708432  0.13278179  1
  O  O347  1  0.11171601  0.36420994  0.61899063  1
  O  O348  1  0.11636733  0.89014213  0.13346741  1
  O  O349  1  0.13162279  0.88255117  0.61960037  1
  O  O350  1  0.63805161  0.38788627  0.11200625  1
  O  O351  1  0.63221858  0.35990940  0.64568179  1
  O  O352  1  0.63890271  0.88084227  0.13309623  1
  O  O353  1  0.62382441  0.88273456  0.63114562  1
  O  O354  1  0.17744182  0.26799608  0.26978697  1
  O  O355  1  0.11216152  0.25420011  0.73952649  1
  O  O356  1  0.13716734  0.76793325  0.23743781  1
  O  O357  1  0.01688811  0.79093970  0.78239300  1
  O  O358  1  0.61102144  0.24187536  0.25995209  1
  O  O359  1  0.62717199  0.24831737  0.76015088  1
  O  O360  1  0.62051815  0.75851240  0.25875509  1
  O  O361  1  0.61970424  0.76126304  0.76565148  1
  O  O362  1  0.38259039  0.24023531  0.24395303  1
  O  O363  1  0.38820029  0.22340167  0.76141293  1
  O  O364  1  0.38162104  0.74563866  0.23711681  1
  O  O365  1  0.38971711  0.76539061  0.77339948  1
  O  O366  1  0.86985983  0.24226049  0.24959316  1
  O  O367  1  0.88700088  0.23759564  0.74721056  1
  O  O368  1  0.87682088  0.72181102  0.28247886  1
  O  O369  1  0.87110977  0.74772919  0.75142043  1
  O  O370  1  0.36018613  0.49537036  0.47603184  1
  O  O371  1  0.37762564  0.48970100  1.01168022  1
  O  O372  1  0.38314177  1.00299102  0.48842620  1
  O  O373  1  0.36765135  0.98491740  0.99149544  1
  O  O374  1  0.84648156  0.49124046  0.49972127  1
  O  O375  1  0.89206113  0.49067313  1.00244046  1
  O  O376  1  0.85009403  0.98998188  0.50915280  1
  O  O377  1  0.88682201  1.00076480  0.99044725  1
  O  O378  1  0.12607639  0.00777283  0.01836924  1
  O  O379  1  0.13257703  0.00530188  0.51653354  1
  O  O380  1  0.11542565  0.49181584  0.00559276  1
  O  O381  1  0.11704826  0.51804568  0.49779818  1
  O  O382  1  0.63199181  -0.00069232  0.00855615  1
  O  O383  1  0.61108172  0.01121902  0.49162897  1
  O  O384  1  0.63037726  0.50512059  0.00230906  1
  O  O385  1  0.61544318  0.45676298  0.50938368  1
  O  O386  1  0.37995782  0.35713671  0.10996919  1
  O  O387  1  0.36491618  0.34079024  0.66892029  1
  O  O388  1  0.37524977  0.85834251  0.12813574  1
  O  O389  1  0.36538927  0.86922554  0.62613752  1
  O  O390  1  0.85948062  0.38032056  0.11083550  1
  O  O391  1  0.88265099  0.36837607  0.60320652  1
  O  O392  1  0.87167009  0.86599896  0.14189341  1
  O  O393  1  0.86934709  0.88064931  0.62458974  1
  O  O394  1  0.13776889  0.11430037  0.38514441  1
  O  O395  1  0.12498571  0.12801467  0.89088232  1
  O  O396  1  0.13512856  0.62701389  0.38107609  1
  O  O397  1  0.13493533  0.60137824  0.87219709  1
  O  O398  1  0.61783406  0.13584899  0.38651222  1
  O  O399  1  0.64721664  0.12839928  0.87537832  1
  O  O400  1  0.61657426  0.63566795  0.36959255  1
  O  O401  1  0.63861503  0.62176372  0.88182763  1
