# generated using pymatgen
data_V73Zn73O256
_symmetry_space_group_name_H-M   'P 1'
_cell_length_a   17.01026783
_cell_length_b   17.01487445
_cell_length_c   16.87709373
_cell_angle_alpha   89.92166046
_cell_angle_beta   89.57763955
_cell_angle_gamma   89.72197651
_symmetry_Int_Tables_number   1
_chemical_formula_structural   V73Zn73O256
_chemical_formula_sum   'V73 Zn73 O256'
_cell_volume   4884.50169724
_cell_formula_units_Z   1
loop_
 _symmetry_equiv_pos_site_id
 _symmetry_equiv_pos_as_xyz
  1  'x, y, z'
loop_
 _atom_site_type_symbol
 _atom_site_label
 _atom_site_symmetry_multiplicity
 _atom_site_fract_x
 _atom_site_fract_y
 _atom_site_fract_z
 _atom_site_occupancy
  V  V0  1  0.62396062  0.51298824  0.12121863  1
  V  V1  1  0.36484214  0.12091571  0.26685545  1
  V  V2  1  0.50746309  0.25154195  0.25717924  1
  V  V3  1  0.36767888  0.24895200  0.62980884  1
  V  V4  1  0.49977237  -0.00188790  0.00466413  1
  V  V5  1  0.00618817  0.12080346  0.09301441  1
  V  V6  1  0.23939791  0.24985990  0.00248065  1
  V  V7  1  0.87691938  0.74615002  0.10951680  1
  V  V8  1  0.73196841  0.75785692  0.48976815  1
  V  V9  1  0.75357272  -0.00281077  0.24978417  1
  V  V10  1  0.62499167  0.86555698  0.75142497  1
  V  V11  1  0.22151443  0.75032166  0.49941297  1
  V  V12  1  0.50259558  0.63281803  0.62532960  1
  V  V13  1  0.03901702  0.37111718  0.87785064  1
  V  V14  1  0.75209434  0.87798230  0.62175334  1
  V  V15  1  0.87499674  -0.00517883  0.37079225  1
  V  V16  1  0.01236500  0.74737294  0.24965514  1
  V  V17  1  0.87970713  0.13003081  0.24357832  1
  V  V18  1  0.88556386  -0.02072033  0.88387328  1
  V  V19  1  0.13112650  0.48289094  0.12639304  1
  V  V20  1  0.00339999  0.61690084  0.11228840  1
  V  V21  1  0.87283203  0.61649411  0.24257894  1
  V  V22  1  0.37142061  0.00138484  0.86518892  1
  V  V23  1  0.13366152  0.61320763  -0.00501350  1
  V  V24  1  0.62796473  -0.00107108  0.12660687  1
  V  V25  1  0.75100084  0.00017087  0.75982388  1
  V  V26  1  0.63643214  0.37143740  0.24208289  1
  V  V27  1  0.37622505  0.87113036  0.01420035  1
  V  V28  1  0.50390178  0.86766360  0.87780609  1
  V  V29  1  0.24454764  0.37675800  0.63371632  1
  V  V30  1  0.22061766  -0.02316353  0.25003684  1
  V  V31  1  0.48976837  0.49887754  -0.00183086  1
  V  V32  1  -0.05010967  0.17620492  0.58240957  1
  V  V33  1  0.38153503  0.51007704  0.38387324  1
  V  V34  1  0.49551838  -0.00049183  0.48488800  1
  V  V35  1  0.27486090  0.50182687  0.74652635  1
  V  V36  1  0.73787088  0.74715825  -0.00355853  1
  V  V37  1  0.74269109  0.62847166  0.86074369  1
  V  V38  1  0.48908688  0.25589726  0.75786876  1
  V  V39  1  0.37296395  0.25993258  0.12573337  1
  V  V40  1  0.76252720  0.87554167  0.11939942  1
  V  V41  1  0.87019535  0.73367372  0.62555694  1
  V  V42  1  0.38717304  0.73074672  0.13752669  1
  V  V43  1  0.25139878  0.25863132  0.47967154  1
  V  V44  1  -0.00471550  -0.00388251  0.51029154  1
  V  V45  1  0.25356333  0.75242467  0.00906411  1
  V  V46  1  0.24640132  0.88629397  0.63043473  1
  V  V47  1  0.63007778  0.12240091  -0.00570025  1
  V  V48  1  0.61793702  0.86581977  0.25990987  1
  V  V49  1  0.00946118  0.86782396  0.36948925  1
  V  V50  1  0.09751526  0.54271225  0.63304134  1
  V  V51  1  0.04545563  0.49631651  0.46336778  1
  V  V52  1  0.75414205  0.14200303  0.38322954  1
  V  V53  1  0.01879199  0.24505783  0.75905760  1
  V  V54  1  0.26616311  0.62314643  0.86528862  1
  V  V55  1  0.61612510  0.25703206  0.87539510  1
  V  V56  1  0.84376179  0.48392158  0.87656248  1
  V  V57  1  0.47820460  0.75290691  0.74825047  1
  V  V58  1  0.50960179  0.37731350  0.38353393  1
  V  V59  1  0.74453689  0.63229890  0.37022797  1
  V  V60  1  0.26564835  0.49669585  0.24555102  1
  V  V61  1  0.12918800  0.12333503  0.48560352  1
  V  V62  1  0.50134851  0.12661547  0.13051824  1
  V  V63  1  0.86733379  0.25775353  0.12206579  1
  V  V64  1  0.74158475  0.26373323  0.00277805  1
  V  V65  1  0.63208617  0.60092283  0.50319547  1
  V  V66  1  0.87322987  0.86778436  0.49511181  1
  V  V67  1  0.49248732  0.12351812  0.63259538  1
  V  V68  1  0.87375703  0.13143998  0.76679852  1
  V  V69  1  0.62072843  0.00037180  0.62553584  1
  V  V70  1  0.87167658  0.50618461  0.38762442  1
  V  V71  1  0.12693407  0.75916379  0.87071090  1
  V  V72  1  0.63169134  0.13682833  0.50106843  1
  Zn  Zn73  1  0.74582293  0.50481516  0.24176694  1
  Zn  Zn74  1  -0.00286159  0.74358466  0.74596681  1
  Zn  Zn75  1  0.37250696  0.88355849  0.49842216  1
  Zn  Zn76  1  0.60949230  0.63562494  -0.00024525  1
  Zn  Zn77  1  0.22564432  0.62705046  0.37781106  1
  Zn  Zn78  1  -0.01367255  0.47887490  -0.00071353  1
  Zn  Zn79  1  0.38138182  0.36985364  -0.01524470  1
  Zn  Zn80  1  0.24228261  0.11772955  0.90167574  1
  Zn  Zn81  1  0.38700748  0.38111548  0.50817521  1
  Zn  Zn82  1  0.20874180  0.13797208  0.14979785  1
  Zn  Zn83  1  0.13001634  0.24812631  0.62516139  1
  Zn  Zn84  1  0.19480633  0.67413104  0.18595670  1
  Zn  Zn85  1  0.20231423  0.69953085  0.68686063  1
  Zn  Zn86  1  0.69015358  0.18595379  0.18926723  1
  Zn  Zn87  1  0.67044113  0.16542386  0.71137094  1
  Zn  Zn88  1  0.68609428  0.69040580  0.18276794  1
  Zn  Zn89  1  0.69027758  0.68628554  0.67685614  1
  Zn  Zn90  1  0.32615725  0.32521011  0.30292139  1
  Zn  Zn91  1  0.30296359  0.30364511  0.81742588  1
  Zn  Zn92  1  0.30252246  0.80260647  0.31719438  1
  Zn  Zn93  1  0.30538100  0.82529891  0.81862104  1
  Zn  Zn94  1  0.86279130  0.31638649  0.44703597  1
  Zn  Zn95  1  0.79084009  0.30692590  0.81018989  1
  Zn  Zn96  1  0.81902215  0.80649697  0.30302051  1
  Zn  Zn97  1  0.80979970  0.80953472  0.81190747  1
  Zn  Zn98  1  0.20901121  0.45067868  0.45090537  1
  Zn  Zn99  1  0.21268432  0.43270875  0.93619562  1
  Zn  Zn100  1  0.19289570  0.93948725  0.43672527  1
  Zn  Zn101  1  0.15701928  0.96451393  0.88999778  1
  Zn  Zn102  1  0.70416150  0.42736896  0.43494393  1
  Zn  Zn103  1  0.66925417  0.43986702  0.93369345  1
  Zn  Zn104  1  0.68216070  0.94393370  0.43666018  1
  Zn  Zn105  1  0.68758211  0.93273161  0.93974513  1
  Zn  Zn106  1  0.31964461  0.05528869  0.07179253  1
  Zn  Zn107  1  0.31304892  0.06815761  0.55185418  1
  Zn  Zn108  1  0.31408690  0.56249788  0.06374378  1
  Zn  Zn109  1  0.31422699  0.57110181  0.56028881  1
  Zn  Zn110  1  0.81403162  0.06373463  0.05745848  1
  Zn  Zn111  1  0.81503140  0.06013474  0.56560267  1
  Zn  Zn112  1  0.81063031  0.55784378  0.05465934  1
  Zn  Zn113  1  0.91863286  0.57096146  0.57223821  1
  Zn  Zn114  1  0.44807578  0.44104149  0.18926922  1
  Zn  Zn115  1  0.44539236  0.43351116  0.81998870  1
  Zn  Zn116  1  0.43271013  0.93692469  0.19994800  1
  Zn  Zn117  1  0.42581265  0.93429262  0.67722571  1
  Zn  Zn118  1  0.85893868  0.37719897  0.25240063  1
  Zn  Zn119  1  0.95424712  0.44440055  0.71988652  1
  Zn  Zn120  1  0.97055243  0.92165758  0.15755998  1
  Zn  Zn121  1  0.94058906  0.93008695  0.70505466  1
  Zn  Zn122  1  0.06788522  0.05568073  0.30960177  1
  Zn  Zn123  1  0.03824303  0.09264203  0.87910723  1
  Zn  Zn124  1  0.06081760  0.55721275  0.29903142  1
  Zn  Zn125  1  0.07066995  0.56518927  0.81004293  1
  Zn  Zn126  1  0.57412807  0.06868567  0.31300045  1
  Zn  Zn127  1  0.55657781  0.05904697  0.81582135  1
  Zn  Zn128  1  0.56968104  0.55367514  0.31776285  1
  Zn  Zn129  1  0.55740627  0.57765570  0.81980285  1
  Zn  Zn130  1  0.44248306  0.18988274  0.44391888  1
  Zn  Zn131  1  0.43212797  0.18002387  0.93926611  1
  Zn  Zn132  1  0.46078986  0.68171347  0.43034521  1
  Zn  Zn133  1  0.43893942  0.68684283  0.94111218  1
  Zn  Zn134  1  0.97000507  0.17132706  0.39337597  1
  Zn  Zn135  1  0.92609729  0.20306781  0.93513885  1
  Zn  Zn136  1  1.05466129  0.67926824  0.44457018  1
  Zn  Zn137  1  0.94894046  0.66191978  0.90101354  1
  Zn  Zn138  1  0.05450611  0.30392429  0.06584084  1
  Zn  Zn139  1  0.06228190  0.32615561  0.42880168  1
  Zn  Zn140  1  0.03640461  0.78325568  0.01928328  1
  Zn  Zn141  1  0.05332127  0.82116416  0.59571685  1
  Zn  Zn142  1  0.55891818  0.31819573  0.06483726  1
  Zn  Zn143  1  0.56337846  0.31281781  0.57403561  1
  Zn  Zn144  1  0.56294641  0.81538789  0.07975056  1
  Zn  Zn145  1  0.55387239  0.81807988  0.56402049  1
  O  O146  1  0.09827906  0.13939000  0.12547605  1
  O  O147  1  0.08067062  0.15624442  0.57314890  1
  O  O148  1  0.12095774  0.61790215  0.11136433  1
  O  O149  1  0.11559668  0.63993358  0.63544278  1
  O  O150  1  0.61688002  0.11893979  0.12116184  1
  O  O151  1  0.61925397  0.11597837  0.62180543  1
  O  O152  1  0.62024175  0.61601710  0.12616660  1
  O  O153  1  0.62297598  0.62806147  0.60936138  1
  O  O154  1  0.39512290  0.38398818  0.37764329  1
  O  O155  1  0.36479934  0.37729302  0.87299777  1
  O  O156  1  0.39311357  0.82940276  0.39074466  1
  O  O157  1  0.38936349  0.87924030  0.88828664  1
  O  O158  1  0.86416118  0.40307949  0.36186817  1
  O  O159  1  0.84208783  0.38285301  0.87552231  1
  O  O160  1  0.88095549  0.87677528  0.37642116  1
  O  O161  1  0.87389578  0.87986758  0.87130072  1
  O  O162  1  0.23124282  0.00525861  0.34968102  1
  O  O163  1  0.27443738  -0.02008696  0.87905404  1
  O  O164  1  0.27123889  0.50628646  0.37172394  1
  O  O165  1  0.24776523  0.51289268  0.85792325  1
  O  O166  1  0.76264716  -0.00214919  0.36728346  1
  O  O167  1  0.75187421  -0.00931234  0.86298298  1
  O  O168  1  0.75449995  0.51485633  0.36663059  1
  O  O169  1  0.73994811  0.51048444  0.87550850  1
  O  O170  1  0.24380080  0.50148968  0.13570137  1
  O  O171  1  0.26560989  0.48931624  0.63382803  1
  O  O172  1  0.24662401  1.02289016  0.15433221  1
  O  O173  1  0.26036176  0.98656098  0.60660715  1
  O  O174  1  0.73126169  0.50419124  0.12087051  1
  O  O175  1  0.80787716  0.41648257  0.59588931  1
  O  O176  1  0.75007765  0.99399916  0.13027813  1
  O  O177  1  0.74062074  0.99309037  0.63004142  1
  O  O178  1  0.01112907  0.34589954  0.23509569  1
  O  O179  1  0.00372343  0.35666611  0.76887373  1
  O  O180  1  -0.00652257  0.85402740  0.25058353  1
  O  O181  1  0.01210092  0.84667104  0.70644892  1
  O  O182  1  0.51168955  0.36679482  0.25857608  1
  O  O183  1  0.49812294  0.35332825  0.75115764  1
  O  O184  1  0.51966976  0.88210514  0.24476527  1
  O  O185  1  0.50486058  0.86442248  0.75446063  1
  O  O186  1  0.50733827  0.13501158  0.24598098  1
  O  O187  1  0.50473329  0.12840972  0.73811110  1
  O  O188  1  0.51185258  0.65233908  0.26951648  1
  O  O189  1  0.50717402  0.64872551  0.74251042  1
  O  O190  1  0.97873258  0.12680511  0.26558149  1
  O  O191  1  0.98567470  0.13867207  0.77097458  1
  O  O192  1  0.99307542  0.63065431  0.23343898  1
  O  O193  1  0.99096984  0.64391830  0.79416924  1
  O  O194  1  0.38753841  0.24988053  0.01914968  1
  O  O195  1  0.36193388  0.24594320  0.50927392  1
  O  O196  1  0.37031437  0.75249958  0.00911936  1
  O  O197  1  0.39221404  0.76848779  0.45324810  1
  O  O198  1  0.85028159  0.24982511  0.00611772  1
  O  O199  1  0.88583099  0.23494115  0.53804724  1
  O  O200  1  0.86660719  0.74416519  0.00816381  1
  O  O201  1  0.85509181  0.76426715  0.50684223  1
  O  O202  1  0.14518180  0.26273429  0.48670489  1
  O  O203  1  0.14158342  0.25050378  1.01167925  1
  O  O204  1  0.11837740  0.75305833  0.50754453  1
  O  O205  1  0.14588262  0.73615713  0.99716634  1
  O  O206  1  0.62581214  0.23465997  0.51431326  1
  O  O207  1  0.62327540  0.24189816  0.99641199  1
  O  O208  1  0.63221692  0.76629341  0.49647486  1
  O  O209  1  0.63483415  0.75379312  1.00879076  1
  O  O210  1  0.49929837  0.24263688  0.13568682  1
  O  O211  1  0.49253550  0.24263455  0.63744780  1
  O  O212  1  0.48662899  0.74702244  0.12335115  1
  O  O213  1  0.50315010  0.74548493  0.63662883  1
  O  O214  1  0.97360974  0.23295321  0.10699013  1
  O  O215  1  0.99021290  0.24729781  0.65300495  1
  O  O216  1  0.99362984  0.73596350  0.12089962  1
  O  O217  1  0.96945444  0.73315244  0.60543656  1
  O  O218  1  -0.03525599  0.28047849  0.40638808  1
  O  O219  1  0.00538443  0.25626230  0.87015595  1
  O  O220  1  0.00409563  0.74924293  0.35728050  1
  O  O221  1  0.02459705  0.75667052  0.90575135  1
  O  O222  1  0.50040213  0.26331418  0.36774488  1
  O  O223  1  0.50057022  0.24003325  0.86691683  1
  O  O224  1  0.50404322  0.71025603  0.31750586  1
  O  O225  1  0.49451219  0.75816411  0.86301945  1
  O  O226  1  0.23436474  0.14105203  0.49726597  1
  O  O227  1  0.25587046  0.13750952  1.02030589  1
  O  O228  1  0.25268800  0.64735554  0.50314851  1
  O  O229  1  0.25225550  0.62907912  0.98725581  1
  O  O230  1  0.74858204  0.11804591  0.49051831  1
  O  O231  1  0.73242498  0.13085103  1.00769370  1
  O  O232  1  0.73353656  0.64072105  0.48977453  1
  O  O233  1  0.74151980  0.64306408  1.00612103  1
  O  O234  1  0.26315752  0.35394647  0.00304444  1
  O  O235  1  0.26195371  0.36782370  0.51235308  1
  O  O236  1  0.26395210  0.85366210  -0.00234692  1
  O  O237  1  0.25331768  0.86083462  0.49289012  1
  O  O238  1  0.72961657  0.36084952  0.00245029  1
  O  O239  1  0.77053632  0.36113924  0.49684047  1
  O  O240  1  0.74576580  0.86309936  0.01010428  1
  O  O241  1  0.75252729  0.87675684  0.50267939  1
  O  O242  1  0.12307421  0.49413821  0.22806832  1
  O  O243  1  0.13475079  0.51087211  0.72494104  1
  O  O244  1  0.11756027  0.98363335  0.24068644  1
  O  O245  1  0.13116740  1.04143509  0.69747737  1
  O  O246  1  0.62213900  0.49158782  0.23692642  1
  O  O247  1  0.56479864  0.50526256  0.71768125  1
  O  O248  1  0.64057791  0.99784599  0.24572518  1
  O  O249  1  0.63005889  0.99604227  0.74315469  1
  O  O250  1  0.37772020  0.01955717  0.25265444  1
  O  O251  1  0.38981641  -0.00531634  0.76674007  1
  O  O252  1  0.37011807  0.49812112  0.25501288  1
  O  O253  1  0.37198635  0.50240723  0.75227596  1
  O  O254  1  0.86589939  0.00953199  0.25346928  1
  O  O255  1  0.86906135  0.00280442  0.76094699  1
  O  O256  1  0.86900015  0.51214844  0.24029444  1
  O  O257  1  0.88257623  0.50318146  0.78487138  1
  O  O258  1  0.10961668  0.42646122  0.40446638  1
  O  O259  1  0.13727602  0.36671920  0.87540674  1
  O  O260  1  0.10523352  0.88074078  0.38158315  1
  O  O261  1  0.14117296  0.85722462  0.88195574  1
  O  O262  1  0.61549283  0.38734978  0.36278869  1
  O  O263  1  0.61342680  0.35585662  0.87899199  1
  O  O264  1  0.63341619  0.88044489  0.35888645  1
  O  O265  1  0.61131602  0.88318064  0.86620420  1
  O  O266  1  0.39239483  0.13284094  0.13824642  1
  O  O267  1  0.38433174  0.13400406  0.61823876  1
  O  O268  1  0.37563794  0.63192334  0.12777590  1
  O  O269  1  0.40611258  0.61839160  0.61148008  1
  O  O270  1  0.87573036  0.12866970  0.13327791  1
  O  O271  1  0.88797352  0.11492693  0.64093526  1
  O  O272  1  0.88445575  0.62547040  0.12102319  1
  O  O273  1  0.84299062  0.63757711  0.62145029  1
  O  O274  1  0.27020257  0.24500853  0.12294034  1
  O  O275  1  0.25385358  0.26046865  0.62637670  1
  O  O276  1  0.25908710  0.73877982  0.11151609  1
  O  O277  1  0.24982796  0.76364900  0.60548017  1
  O  O278  1  0.75388560  0.24626538  0.11385920  1
  O  O279  1  0.69165042  0.33078937  0.67476765  1
  O  O280  1  0.75842009  0.75728520  0.11600395  1
  O  O281  1  0.74815810  0.76517804  0.61155159  1
  O  O282  1  0.26446490  0.26590827  0.38297927  1
  O  O283  1  0.25727405  0.23405930  0.89672720  1
  O  O284  1  0.23545069  0.74467681  0.39013503  1
  O  O285  1  0.24858528  0.73883089  0.88064798  1
  O  O286  1  0.76754897  0.23723650  0.38205203  1
  O  O287  1  0.72638892  0.24642905  0.88915451  1
  O  O288  1  0.75632922  0.74182674  0.37795032  1
  O  O289  1  0.74956868  0.74462511  0.88870878  1
  O  O290  1  -0.00055112  0.12646140  -0.01152778  1
  O  O291  1  -0.03180955  0.10801296  0.49671849  1
  O  O292  1  0.01611816  0.62118107  -0.00133300  1
  O  O293  1  0.00890101  0.59170361  0.50526454  1
  O  O294  1  0.50570289  0.11437063  0.01106166  1
  O  O295  1  0.51126254  0.11889561  0.51026678  1
  O  O296  1  0.49826308  0.60882927  -0.00456315  1
  O  O297  1  0.52372052  0.62977397  0.50866195  1
  O  O298  1  0.50711338  0.36759297  0.48860720  1
  O  O299  1  0.49806864  0.39014133  1.00230770  1
  O  O300  1  0.50383668  0.89837418  0.50369250  1
  O  O301  1  0.49901148  0.88041242  0.99762770  1
  O  O302  1  0.99351178  0.42798313  0.51018764  1
  O  O303  1  1.00619619  0.36546278  0.98001856  1
  O  O304  1  0.98728285  0.87679143  0.49028746  1
  O  O305  1  1.03494226  0.89116764  1.05697646  1
  O  O306  1  0.49264128  0.48775528  0.36962683  1
  O  O307  1  0.50957521  0.49818792  0.88741533  1
  O  O308  1  0.51400980  1.00841043  0.38718272  1
  O  O309  1  0.49301823  0.99157284  0.88830505  1
  O  O310  1  0.97850079  0.50957981  0.37089653  1
  O  O311  1  1.02126394  0.47593656  0.87449862  1
  O  O312  1  0.98597976  0.98915985  0.37651645  1
  O  O313  1  0.98494796  0.99095953  0.87215431  1
  O  O314  1  -0.01284891  0.02748920  0.12412431  1
  O  O315  1  -0.00786404  -0.01210671  0.60857966  1
  O  O316  1  0.01753077  0.50875188  0.10990923  1
  O  O317  1  -0.00556807  0.52167953  0.64774572  1
  O  O318  1  0.50597283  0.00595760  0.12025379  1
  O  O319  1  0.50729826  0.00692177  0.62292598  1
  O  O320  1  0.51212400  0.49916506  0.11530166  1
  O  O321  1  0.52182559  0.52351049  0.65592798  1
  O  O322  1  0.24778254  0.39822783  0.26218889  1
  O  O323  1  0.25674609  0.38855096  0.74198852  1
  O  O324  1  0.25167231  0.88125611  0.24912465  1
  O  O325  1  0.25269757  0.87579968  0.73303007  1
  O  O326  1  0.73703761  0.37979359  0.25203451  1
  O  O327  1  0.72515551  0.37107160  0.73518417  1
  O  O328  1  0.75169151  0.88340016  0.23996385  1
  O  O329  1  0.74244067  0.88259280  0.74078319  1
  O  O330  1  0.26718958  0.14135941  0.25507260  1
  O  O331  1  0.18958476  0.07918795  0.71462297  1
  O  O332  1  0.23776213  0.60271917  0.26130899  1
  O  O333  1  0.25675059  0.61722152  0.75496472  1
  O  O334  1  0.75494406  0.11750810  0.26112341  1
  O  O335  1  0.76220729  0.10999647  0.74090400  1
  O  O336  1  0.75500407  0.62874973  0.25242532  1
  O  O337  1  0.74079543  0.63291843  0.76155038  1
  O  O338  1  0.38424994  0.13475228  0.36461420  1
  O  O339  1  0.36752445  0.10400482  0.88503683  1
  O  O340  1  0.38963738  0.60892205  0.37794365  1
  O  O341  1  0.36388651  0.62815692  0.87466337  1
  O  O342  1  0.86422244  0.11411288  0.36483554  1
  O  O343  1  0.86845974  0.11508840  0.86851415  1
  O  O344  1  0.86089103  0.61635528  0.35831527  1
  O  O345  1  0.84373336  0.61905630  0.88524950  1
  O  O346  1  0.11996771  0.38611864  0.11309030  1
  O  O347  1  0.14637840  0.36689612  0.62629846  1
  O  O348  1  0.11689966  0.92330895  0.06348012  1
  O  O349  1  0.14622424  0.88281347  0.61078331  1
  O  O350  1  0.62262262  0.38189690  0.13863927  1
  O  O351  1  0.64022671  0.37658369  0.63390711  1
  O  O352  1  0.64009526  0.88340585  0.13462152  1
  O  O353  1  0.63015293  0.88566349  0.63160888  1
  O  O354  1  0.07024365  0.32859237  0.27410274  1
  O  O355  1  0.11603883  0.23562862  0.74580049  1
  O  O356  1  0.10919939  0.73967188  0.23404738  1
  O  O357  1  0.13000190  0.74336822  0.77042431  1
  O  O358  1  0.62151933  0.26225283  0.24536420  1
  O  O359  1  0.61063651  0.24046896  0.76750363  1
  O  O360  1  0.63349463  0.76771705  0.24500033  1
  O  O361  1  0.62973702  0.76633886  0.74413494  1
  O  O362  1  0.38944574  0.24383729  0.24275819  1
  O  O363  1  0.38244764  0.24386098  0.74692328  1
  O  O364  1  0.36422040  0.75163245  0.23361807  1
  O  O365  1  0.38110670  0.75607036  0.75101971  1
  O  O366  1  0.86258690  0.23478825  0.23494421  1
  O  O367  1  0.85966867  0.23139087  0.75947102  1
  O  O368  1  0.88232902  0.73449982  0.23371383  1
  O  O369  1  0.86569409  0.75665671  0.72723943  1
  O  O370  1  0.37330369  0.49729605  0.48874772  1
  O  O371  1  0.38646242  0.49500779  1.00654254  1
  O  O372  1  0.39245581  1.00689436  0.49120978  1
  O  O373  1  0.38667278  0.98980308  1.00376857  1
  O  O374  1  0.86101918  0.51418951  0.48560911  1
  O  O375  1  0.87697404  0.50145559  0.97923558  1
  O  O376  1  0.87555757  0.98537227  0.49066061  1
  O  O377  1  0.86401380  0.99807608  0.98203706  1
  O  O378  1  0.12906427  -0.01825733  0.01689153  1
  O  O379  1  0.11297944  0.02036978  0.48935367  1
  O  O380  1  0.14725555  0.50678663  0.00645079  1
  O  O381  1  0.13481840  0.50532657  0.53924741  1
  O  O382  1  0.61780994  0.00316068  0.00495879  1
  O  O383  1  0.62028077  0.01039131  0.51119446  1
  O  O384  1  0.61546936  0.50312530  0.01223721  1
  O  O385  1  0.63980252  0.50314393  0.50463639  1
  O  O386  1  0.38373173  0.35927375  0.13467955  1
  O  O387  1  0.36972741  0.35490035  0.62342688  1
  O  O388  1  0.38189152  0.87044309  0.11647049  1
  O  O389  1  0.36452348  0.87084438  0.61244031  1
  O  O390  1  0.87669696  0.35478184  0.14036803  1
  O  O391  1  0.86220969  0.38364091  0.63247722  1
  O  O392  1  0.86933969  0.86359243  0.12715498  1
  O  O393  1  0.85936127  0.87763398  0.61461522  1
  O  O394  1  0.08947927  0.14051508  0.38951487  1
  O  O395  1  0.14609953  0.07241023  0.86919050  1
  O  O396  1  0.11423429  0.59637509  0.38993854  1
  O  O397  1  0.14143616  0.63140138  0.88346094  1
  O  O398  1  0.64607353  0.12617269  0.38397765  1
  O  O399  1  0.61311448  0.12920039  0.88836343  1
  O  O400  1  0.63339907  0.61706509  0.38754790  1
  O  O401  1  0.63733044  0.62603326  0.88381352  1
