# generated using pymatgen
data_V73Zn73O256
_symmetry_space_group_name_H-M   'P 1'
_cell_length_a   16.93891415
_cell_length_b   16.87071428
_cell_length_c   16.88660345
_cell_angle_alpha   90.12434309
_cell_angle_beta   89.91642260
_cell_angle_gamma   90.01867824
_symmetry_Int_Tables_number   1
_chemical_formula_structural   V73Zn73O256
_chemical_formula_sum   'V73 Zn73 O256'
_cell_volume   4825.69461353
_cell_formula_units_Z   1
loop_
 _symmetry_equiv_pos_site_id
 _symmetry_equiv_pos_as_xyz
  1  'x, y, z'
loop_
 _atom_site_type_symbol
 _atom_site_label
 _atom_site_symmetry_multiplicity
 _atom_site_fract_x
 _atom_site_fract_y
 _atom_site_fract_z
 _atom_site_occupancy
  V  V0  1  0.15307362  0.86724387  0.74861561  1
  V  V1  1  0.50838650  0.50643027  0.50089171  1
  V  V2  1  0.75563004  0.24065446  -0.00596719  1
  V  V3  1  0.62728584  0.86014059  0.75386923  1
  V  V4  1  0.49756544  0.13109001  0.62882246  1
  V  V5  1  0.64683097  0.50490409  0.62970183  1
  V  V6  1  0.10956718  0.49756268  0.12061014  1
  V  V7  1  0.51704952  0.37383907  0.37111232  1
  V  V8  1  0.37823958  0.62844295  0.75666818  1
  V  V9  1  0.14505606  0.74794194  0.36717065  1
  V  V10  1  0.11895201  0.12712541  0.50960995  1
  V  V11  1  0.14129881  -0.00212484  0.63466580  1
  V  V12  1  0.89633814  0.87514927  0.01517090  1
  V  V13  1  0.84685840  0.62232533  0.78451681  1
  V  V14  1  -0.01078125  0.24210397  0.73893902  1
  V  V15  1  0.76543129  0.12635722  0.37146775  1
  V  V16  1  0.74562837  0.76793357  -0.00606018  1
  V  V17  1  -0.01351273  0.11267924  0.13256255  1
  V  V18  1  0.36349348  0.10763119  0.75428092  1
  V  V19  1  0.36280924  0.87313330  0.50560182  1
  V  V20  1  -0.00300653  0.86892552  0.84793581  1
  V  V21  1  0.87863680  0.00607827  0.86390510  1
  V  V22  1  0.12061987  0.25816823  0.36607946  1
  V  V23  1  0.63262306  0.00226372  0.11731416  1
  V  V24  1  0.51128406  0.25416942  0.25270141  1
  V  V25  1  0.74005683  0.59939987  0.36024845  1
  V  V26  1  0.25198186  0.24916683  0.50049814  1
  V  V27  1  0.36962055  0.00299937  0.36957547  1
  V  V28  1  0.25462837  0.38156377  0.63162181  1
  V  V29  1  0.12269940  0.37015765  0.75690242  1
  V  V30  1  0.00240967  0.87272614  0.37987412  1
  V  V31  1  -0.00457785  0.64574622  0.12390477  1
  V  V32  1  0.36968823  0.25366277  0.12546977  1
  V  V33  1  0.13662199  0.73846171  0.88662807  1
  V  V34  1  0.24073673  0.48794535  0.24420350  1
  V  V35  1  0.61929121  0.37468018  0.75731288  1
  V  V36  1  0.62422224  0.62865735  -0.01773089  1
  V  V37  1  0.88034342  0.36336448  0.51129926  1
  V  V38  1  0.14717535  0.63241690  0.49798140  1
  V  V39  1  0.20460414  0.13544757  0.91269144  1
  V  V40  1  0.36748800  0.86397684  0.00514286  1
  V  V41  1  0.13348295  0.00317833  0.10572414  1
  V  V42  1  0.89566278  0.48873018  0.37076983  1
  V  V43  1  0.62990182  0.88197759  0.23760615  1
  V  V44  1  0.36930815  0.12317321  0.25040824  1
  V  V45  1  0.63743436  0.75500048  0.37181899  1
  V  V46  1  -0.01997906  0.37794506  0.88054547  1
  V  V47  1  0.61368553  0.23400469  0.88199433  1
  V  V48  1  0.38414548  0.74019759  0.61565990  1
  V  V49  1  0.62918770  0.00103294  0.62784648  1
  V  V50  1  0.49709246  0.49063481  -0.00680269  1
  V  V51  1  0.19071318  0.32169102  0.07765838  1
  V  V52  1  0.50143767  0.00004212  0.49939745  1
  V  V53  1  0.74746331  0.36932335  0.13735024  1
  V  V54  1  0.49563656  0.62896029  0.12408877  1
  V  V55  1  0.50361677  0.12536911  0.12061775  1
  V  V56  1  0.14272928  0.89549945  0.25257308  1
  V  V57  1  0.75655808  0.85966982  0.61292381  1
  V  V58  1  0.36603104  0.49650474  0.37261814  1
  V  V59  1  0.37796084  0.25260824  0.63613141  1
  V  V60  1  0.36953317  0.36986560  0.00353564  1
  V  V61  1  0.12692513  0.50746360  0.63229892  1
  V  V62  1  0.87710106  0.64694750  0.25641379  1
  V  V63  1  -0.02649637  0.24996137  0.25531315  1
  V  V64  1  0.35541972  0.49654994  0.87481874  1
  V  V65  1  0.62588559  0.49733962  0.13834755  1
  V  V66  1  -0.00237033  -0.00660734  0.50684166  1
  V  V67  1  0.49328553  0.00519287  -0.00925968  1
  V  V68  1  0.36857204  0.62938791  0.25049316  1
  V  V69  1  0.49478224  0.87145441  0.36921272  1
  V  V70  1  0.49887922  0.86225424  0.86972737  1
  V  V71  1  0.62782545  0.14176517  0.49055014  1
  V  V72  1  -0.00571659  0.64368752  0.62926170  1
  Zn  Zn73  1  0.24385416  0.12290443  0.37054285  1
  Zn  Zn74  1  0.49263307  0.75606623  0.23939495  1
  Zn  Zn75  1  0.81239481  0.03351486  0.21915119  1
  Zn  Zn76  1  0.76044767  0.37549522  0.62863493  1
  Zn  Zn77  1  0.62882152  0.64473300  0.51502111  1
  Zn  Zn78  1  0.00545100  0.50338629  0.49814226  1
  Zn  Zn79  1  0.86767050  0.37805595  0.00562043  1
  Zn  Zn80  1  0.37806169  0.37442127  0.49946938  1
  Zn  Zn81  1  0.75877732  0.00495292  0.74581323  1
  Zn  Zn82  1  0.18037040  0.17405629  0.18503468  1
  Zn  Zn83  1  0.18704630  0.19048729  0.69032286  1
  Zn  Zn84  1  0.18301751  0.67398756  0.19000497  1
  Zn  Zn85  1  0.20883023  0.68880187  0.69089668  1
  Zn  Zn86  1  0.69679557  0.18562718  0.19063734  1
  Zn  Zn87  1  0.66510732  0.19322155  0.69308479  1
  Zn  Zn88  1  0.68759147  0.69890659  0.18457001  1
  Zn  Zn89  1  0.69687599  0.68057024  0.69544171  1
  Zn  Zn90  1  0.31301117  0.31046548  0.31216786  1
  Zn  Zn91  1  0.30246855  0.30171964  0.82135152  1
  Zn  Zn92  1  0.31084634  0.81437730  0.31255872  1
  Zn  Zn93  1  0.31980935  0.80464481  0.81924516  1
  Zn  Zn94  1  0.79996346  0.31391617  0.32731286  1
  Zn  Zn95  1  0.80363013  0.30599801  0.80880013  1
  Zn  Zn96  1  0.82793463  0.85025404  0.29885452  1
  Zn  Zn97  1  0.81136529  0.80286504  0.80505407  1
  Zn  Zn98  1  0.18553970  0.43641291  0.44361380  1
  Zn  Zn99  1  0.17557406  0.44721541  0.93849699  1
  Zn  Zn100  1  0.18573308  0.94109374  0.43963217  1
  Zn  Zn101  1  0.19376231  0.94526344  0.92203536  1
  Zn  Zn102  1  0.69533032  0.42908743  0.44788288  1
  Zn  Zn103  1  0.67966821  0.42662783  0.95083776  1
  Zn  Zn104  1  0.67910849  0.93548555  0.42860004  1
  Zn  Zn105  1  0.69085657  0.94590953  0.93173650  1
  Zn  Zn106  1  0.31170464  0.05998798  0.05803819  1
  Zn  Zn107  1  0.31478033  0.06482977  0.56171031  1
  Zn  Zn108  1  0.31066971  0.55568244  0.06849136  1
  Zn  Zn109  1  0.31985218  0.56235759  0.56372391  1
  Zn  Zn110  1  0.82446454  0.06210782  0.04099891  1
  Zn  Zn111  1  0.78691770  0.01427324  0.50982393  1
  Zn  Zn112  1  0.78889984  0.60082275  0.08627768  1
  Zn  Zn113  1  0.83512234  0.61290785  0.52095655  1
  Zn  Zn114  1  0.43870814  0.43822147  0.18745499  1
  Zn  Zn115  1  0.44300555  0.45297188  0.69822331  1
  Zn  Zn116  1  0.43357205  0.93932549  0.18001457  1
  Zn  Zn117  1  0.44114118  0.93372282  0.68808656  1
  Zn  Zn118  1  0.93262411  0.42867134  0.19385202  1
  Zn  Zn119  1  0.93612635  0.45141157  0.69216714  1
  Zn  Zn120  1  0.95709711  0.92924895  0.19560748  1
  Zn  Zn121  1  0.93959838  0.93870987  0.67838301  1
  Zn  Zn122  1  0.05547539  0.06693474  0.32013442  1
  Zn  Zn123  1  0.06427240  0.05749451  0.81349943  1
  Zn  Zn124  1  0.06305353  0.57229398  0.31146287  1
  Zn  Zn125  1  0.05037708  0.56466723  0.81387608  1
  Zn  Zn126  1  0.56012262  0.06327596  0.30859792  1
  Zn  Zn127  1  0.55846915  0.06129610  0.80797590  1
  Zn  Zn128  1  0.55512314  0.56713891  0.31401355  1
  Zn  Zn129  1  0.55460548  0.55725842  0.80338649  1
  Zn  Zn130  1  0.43951587  0.18951101  0.43891971  1
  Zn  Zn131  1  0.43173178  0.18942702  0.93309363  1
  Zn  Zn132  1  0.43867370  0.68680684  0.43421241  1
  Zn  Zn133  1  0.43712781  0.68442769  0.93472954  1
  Zn  Zn134  1  0.94080046  0.18611008  0.44069758  1
  Zn  Zn135  1  0.99028903  0.17090439  0.91573108  1
  Zn  Zn136  1  0.96851992  0.71546300  0.47361925  1
  Zn  Zn137  1  0.94302750  0.70073148  0.93863554  1
  Zn  Zn138  1  0.00851300  0.27092429  0.04541035  1
  Zn  Zn139  1  0.05769488  0.31837981  0.56427623  1
  Zn  Zn140  1  0.07439134  0.81926253  0.06526395  1
  Zn  Zn141  1  0.08201662  0.81477901  0.56752149  1
  Zn  Zn142  1  0.56532865  0.31106420  0.06218124  1
  Zn  Zn143  1  0.56127755  0.32278911  0.56569012  1
  Zn  Zn144  1  0.55955889  0.81313189  0.05324135  1
  Zn  Zn145  1  0.56101140  0.81467032  0.56273883  1
  O  O146  1  0.11109776  0.10934713  0.12634603  1
  O  O147  1  0.12929300  0.11742507  0.61617636  1
  O  O148  1  0.10157139  0.61002907  0.14097042  1
  O  O149  1  0.14299984  0.61536983  0.62076213  1
  O  O150  1  0.61249168  0.11370442  0.13353860  1
  O  O151  1  0.61474151  0.12107181  0.61493976  1
  O  O152  1  0.60948775  0.61351801  0.11523022  1
  O  O153  1  0.62828640  0.61128424  0.62512913  1
  O  O154  1  0.38202964  0.38734518  0.37374502  1
  O  O155  1  0.35651482  0.37797657  0.89572184  1
  O  O156  1  0.37963632  0.88224884  0.38094057  1
  O  O157  1  0.39537900  0.87556870  0.87393223  1
  O  O158  1  0.86844463  0.38584345  0.39009802  1
  O  O159  1  0.87984924  0.37978609  0.86606799  1
  O  O160  1  0.90507714  0.85907506  0.38735713  1
  O  O161  1  0.89072108  0.87281287  0.86211095  1
  O  O162  1  0.26699495  0.00492828  0.38251687  1
  O  O163  1  0.23166588  0.04383732  0.87488107  1
  O  O164  1  0.26249793  0.49565607  0.36913148  1
  O  O165  1  0.25941679  0.51267790  0.89733759  1
  O  O166  1  0.75030577  0.01546407  0.39426003  1
  O  O167  1  0.76941386  -0.00294760  0.86593975  1
  O  O168  1  0.72756392  0.50058394  0.35917272  1
  O  O169  1  0.79191856  0.49743122  0.91091203  1
  O  O170  1  0.23508738  0.50533240  0.13810918  1
  O  O171  1  0.25071151  0.48592272  0.61983994  1
  O  O172  1  0.23351076  1.00688437  0.12338311  1
  O  O173  1  0.23986467  1.00205137  0.62027973  1
  O  O174  1  0.72971868  0.50198310  0.12193205  1
  O  O175  1  0.74388136  0.50396453  0.62149645  1
  O  O176  1  0.73235510  1.00809294  0.12095663  1
  O  O177  1  0.73711451  0.99542837  0.62064548  1
  O  O178  1  -0.00591500  0.34904602  0.24906453  1
  O  O179  1  0.01301787  0.37490122  0.75269196  1
  O  O180  1  0.02520696  0.87592325  0.27381931  1
  O  O181  1  0.00869932  0.87003406  0.74699643  1
  O  O182  1  0.49916374  0.36510289  0.25785490  1
  O  O183  1  0.51898225  0.37801428  0.73783770  1
  O  O184  1  0.49788725  0.87568892  0.25602125  1
  O  O185  1  0.51333808  0.88249124  0.76076748  1
  O  O186  1  0.49134116  0.13706463  0.24302509  1
  O  O187  1  0.49092478  0.11993031  0.73266398  1
  O  O188  1  0.49086472  0.62680206  0.23699465  1
  O  O189  1  0.46666090  0.57395598  0.73337259  1
  O  O190  1  0.99739158  0.12924912  0.24545134  1
  O  O191  1  1.00865949  0.14351828  0.75876351  1
  O  O192  1  0.98224554  0.63089158  0.25494313  1
  O  O193  1  1.01945257  0.63346035  0.72708045  1
  O  O194  1  0.37877798  0.25665028  0.01408752  1
  O  O195  1  0.36663743  0.25092025  0.50813932  1
  O  O196  1  0.37848987  0.76356129  -0.00967052  1
  O  O197  1  0.38164443  0.76202440  0.50334300  1
  O  O198  1  0.85555921  0.25601595  -0.00457591  1
  O  O199  1  0.88780562  0.26388020  0.50445869  1
  O  O200  1  0.86145550  0.77442862  -0.00656920  1
  O  O201  1  0.86069883  0.71895217  0.48758727  1
  O  O202  1  0.12942938  0.24049243  0.50093930  1
  O  O203  1  0.12595959  0.26839847  1.02433327  1
  O  O204  1  0.14246384  0.73652340  0.50484620  1
  O  O205  1  0.12912667  0.76026181  0.98582148  1
  O  O206  1  0.61670973  0.24047234  0.50427668  1
  O  O207  1  0.63214374  0.25602979  0.98908303  1
  O  O208  1  0.61525103  0.75483695  0.47677409  1
  O  O209  1  0.62867521  0.73559598  1.00093538  1
  O  O210  1  0.49343139  0.24621177  0.13392232  1
  O  O211  1  0.48903332  0.24286931  0.61547580  1
  O  O212  1  0.50178615  0.73275207  0.11961022  1
  O  O213  1  0.48358452  0.76774891  0.62979964  1
  O  O214  1  0.99138076  0.23126200  0.14979586  1
  O  O215  1  1.00261640  0.25196023  0.63761221  1
  O  O216  1  1.01168146  0.74373181  0.13276406  1
  O  O217  1  1.00082239  0.74439758  0.60626803  1
  O  O218  1  0.01322053  0.23933198  0.36519781  1
  O  O219  1  0.00524595  0.27290484  0.86016733  1
  O  O220  1  0.03179947  0.76673129  0.39464937  1
  O  O221  1  0.01566997  0.76639813  0.87371536  1
  O  O222  1  0.49328322  0.26231409  0.36324793  1
  O  O223  1  0.51483707  0.25438952  0.88919283  1
  O  O224  1  0.50127606  0.76196963  0.36753169  1
  O  O225  1  0.50657834  0.76380558  0.87952909  1
  O  O226  1  0.24262461  0.13627338  0.50119036  1
  O  O227  1  0.24399528  0.13582512  1.00737435  1
  O  O228  1  0.24588707  0.61637324  0.49642751  1
  O  O229  1  0.25204781  0.65658441  1.03431887  1
  O  O230  1  0.73040755  0.12489851  0.49433002  1
  O  O231  1  0.75004526  0.13993620  1.00922302  1
  O  O232  1  0.73247511  0.61823901  0.46538573  1
  O  O233  1  0.72240572  0.61043503  0.98534925  1
  O  O234  1  0.24999138  0.37694322  0.01142200  1
  O  O235  1  0.25319979  0.36562693  0.51101864  1
  O  O236  1  0.27204071  0.88587537  -0.01922760  1
  O  O237  1  0.26473700  0.87860972  0.49724843  1
  O  O238  1  0.74946774  0.36764434  0.01289112  1
  O  O239  1  0.76943904  0.37411096  0.50992834  1
  O  O240  1  0.73219676  0.86686349  0.00940426  1
  O  O241  1  0.74323055  0.88635282  0.51303692  1
  O  O242  1  0.13897307  0.50442904  0.25505266  1
  O  O243  1  0.12952625  0.49030819  0.73612928  1
  O  O244  1  0.13593750  0.99574478  0.26481247  1
  O  O245  1  0.12746852  0.99497216  0.73847429  1
  O  O246  1  0.61417517  0.50357697  0.23650920  1
  O  O247  1  0.62419660  0.49395654  0.73477570  1
  O  O248  1  0.61397726  0.99008037  0.23653952  1
  O  O249  1  0.63033427  1.00418055  0.73670393  1
  O  O250  1  0.38511960  0.01125829  0.25793233  1
  O  O251  1  0.37576436  0.00823784  0.74349963  1
  O  O252  1  0.36795319  0.50362000  0.25682967  1
  O  O253  1  0.35856073  0.47430770  0.77714414  1
  O  O254  1  0.86986682  -0.04809522  0.26342629  1
  O  O255  1  0.87975214  0.00108288  0.75729512  1
  O  O256  1  0.87481955  0.49365007  0.26947765  1
  O  O257  1  0.89169281  0.53252808  0.75508096  1
  O  O258  1  0.12697896  0.35685819  0.38553141  1
  O  O259  1  0.14071566  0.37798213  0.85605310  1
  O  O260  1  0.13659993  0.86650342  0.36779513  1
  O  O261  1  0.12049543  0.87562090  0.85637897  1
  O  O262  1  0.61480621  0.37505331  0.37800580  1
  O  O263  1  0.62649479  0.39112950  0.85876296  1
  O  O264  1  0.61323350  0.87199777  0.35883538  1
  O  O265  1  0.61974049  0.88417367  0.85976328  1
  O  O266  1  0.38358550  0.13293633  0.13093062  1
  O  O267  1  0.38110747  0.13288529  0.62949493  1
  O  O268  1  0.38657807  0.61315850  0.13787944  1
  O  O269  1  0.38739753  0.63680838  0.61661409  1
  O  O270  1  0.88202055  0.09004805  0.13766613  1
  O  O271  1  0.80895714  0.15785418  0.66641156  1
  O  O272  1  0.88477963  0.62077227  0.14767538  1
  O  O273  1  0.89719092  0.61806759  0.61852125  1
  O  O274  1  0.25375121  0.25457742  0.13305910  1
  O  O275  1  0.25736064  0.25961567  0.61745159  1
  O  O276  1  0.24642235  0.70890847  0.09023437  1
  O  O277  1  0.28556296  0.75885293  0.63894963  1
  O  O278  1  0.73681645  0.26276714  0.11605518  1
  O  O279  1  0.76894050  0.21328605  0.62773493  1
  O  O280  1  0.75352227  0.71619381  0.09376507  1
  O  O281  1  0.73538677  0.76027431  0.61930473  1
  O  O282  1  0.24441327  0.24918765  0.38613163  1
  O  O283  1  0.23925470  0.22155540  0.86773286  1
  O  O284  1  0.24432071  0.74980336  0.38140901  1
  O  O285  1  0.23743405  0.74467664  0.86967883  1
  O  O286  1  0.74336390  0.22705150  0.37486068  1
  O  O287  1  0.73501746  0.25439839  0.88733830  1
  O  O288  1  0.73365911  0.77023495  0.36620059  1
  O  O289  1  0.74643238  0.75775702  0.89312620  1
  O  O290  1  -0.01366823  0.14766274  0.03180175  1
  O  O291  1  0.01475058  0.11432910  0.49899047  1
  O  O292  1  -0.01613748  0.63414073  0.02518695  1
  O  O293  1  0.02660737  0.62122308  0.51603047  1
  O  O294  1  0.49194476  0.11574675  0.00867386  1
  O  O295  1  0.50284619  0.11740179  0.50698665  1
  O  O296  1  0.49498631  0.61238516  0.01041226  1
  O  O297  1  0.51373618  0.60993764  0.48142881  1
  O  O298  1  0.49762250  0.38176795  0.48349276  1
  O  O299  1  0.48767782  0.38538193  1.00842286  1
  O  O300  1  0.49564897  0.88513025  0.48729376  1
  O  O301  1  0.49635117  0.88497703  0.98752419  1
  O  O302  1  0.98726364  0.38667717  0.50421469  1
  O  O303  1  0.98276425  0.36689304  0.98859133  1
  O  O304  1  1.02241033  0.88702207  0.49605178  1
  O  O305  1  0.99520850  0.87012928  0.99355690  1
  O  O306  1  0.49749381  0.48712168  0.37652205  1
  O  O307  1  0.48281725  0.49613756  0.89172616  1
  O  O308  1  0.49203804  0.99275001  0.38035877  1
  O  O309  1  0.50694098  0.99903646  0.88920761  1
  O  O310  1  0.99808111  0.49869016  0.37364698  1
  O  O311  1  1.01467955  0.47519881  0.87356572  1
  O  O312  1  1.01269937  0.98766343  0.39408338  1
  O  O313  1  0.99350308  0.97860398  0.86756108  1
  O  O314  1  0.01371424  0.00744577  0.13247239  1
  O  O315  1  0.02138985  -0.00730278  0.61310676  1
  O  O316  1  0.00953095  0.49175913  0.13600726  1
  O  O317  1  0.02200407  0.50902779  0.62493025  1
  O  O318  1  0.50471501  0.00985521  0.11473345  1
  O  O319  1  0.50662503  0.00694517  0.61573507  1
  O  O320  1  0.50504563  0.50481759  0.11736814  1
  O  O321  1  0.48706116  0.49314240  0.59745922  1
  O  O322  1  0.25560000  0.38904486  0.25035849  1
  O  O323  1  0.24181937  0.36559458  0.73513689  1
  O  O324  1  0.24174382  0.87530658  0.24717039  1
  O  O325  1  0.25013580  0.88068502  0.76136613  1
  O  O326  1  0.74510700  0.36442330  0.23739439  1
  O  O327  1  0.73161814  0.36138282  0.73749689  1
  O  O328  1  0.72768037  0.87549681  0.24281370  1
  O  O329  1  0.73630362  0.87674766  0.73896391  1
  O  O330  1  0.26637338  0.13071065  0.25143715  1
  O  O331  1  0.26526896  0.12447247  0.73655372  1
  O  O332  1  0.26514933  0.61286438  0.24737968  1
  O  O333  1  0.28194700  0.60869787  0.73310595  1
  O  O334  1  0.74589155  0.11392125  0.26402711  1
  O  O335  1  0.76296964  0.13146160  0.73234388  1
  O  O336  1  0.75745467  0.63313168  0.25468189  1
  O  O337  1  0.74435466  0.61434772  0.77296248  1
  O  O338  1  0.37897824  0.11927464  0.36707461  1
  O  O339  1  0.38231994  0.12930047  0.85253644  1
  O  O340  1  0.38807890  0.60876509  0.35941672  1
  O  O341  1  0.38036061  0.60962725  0.86559223  1
  O  O342  1  0.86489940  0.12332375  0.38448230  1
  O  O343  1  0.89793680  0.10148366  0.88800575  1
  O  O344  1  0.85366608  0.60600675  0.36087968  1
  O  O345  1  0.87471590  0.63180457  0.88290473  1
  O  O346  1  0.13270889  0.38600939  0.13316192  1
  O  O347  1  0.13725491  0.38687700  0.62662534  1
  O  O348  1  0.11758026  0.89291634  0.14431490  1
  O  O349  1  0.13691838  0.88547141  0.63798801  1
  O  O350  1  0.62991654  0.38980933  0.12072167  1
  O  O351  1  0.63050208  0.38824351  0.62801890  1
  O  O352  1  0.61180115  0.88627060  0.13086903  1
  O  O353  1  0.62492390  0.88372149  0.63550536  1
  O  O354  1  0.13495693  0.24515366  0.26697000  1
  O  O355  1  0.11911955  0.26702022  0.74018174  1
  O  O356  1  0.13727655  0.74935749  0.26359761  1
  O  O357  1  0.14003884  0.76425986  0.74847354  1
  O  O358  1  0.60854664  0.24423275  0.24650839  1
  O  O359  1  0.61972052  0.26074724  0.76938047  1
  O  O360  1  0.61589701  0.76567293  0.25029157  1
  O  O361  1  0.62528577  0.76193618  0.74887278  1
  O  O362  1  0.38215453  0.24488982  0.24131169  1
  O  O363  1  0.37087521  0.24924185  0.73763705  1
  O  O364  1  0.37264720  0.73327350  0.25514023  1
  O  O365  1  0.38951864  0.73103775  0.75328163  1
  O  O366  1  0.87501869  0.24683156  0.26579387  1
  O  O367  1  0.88957373  0.25621457  0.75128778  1
  O  O368  1  0.87024255  0.74527983  0.26305437  1
  O  O369  1  0.86418904  0.71876651  0.74783221  1
  O  O370  1  0.38508337  0.50270621  0.48183811  1
  O  O371  1  0.37901988  0.49109024  1.00139369  1
  O  O372  1  0.38399179  0.99425417  0.49239253  1
  O  O373  1  0.39056188  0.99335396  1.00191735  1
  O  O374  1  0.87820266  0.51105759  0.47745138  1
  O  O375  1  0.84140932  0.50268541  0.96611840  1
  O  O376  1  0.89934832  1.00180601  0.51532400  1
  O  O377  1  0.86633273  0.97378973  0.98111643  1
  O  O378  1  0.12386615  -0.01346431  0.00823209  1
  O  O379  1  0.12784093  0.01355072  0.50915554  1
  O  O380  1  0.12106356  0.50088419  0.02135604  1
  O  O381  1  0.12983078  0.50915963  0.51113196  1
  O  O382  1  0.61344554  -0.00498145  0.01210918  1
  O  O383  1  0.61216127  0.00381648  0.50702798  1
  O  O384  1  0.60545286  0.50522760  0.00118231  1
  O  O385  1  0.61599007  0.49387909  0.51163780  1
  O  O386  1  0.37585775  0.36485802  0.12006954  1
  O  O387  1  0.36554892  0.37211183  0.62554756  1
  O  O388  1  0.37912657  0.87360284  0.10683400  1
  O  O389  1  0.37958168  0.88185337  0.60559957  1
  O  O390  1  0.85102086  0.39016091  0.12308103  1
  O  O391  1  0.87793849  0.38750473  0.61628554  1
  O  O392  1  0.89014694  0.87914944  0.11385656  1
  O  O393  1  0.85420902  0.87558615  0.63150874  1
  O  O394  1  0.12881438  0.13384755  0.39114464  1
  O  O395  1  0.09912328  0.12784469  0.90101131  1
  O  O396  1  0.12575679  0.63747884  0.38754272  1
  O  O397  1  0.11341451  0.64037139  0.87381710  1
  O  O398  1  0.61283384  0.12364449  0.38983516  1
  O  O399  1  0.62067574  0.13416779  0.87137535  1
  O  O400  1  0.63304629  0.64462996  0.35285919  1
  O  O401  1  0.59797005  0.62168205  0.88536714  1
