# generated using pymatgen
data_V73Zn73O256
_symmetry_space_group_name_H-M   'P 1'
_cell_length_a   16.89040931
_cell_length_b   16.91880132
_cell_length_c   16.93881614
_cell_angle_alpha   89.97687462
_cell_angle_beta   89.90889528
_cell_angle_gamma   89.81826748
_symmetry_Int_Tables_number   1
_chemical_formula_structural   V73Zn73O256
_chemical_formula_sum   'V73 Zn73 O256'
_cell_volume   4840.49806008
_cell_formula_units_Z   1
loop_
 _symmetry_equiv_pos_site_id
 _symmetry_equiv_pos_as_xyz
  1  'x, y, z'
loop_
 _atom_site_type_symbol
 _atom_site_label
 _atom_site_symmetry_multiplicity
 _atom_site_fract_x
 _atom_site_fract_y
 _atom_site_fract_z
 _atom_site_occupancy
  V  V0  1  0.75449365  0.00533828  0.23909900  1
  V  V1  1  0.74583825  0.13478004  0.87977259  1
  V  V2  1  0.12037185  0.64004097  0.49979682  1
  V  V3  1  0.00492530  0.62453867  0.63881147  1
  V  V4  1  -0.00489539  0.12957178  0.62373202  1
  V  V5  1  0.47075036  0.71891486  0.21608777  1
  V  V6  1  0.61255609  0.01329456  0.12080938  1
  V  V7  1  0.10847251  0.48972050  0.14681972  1
  V  V8  1  0.00322567  0.25009772  0.74870999  1
  V  V9  1  0.87295509  -0.00320135  0.37361311  1
  V  V10  1  0.75160272  0.12770106  0.37512453  1
  V  V11  1  0.86461409  0.50314732  0.36293123  1
  V  V12  1  0.75436511  0.89215065  0.10872935  1
  V  V13  1  0.12260110  0.74549028  0.85764318  1
  V  V14  1  0.12724020  0.24941860  0.36674888  1
  V  V15  1  0.12724892  -0.01172010  0.62980339  1
  V  V16  1  0.25277257  0.62734752  0.37010162  1
  V  V17  1  0.26460708  0.49680937  0.26051753  1
  V  V18  1  0.36947170  0.89433775  -0.01732913  1
  V  V19  1  0.11968624  0.10688814  -0.00816839  1
  V  V20  1  0.35745736  0.86705451  0.49134330  1
  V  V21  1  0.25808515  0.37867171  0.13054328  1
  V  V22  1  0.37639558  0.12453599  0.71534938  1
  V  V23  1  0.38179264  0.23360763  0.13176262  1
  V  V24  1  -0.00996830  0.36548606  0.89906442  1
  V  V25  1  0.89045665  0.87275068  0.00147858  1
  V  V26  1  0.74758819  0.72179187  0.50493822  1
  V  V27  1  0.11441527  0.74988648  0.35067247  1
  V  V28  1  0.23907298  0.49932415  0.73703248  1
  V  V29  1  0.25063542  0.87369962  0.13028050  1
  V  V30  1  0.60461597  0.61939009  -0.01000009  1
  V  V31  1  0.62624864  0.25983621  0.37551670  1
  V  V32  1  0.00234571  0.36921955  0.35986619  1
  V  V33  1  0.26191963  0.23796660  0.50171809  1
  V  V34  1  0.73621783  0.00350808  0.74651590  1
  V  V35  1  0.87925985  0.00800038  0.88138910  1
  V  V36  1  0.12776522  0.12417892  0.49644713  1
  V  V37  1  0.75420845  0.25257691  0.51163795  1
  V  V38  1  0.13019482  0.24794988  0.88570984  1
  V  V39  1  0.87422503  0.13214392  0.74685579  1
  V  V40  1  0.82267066  0.71061678  0.17428770  1
  V  V41  1  0.24381288  0.61324557  0.88362265  1
  V  V42  1  0.86829186  0.86969847  0.50097956  1
  V  V43  1  -0.00271072  0.86983533  0.36003943  1
  V  V44  1  0.37232234  0.39370613  0.50608763  1
  V  V45  1  0.63106364  0.10639078  0.51344024  1
  V  V46  1  0.01586683  0.64547414  0.14195026  1
  V  V47  1  0.49484857  0.38166595  0.37473062  1
  V  V48  1  0.62425175  0.85452920  0.75572778  1
  V  V49  1  0.75133594  0.38503210  0.64083443  1
  V  V50  1  0.61122814  0.25380355  0.87195211  1
  V  V51  1  0.25748512  -0.01007576  0.74304946  1
  V  V52  1  0.59996874  0.12724876  -0.00440685  1
  V  V53  1  -0.00031320  0.52415352  0.00660072  1
  V  V54  1  0.37936426  0.74887762  0.63263605  1
  V  V55  1  0.00815620  0.88102304  0.85589019  1
  V  V56  1  0.50769996  0.87952425  0.87976312  1
  V  V57  1  0.49623777  0.24242288  0.72381976  1
  V  V58  1  0.87778269  0.37202535  0.50788119  1
  V  V59  1  0.00651884  0.12932744  0.12699638  1
  V  V60  1  0.38370026  0.61279317  0.75288940  1
  V  V61  1  0.74995565  0.66338169  0.89316177  1
  V  V62  1  0.61270037  0.49708917  0.13975139  1
  V  V63  1  0.88443297  0.75133087  0.64034676  1
  V  V64  1  0.13296215  -0.00199634  0.14515599  1
  V  V65  1  -0.00160363  -0.00229466  0.49992068  1
  V  V66  1  0.24810276  0.75380564  -0.00779733  1
  V  V67  1  0.26380114  0.12395016  0.87583165  1
  V  V68  1  0.61061933  0.38488986  0.74387732  1
  V  V69  1  0.50713210  0.51068081  0.51257687  1
  V  V70  1  0.89081205  0.13849993  0.25221924  1
  V  V71  1  0.60806151  0.74527722  0.34193280  1
  V  V72  1  0.00892758  0.49612880  0.50473526  1
  Zn  Zn73  1  0.49536000  0.24302429  0.25394275  1
  Zn  Zn74  1  0.34862537  0.37083678  -0.01492357  1
  Zn  Zn75  1  0.48929618  -0.00583225  0.46985869  1
  Zn  Zn76  1  0.24564883  0.36930352  0.62296477  1
  Zn  Zn77  1  0.83460381  0.53255032  0.83439838  1
  Zn  Zn78  1  0.12334114  0.37491768  0.74360029  1
  Zn  Zn79  1  0.73788978  0.87726146  0.61481449  1
  Zn  Zn80  1  0.65536371  0.56004252  0.59584549  1
  Zn  Zn81  1  0.82375532  0.30073524  0.05691869  1
  Zn  Zn82  1  0.15032217  0.22666904  0.15233494  1
  Zn  Zn83  1  0.18653518  0.18377855  0.68412640  1
  Zn  Zn84  1  0.23246260  0.64881928  0.14603577  1
  Zn  Zn85  1  0.19673528  0.69066607  0.68646346  1
  Zn  Zn86  1  0.68434843  0.18690863  0.19086043  1
  Zn  Zn87  1  0.69032979  0.19303937  0.69017587  1
  Zn  Zn88  1  0.65508937  0.70422712  0.14280168  1
  Zn  Zn89  1  0.71890698  0.68906017  0.70326989  1
  Zn  Zn90  1  0.31091713  0.30859674  0.31536506  1
  Zn  Zn91  1  0.31546343  0.31277809  0.80289639  1
  Zn  Zn92  1  0.30578632  0.80456218  0.31189151  1
  Zn  Zn93  1  0.31939944  0.80512164  0.81147133  1
  Zn  Zn94  1  0.81496787  0.31722437  0.31245545  1
  Zn  Zn95  1  0.77427123  0.35461451  0.87304885  1
  Zn  Zn96  1  0.78772634  0.81048193  0.32480423  1
  Zn  Zn97  1  0.81463050  0.82556099  0.81774282  1
  Zn  Zn98  1  0.18752317  0.43336534  0.43527309  1
  Zn  Zn99  1  0.16720232  0.43815889  0.95084435  1
  Zn  Zn100  1  0.16982031  0.90892120  0.45788868  1
  Zn  Zn101  1  0.19075179  0.93739970  0.92285835  1
  Zn  Zn102  1  0.68805689  0.44177598  0.44395014  1
  Zn  Zn103  1  0.71492539  0.45378200  0.99497335  1
  Zn  Zn104  1  0.66106907  0.92542067  0.41835842  1
  Zn  Zn105  1  0.68599059  0.94906830  0.93649871  1
  Zn  Zn106  1  0.30869260  0.06443382  0.06276736  1
  Zn  Zn107  1  0.30980631  0.04718433  0.55007557  1
  Zn  Zn108  1  0.43257512  0.57894934  0.07587960  1
  Zn  Zn109  1  0.30002406  0.59254271  0.57126648  1
  Zn  Zn110  1  0.82010203  0.09547015  0.05500895  1
  Zn  Zn111  1  0.80825000  0.05841606  0.56331843  1
  Zn  Zn112  1  0.81521473  0.57618367  0.05548731  1
  Zn  Zn113  1  0.83313031  0.55644914  0.57138421  1
  Zn  Zn114  1  0.43997915  0.43693030  0.19668847  1
  Zn  Zn115  1  0.42785613  0.44234839  0.68875775  1
  Zn  Zn116  1  0.44162356  0.91660533  0.17498776  1
  Zn  Zn117  1  0.44292559  0.92678822  0.68431884  1
  Zn  Zn118  1  0.81583375  0.43895631  0.17030966  1
  Zn  Zn119  1  0.93468639  0.43390509  0.69298702  1
  Zn  Zn120  1  0.94092887  0.94941975  0.18143455  1
  Zn  Zn121  1  0.93020926  0.94594063  0.68656143  1
  Zn  Zn122  1  0.06587171  0.05842319  0.31633735  1
  Zn  Zn123  1  0.06370890  0.06022022  0.80741768  1
  Zn  Zn124  1  0.04238980  0.56707916  0.31752551  1
  Zn  Zn125  1  0.03220291  0.53437408  0.80447101  1
  Zn  Zn126  1  0.56862313  0.04994700  0.31670141  1
  Zn  Zn127  1  0.54700628  0.06269826  0.81494791  1
  Zn  Zn128  1  0.56962092  0.56792415  0.31503404  1
  Zn  Zn129  1  0.59582552  0.60428280  0.78116773  1
  Zn  Zn130  1  0.45458343  0.18399139  0.45253033  1
  Zn  Zn131  1  0.42195378  0.22295005  0.92909519  1
  Zn  Zn132  1  0.44200365  0.69576749  0.43485505  1
  Zn  Zn133  1  0.43128276  0.69500325  0.92113377  1
  Zn  Zn134  1  0.93996315  0.19006928  0.43864491  1
  Zn  Zn135  1  0.93795326  0.19048430  0.94090885  1
  Zn  Zn136  1  0.92990875  0.68763722  0.43427915  1
  Zn  Zn137  1  0.94105903  0.69773966  0.93380323  1
  Zn  Zn138  1  -0.00370191  0.34303147  0.12661413  1
  Zn  Zn139  1  0.06976672  0.31100865  0.56165423  1
  Zn  Zn140  1  0.07123330  0.82002761  0.05213801  1
  Zn  Zn141  1  0.05340769  0.81139705  0.56073234  1
  Zn  Zn142  1  0.57113609  0.30393982  0.07506933  1
  Zn  Zn143  1  0.56765273  0.31762878  0.55790364  1
  Zn  Zn144  1  0.51954453  0.78849235  0.06321505  1
  Zn  Zn145  1  0.56514190  0.78682628  0.58008092  1
  O  O146  1  0.13331633  0.11193151  0.10854697  1
  O  O147  1  0.11643287  0.11543835  0.61342619  1
  O  O148  1  0.11994123  0.61557738  0.13463646  1
  O  O149  1  0.11515959  0.63420572  0.60868547  1
  O  O150  1  0.62607735  0.12937772  0.10580395  1
  O  O151  1  0.64157055  0.12625042  0.61066327  1
  O  O152  1  0.61834644  0.59916803  0.10673380  1
  O  O153  1  0.62707107  0.63041542  0.67402558  1
  O  O154  1  0.38863735  0.36774811  0.39090144  1
  O  O155  1  0.38226212  0.32714471  0.88832853  1
  O  O156  1  0.36239796  0.86027505  0.39237604  1
  O  O157  1  0.37276677  0.88275659  0.87886727  1
  O  O158  1  0.88612032  0.37698354  0.38528631  1
  O  O159  1  0.89375708  0.35782660  0.87623219  1
  O  O160  1  0.87531648  0.88257238  0.38051984  1
  O  O161  1  0.88526129  0.88831144  0.88457820  1
  O  O162  1  0.29938851  0.03926262  0.31795990  1
  O  O163  1  0.24363106  0.01674185  0.85115369  1
  O  O164  1  0.23928893  0.50916035  0.36535288  1
  O  O165  1  0.23469771  0.51250809  0.88906252  1
  O  O166  1  0.75787190  0.00947646  0.36299633  1
  O  O167  1  0.75574271  0.01404399  0.86381662  1
  O  O168  1  0.76641325  0.49517417  0.38575527  1
  O  O169  1  0.75784632  0.46910644  0.88560463  1
  O  O170  1  0.22497054  0.48813726  0.15117853  1
  O  O171  1  0.24368696  0.50791426  0.63676180  1
  O  O172  1  0.23961305  0.99053772  0.12067501  1
  O  O173  1  0.23634601  1.00158530  0.63007466  1
  O  O174  1  0.74290383  0.49638265  0.10428217  1
  O  O175  1  0.75120780  0.48805349  0.62651265  1
  O  O176  1  0.76001452  1.01251881  0.12547599  1
  O  O177  1  0.76020781  0.99134488  0.64406488  1
  O  O178  1  -0.00349410  0.36766933  0.26449187  1
  O  O179  1  0.00370645  0.35911265  0.75636124  1
  O  O180  1  -0.00868991  0.88426013  0.26202173  1
  O  O181  1  -0.00889354  0.87799322  0.75798944  1
  O  O182  1  0.49527438  0.36919294  0.27313438  1
  O  O183  1  0.50389555  0.35867445  0.73353596  1
  O  O184  1  0.50100986  0.82314569  0.17205372  1
  O  O185  1  0.51887476  0.88009517  0.75915852  1
  O  O186  1  0.48147038  0.12658393  0.29667931  1
  O  O187  1  0.48448027  0.12707241  0.73944467  1
  O  O188  1  0.48536650  0.63199643  0.27139064  1
  O  O189  1  0.47831699  0.60709210  0.78289421  1
  O  O190  1  0.99574237  0.12230987  0.25020447  1
  O  O191  1  0.99442250  0.12748517  0.74184596  1
  O  O192  1  0.99770946  0.63969747  0.23998541  1
  O  O193  1  1.02250690  0.62862702  0.73496550  1
  O  O194  1  0.37491611  0.26042445  0.03036740  1
  O  O195  1  0.36320800  0.24004663  0.49227809  1
  O  O196  1  0.35348483  0.76342423  -0.01455301  1
  O  O197  1  0.38660506  0.76359054  0.51376567  1
  O  O198  1  0.86255780  0.20166891  0.02078367  1
  O  O199  1  0.86723039  0.26091648  0.49537025  1
  O  O200  1  0.88104490  0.77478168  0.00123982  1
  O  O201  1  0.87360790  0.75464833  0.51501478  1
  O  O202  1  0.13385127  0.23818385  0.49359268  1
  O  O203  1  0.13406220  0.23243337  0.98443961  1
  O  O204  1  0.12046259  0.74164411  0.49451760  1
  O  O205  1  0.13904227  0.77072435  0.97317446  1
  O  O206  1  0.63720494  0.24329019  0.49273206  1
  O  O207  1  0.60767679  0.24447645  0.98112850  1
  O  O208  1  0.65033852  0.75270808  0.51032434  1
  O  O209  1  0.60974399  0.72666915  1.03615166  1
  O  O210  1  0.49077810  0.24829049  0.13499640  1
  O  O211  1  0.50595423  0.24365812  0.62497792  1
  O  O212  1  0.45900617  0.68640953  0.12024802  1
  O  O213  1  0.48076657  0.73267406  0.63146056  1
  O  O214  1  1.03306266  0.22995003  0.13280837  1
  O  O215  1  1.00699832  0.23586174  0.63201200  1
  O  O216  1  1.01892992  0.74300281  0.11611006  1
  O  O217  1  0.99279088  0.74067197  0.62530240  1
  O  O218  1  0.01212860  0.25984818  0.38324547  1
  O  O219  1  0.01175453  0.24890311  0.87030370  1
  O  O220  1  0.00395841  0.75781712  0.37675436  1
  O  O221  1  0.01240145  0.76640222  0.87320540  1
  O  O222  1  0.51621667  0.26361843  0.39158212  1
  O  O223  1  0.51021270  0.23812161  0.85176221  1
  O  O224  1  0.51563893  0.76496028  0.38055583  1
  O  O225  1  0.48775530  0.77786143  0.86891304  1
  O  O226  1  0.24274842  0.12883015  0.49802806  1
  O  O227  1  0.24072181  0.11622729  0.97932023  1
  O  O228  1  0.22413192  0.61141850  0.48204167  1
  O  O229  1  0.24185150  0.64593694  0.98600451  1
  O  O230  1  0.75491869  0.13494081  0.49279474  1
  O  O231  1  0.73112605  0.12543774  0.98128487  1
  O  O232  1  0.74537528  0.62176469  0.53079726  1
  O  O233  1  0.73061136  0.63149337  0.99430326  1
  O  O234  1  0.24077711  0.38861885  0.02665837  1
  O  O235  1  0.26392865  0.36646411  0.49485389  1
  O  O236  1  0.25546198  0.87468718  -0.00672001  1
  O  O237  1  0.25784074  0.87151373  0.51147561  1
  O  O238  1  0.74792858  0.34514797  -0.01343645  1
  O  O239  1  0.75800552  0.36975435  0.51076722  1
  O  O240  1  0.76641328  0.89670270  0.00445488  1
  O  O241  1  0.76342211  0.87357995  0.49857256  1
  O  O242  1  0.10668599  0.50087774  0.24842934  1
  O  O243  1  0.13593039  0.49436116  0.76207800  1
  O  O244  1  0.13728350  1.00522088  0.24426137  1
  O  O245  1  0.13638292  1.00563704  0.73462683  1
  O  O246  1  0.62579872  0.49996056  0.23957544  1
  O  O247  1  0.60539959  0.48107466  0.75628851  1
  O  O248  1  0.64223318  1.02962345  0.22772261  1
  O  O249  1  0.63650476  1.01284946  0.75104043  1
  O  O250  1  0.40262150  -0.03213256  0.27242041  1
  O  O251  1  0.36644473  0.01013086  0.72968827  1
  O  O252  1  0.36322780  0.50038242  0.25888178  1
  O  O253  1  0.35465389  0.50180999  0.75822204  1
  O  O254  1  0.87412259  0.01211474  0.26115906  1
  O  O255  1  0.86710121  0.01178484  0.76021210  1
  O  O256  1  0.86614826  0.48477764  0.26392600  1
  O  O257  1  0.92194643  0.51166544  0.77033966  1
  O  O258  1  0.11346972  0.36133683  0.37949757  1
  O  O259  1  0.12162359  0.35510705  0.87710072  1
  O  O260  1  0.11328194  0.86044418  0.37584274  1
  O  O261  1  0.11175673  0.87978335  0.86249805  1
  O  O262  1  0.62329165  0.36408121  0.38183755  1
  O  O263  1  0.62150971  0.35561364  0.85216030  1
  O  O264  1  0.67567628  0.82921651  0.35476480  1
  O  O265  1  0.61603623  0.88160759  0.87491933  1
  O  O266  1  0.36444700  0.13505344  0.12960706  1
  O  O267  1  0.37349962  0.12231156  0.61746848  1
  O  O268  1  0.32513425  0.59355722  0.11012417  1
  O  O269  1  0.38670135  0.60900270  0.64967060  1
  O  O270  1  0.89268572  0.12065953  0.14656961  1
  O  O271  1  0.88628026  0.11505855  0.63147327  1
  O  O272  1  0.88845731  0.64793358  0.11927542  1
  O  O273  1  0.89131945  0.63878652  0.62987432  1
  O  O274  1  0.25248549  0.27269648  0.13945248  1
  O  O275  1  0.24691560  0.24665266  0.60500816  1
  O  O276  1  0.23494075  0.76441952  0.10214002  1
  O  O277  1  0.27795896  0.70544123  0.60923920  1
  O  O278  1  0.74590047  0.28171194  0.16065538  1
  O  O279  1  0.75020321  0.26196736  0.61712871  1
  O  O280  1  0.75779043  0.78615365  0.12327174  1
  O  O281  1  0.77037165  0.75429700  0.62099204  1
  O  O282  1  0.23629589  0.25503159  0.38875464  1
  O  O283  1  0.23520495  0.23110606  0.85792947  1
  O  O284  1  0.22704091  0.73576240  0.36584452  1
  O  O285  1  0.23880751  0.74786376  0.87393094  1
  O  O286  1  0.74356429  0.24791225  0.38306486  1
  O  O287  1  0.72709469  0.23928156  0.85613569  1
  O  O288  1  0.77751822  0.72353551  0.40902209  1
  O  O289  1  0.75377713  0.76315569  0.89022682  1
  O  O290  1  0.01638004  0.12418224  0.00765635  1
  O  O291  1  0.00403889  0.11855108  0.50631524  1
  O  O292  1  0.00694892  0.62449922  -0.00423969  1
  O  O293  1  0.00959787  0.61729372  0.50089225  1
  O  O294  1  0.50227629  0.13130832  -0.01016129  1
  O  O295  1  0.52562758  0.10656407  0.49809113  1
  O  O296  1  0.49773171  0.62208403  -0.01922066  1
  O  O297  1  0.48935409  0.60705186  0.49208681  1
  O  O298  1  0.48913374  0.38388762  0.49907410  1
  O  O299  1  0.49891379  0.44719130  0.89998761  1
  O  O300  1  0.49401159  0.87645747  0.53699057  1
  O  O301  1  0.47910632  0.87317425  0.99245220  1
  O  O302  1  0.99135581  0.37857605  0.50754030  1
  O  O303  1  0.99715625  0.34769591  0.99583626  1
  O  O304  1  0.98805587  0.87974072  0.48919205  1
  O  O305  1  0.99313044  0.88423725  0.98981304  1
  O  O306  1  0.51276843  0.48349398  0.38766288  1
  O  O307  1  0.44257034  0.49231595  0.91694341  1
  O  O308  1  0.55720879  0.96391480  0.38525980  1
  O  O309  1  0.49228571  0.98269763  0.87111694  1
  O  O310  1  0.99476917  0.48054167  0.38386866  1
  O  O311  1  1.01716457  0.47434314  0.90321736  1
  O  O312  1  0.99145218  0.99265642  0.38046649  1
  O  O313  1  0.99240727  0.99245091  0.86630577  1
  O  O314  1  0.02270732  0.01486228  0.13178018  1
  O  O315  1  0.00958833  0.00808634  0.62131529  1
  O  O316  1  0.00319726  0.52535109  0.12219040  1
  O  O317  1  -0.00723111  0.51715449  0.61704390  1
  O  O318  1  0.51581785  0.00216920  0.13468182  1
  O  O319  1  0.50728457  -0.05487656  0.58675361  1
  O  O320  1  0.50329069  0.50364813  0.13334891  1
  O  O321  1  0.49671972  0.49690827  0.61182818  1
  O  O322  1  0.25121740  0.38842924  0.25166759  1
  O  O323  1  0.25029346  0.38616249  0.74644509  1
  O  O324  1  0.25372710  0.86626441  0.22839543  1
  O  O325  1  0.25849371  0.89291819  0.75659313  1
  O  O326  1  0.74630238  0.34245438  0.21964012  1
  O  O327  1  0.73785697  0.37276512  0.74150390  1
  O  O328  1  0.76242368  0.90225403  0.23108160  1
  O  O329  1  0.73556934  0.89293430  0.76335181  1
  O  O330  1  0.33922157  0.01972701  0.25791720  1
  O  O331  1  0.26704022  0.12159292  0.74757196  1
  O  O332  1  0.24296805  0.61092986  0.26226755  1
  O  O333  1  0.24837467  0.60811230  0.76202328  1
  O  O334  1  0.76729711  0.12633728  0.25817736  1
  O  O335  1  0.75636543  0.11888145  0.75230212  1
  O  O336  1  0.74769442  0.65415826  0.20574990  1
  O  O337  1  0.75321156  0.62333027  0.79253716  1
  O  O338  1  0.42526755  0.12093122  0.35566599  1
  O  O339  1  0.36283250  0.13276835  0.87551968  1
  O  O340  1  0.34890097  0.63794333  0.38750192  1
  O  O341  1  0.34884894  0.62852103  0.86895631  1
  O  O342  1  0.87267490  0.11746259  0.37206453  1
  O  O343  1  0.86669705  0.12516336  0.86528963  1
  O  O344  1  0.89223025  0.60061222  0.37350105  1
  O  O345  1  0.85427352  0.63211691  0.90293408  1
  O  O346  1  0.10582808  0.38529909  0.13894198  1
  O  O347  1  0.13209659  0.37231605  0.62877229  1
  O  O348  1  0.13268780  0.89317872  0.11998137  1
  O  O349  1  0.11621669  0.88973506  0.61718666  1
  O  O350  1  0.61759615  0.39765273  0.10499140  1
  O  O351  1  0.63700903  0.37363462  0.63425504  1
  O  O352  1  0.64944484  0.91021284  0.11284149  1
  O  O353  1  0.63035631  0.85855145  0.65005488  1
  O  O354  1  0.13421470  0.23755363  0.26935324  1
  O  O355  1  0.11449637  0.23951994  0.75855933  1
  O  O356  1  0.11566087  0.75259872  0.25597285  1
  O  O357  1  0.13699772  0.75615180  0.75785871  1
  O  O358  1  0.61578211  0.23530144  0.27387236  1
  O  O359  1  0.60811324  0.24731175  0.74823927  1
  O  O360  1  0.59423514  0.73668769  0.23842188  1
  O  O361  1  0.63735387  0.75886743  0.77013652  1
  O  O362  1  0.37615411  0.25628220  0.23821124  1
  O  O363  1  0.38500012  0.23577640  0.73664224  1
  O  O364  1  0.37922401  0.74841187  0.24892604  1
  O  O365  1  0.36373306  0.72573438  0.74316868  1
  O  O366  1  0.88403430  0.23614144  0.26505052  1
  O  O367  1  0.88921352  0.23448061  0.75136319  1
  O  O368  1  0.86181948  0.75934895  0.25267070  1
  O  O369  1  0.87196188  0.76279311  0.73884006  1
  O  O370  1  0.37604946  0.49384703  0.50110970  1
  O  O371  1  0.40458002  0.47699512  0.99148872  1
  O  O372  1  0.37965852  0.97550212  0.50095904  1
  O  O373  1  0.36639036  0.99342183  0.99363060  1
  O  O374  1  0.88684951  0.48701755  0.49566238  1
  O  O375  1  0.90009173  0.50431941  1.01018487  1
  O  O376  1  0.87698086  0.99338363  0.49090787  1
  O  O377  1  0.87393884  1.01236584  0.98306758  1
  O  O378  1  0.12582783  0.00700142  -0.00844934  1
  O  O379  1  0.12093383  0.00436816  0.50605905  1
  O  O380  1  0.10512258  0.49346453  0.02739492  1
  O  O381  1  0.11146966  0.50159359  0.49339817  1
  O  O382  1  0.61957245  0.01877528  0.00697219  1
  O  O383  1  0.65820926  0.00961398  0.50459134  1
  O  O384  1  0.61612303  0.51659704  -0.01258765  1
  O  O385  1  0.61448309  0.50086748  0.50786104  1
  O  O386  1  0.36012562  0.38628590  0.12732277  1
  O  O387  1  0.36799779  0.37662617  0.60908261  1
  O  O388  1  0.35354797  0.88244356  0.10422284  1
  O  O389  1  0.36615574  0.85015080  0.64139907  1
  O  O390  1  0.88767815  0.36283136  0.12588875  1
  O  O391  1  0.86295200  0.37805343  0.62214997  1
  O  O392  1  0.87341253  0.89702468  0.10669931  1
  O  O393  1  0.88225536  0.86636206  0.61593682  1
  O  O394  1  0.11574160  0.13391079  0.38829931  1
  O  O395  1  0.12324530  0.12713250  0.88087929  1
  O  O396  1  0.11493752  0.63791203  0.38051250  1
  O  O397  1  0.13065600  0.64193349  0.86851939  1
  O  O398  1  0.64277951  0.13084307  0.38713460  1
  O  O399  1  0.62349493  0.12943443  0.88019757  1
  O  O400  1  0.63232795  0.65044427  0.36916226  1
  O  O401  1  0.63201964  0.64151780  0.88640406  1
