# generated using pymatgen
data_V73Zn73O256
_symmetry_space_group_name_H-M   'P 1'
_cell_length_a   16.90762699
_cell_length_b   16.87849777
_cell_length_c   16.92042003
_cell_angle_alpha   89.90934574
_cell_angle_beta   89.84785501
_cell_angle_gamma   90.08924028
_symmetry_Int_Tables_number   1
_chemical_formula_structural   V73Zn73O256
_chemical_formula_sum   'V73 Zn73 O256'
_cell_volume   4828.64173918
_cell_formula_units_Z   1
loop_
 _symmetry_equiv_pos_site_id
 _symmetry_equiv_pos_as_xyz
  1  'x, y, z'
loop_
 _atom_site_type_symbol
 _atom_site_label
 _atom_site_symmetry_multiplicity
 _atom_site_fract_x
 _atom_site_fract_y
 _atom_site_fract_z
 _atom_site_occupancy
  V  V0  1  0.87465663  0.36770485  0.50241008  1
  V  V1  1  0.01779098  0.00711203  0.01055264  1
  V  V2  1  0.62459222  0.23606588  0.86580436  1
  V  V3  1  0.60722095  0.49909468  0.62385103  1
  V  V4  1  0.36987790  0.63222038  0.25033906  1
  V  V5  1  0.62328453  0.37243130  0.24408870  1
  V  V6  1  0.26273548  0.25442704  0.51007260  1
  V  V7  1  0.87707789  0.73997658  0.12584691  1
  V  V8  1  0.38020805  0.37345074  0.00439576  1
  V  V9  1  0.49981754  0.24625002  0.24737159  1
  V  V10  1  0.12616618  0.12052263  0.51813127  1
  V  V11  1  0.87095093  0.40152933  -0.01388442  1
  V  V12  1  0.62636204  0.88310660  0.23912646  1
  V  V13  1  0.23714096  0.87465949  0.12833336  1
  V  V14  1  -0.01368049  0.12607344  0.63483731  1
  V  V15  1  0.13120281  0.64152826  0.47456588  1
  V  V16  1  0.25106060  0.12760631  0.87970556  1
  V  V17  1  0.72331104  -0.02565279  0.78726490  1
  V  V18  1  0.62648981  0.12437857  0.02588760  1
  V  V19  1  0.24674280  -0.00563248  0.73907905  1
  V  V20  1  0.74472883  0.75314663  -0.00818331  1
  V  V21  1  0.62001272  0.37331709  0.75177714  1
  V  V22  1  0.49031260  0.38353986  0.38619128  1
  V  V23  1  0.37957743  0.86438964  0.01039506  1
  V  V24  1  0.00309793  0.74385645  0.25472481  1
  V  V25  1  0.37704174  0.24185607  0.12593640  1
  V  V26  1  0.50353043  0.51313381  0.01231779  1
  V  V27  1  0.88200777  0.88003728  0.00768806  1
  V  V28  1  0.11982722  0.37766787  0.24213104  1
  V  V29  1  0.74825427  0.62916109  0.36960650  1
  V  V30  1  0.37326454  0.50833995  0.87502345  1
  V  V31  1  0.88928616  0.25363721  0.11700181  1
  V  V32  1  -0.00846625  -0.00306185  0.48731743  1
  V  V33  1  0.74411438  0.74558017  0.51685370  1
  V  V34  1  0.87099040  0.49613133  0.37076682  1
  V  V35  1  0.00275331  0.36608406  0.37642743  1
  V  V36  1  0.50310627  0.12844606  0.62887638  1
  V  V37  1  0.01634107  0.85871745  0.87282108  1
  V  V38  1  0.37141307  -0.00537767  0.37542240  1
  V  V39  1  0.50097512  0.74393743  0.22252782  1
  V  V40  1  0.51300703  0.77169623  0.75442187  1
  V  V41  1  0.25460531  0.50479436  0.27495949  1
  V  V42  1  0.74970873  0.24633860  0.50257754  1
  V  V43  1  0.75843524  0.50400484  0.75062655  1
  V  V44  1  0.87353362  0.11098848  0.27550695  1
  V  V45  1  0.12170180  0.61174495  0.00614595  1
  V  V46  1  0.11535549  0.88502600  0.25726333  1
  V  V47  1  0.62666612  0.24609933  0.37595441  1
  V  V48  1  0.49348499  -0.00680473  0.49998945  1
  V  V49  1  0.75124998  0.25747228  -0.00185544  1
  V  V50  1  0.38400883  0.13266366  0.74740848  1
  V  V51  1  0.24254413  0.25089885  -0.00059003  1
  V  V52  1  0.75218915  0.37171472  0.62276861  1
  V  V53  1  0.25125908  0.38525814  0.12738331  1
  V  V54  1  0.61403725  0.61659860  0.49909956  1
  V  V55  1  0.89554646  -0.00126362  0.85502395  1
  V  V56  1  0.38403568  -0.00537153  0.87891638  1
  V  V57  1  -0.00168202  0.51039265  0.50453231  1
  V  V58  1  0.50574013  0.37285156  0.87874213  1
  V  V59  1  0.00046549  0.39487633  0.86713222  1
  V  V60  1  0.24474739  0.12500756  0.36689129  1
  V  V61  1  0.49091219  0.01457850  0.02375789  1
  V  V62  1  0.36932762  0.75849500  0.63754866  1
  V  V63  1  0.62796754  0.11963592  0.49730065  1
  V  V64  1  0.63574311  -0.02282844  0.61583814  1
  V  V65  1  0.89179796  0.62870017  0.74835672  1
  V  V66  1  0.37779923  0.11989358  0.24748897  1
  V  V67  1  0.62127188  0.51699767  0.12981600  1
  V  V68  1  0.49699116  0.85523747  0.38006354  1
  V  V69  1  0.74765045  0.49304948  0.25000095  1
  V  V70  1  0.14720363  0.50350695  0.62046073  1
  V  V71  1  0.89519884  0.74818734  0.62383291  1
  V  V72  1  0.12206576  0.25752502  0.86076406  1
  Zn  Zn73  1  0.75021326  0.63079032  0.87823568  1
  Zn  Zn74  1  -0.00302725  0.60087854  0.12771613  1
  Zn  Zn75  1  -0.02217903  0.25826114  0.73558545  1
  Zn  Zn76  1  0.12233939  0.24720719  0.37698246  1
  Zn  Zn77  1  0.25123065  0.73887793  0.00251612  1
  Zn  Zn78  1  0.13594012  0.85464399  0.73137920  1
  Zn  Zn79  1  0.06361442  0.18422556  0.06203328  1
  Zn  Zn80  1  0.13834212  0.73662067  0.87383808  1
  Zn  Zn81  1  0.85710069  0.88774009  0.51387373  1
  Zn  Zn82  1  0.19046975  0.19881101  0.19415660  1
  Zn  Zn83  1  0.19741954  0.18889662  0.69186203  1
  Zn  Zn84  1  0.18393722  0.68868843  0.18006486  1
  Zn  Zn85  1  0.14813835  0.69110667  0.66437034  1
  Zn  Zn86  1  0.70396072  0.19164315  0.18763010  1
  Zn  Zn87  1  0.83307396  0.14020217  0.75448254  1
  Zn  Zn88  1  0.69078499  0.70056188  0.18485842  1
  Zn  Zn89  1  0.68037363  0.68283830  0.68903891  1
  Zn  Zn90  1  0.31049311  0.31328103  0.31709122  1
  Zn  Zn91  1  0.31617795  0.32192159  0.80653782  1
  Zn  Zn92  1  0.31204345  0.81577412  0.30167211  1
  Zn  Zn93  1  0.31348407  0.81144257  0.81530449  1
  Zn  Zn94  1  0.80776518  0.29305426  0.30038493  1
  Zn  Zn95  1  0.80615238  0.31836121  0.81685117  1
  Zn  Zn96  1  0.81019140  0.81124745  0.30488220  1
  Zn  Zn97  1  0.82580357  0.81381064  0.81320630  1
  Zn  Zn98  1  0.18496557  0.43695132  0.44971005  1
  Zn  Zn99  1  0.19078515  0.44055591  0.93118091  1
  Zn  Zn100  1  0.17533792  0.94582594  0.42657841  1
  Zn  Zn101  1  0.19669380  0.93384725  0.93611877  1
  Zn  Zn102  1  0.68026639  0.43370732  0.43506895  1
  Zn  Zn103  1  0.68447737  0.45773816  0.93154657  1
  Zn  Zn104  1  0.67639353  0.92078265  0.43294956  1
  Zn  Zn105  1  0.70615698  0.96320003  0.96722191  1
  Zn  Zn106  1  0.19835928  0.05882495  0.07339598  1
  Zn  Zn107  1  0.31480444  0.06875415  0.56017605  1
  Zn  Zn108  1  0.31620655  0.57080983  0.06349042  1
  Zn  Zn109  1  0.28483093  0.62520727  0.56941862  1
  Zn  Zn110  1  0.82485049  0.06782800  0.06282866  1
  Zn  Zn111  1  0.81299501  0.06437651  0.56975003  1
  Zn  Zn112  1  0.80263847  0.56921691  0.06839520  1
  Zn  Zn113  1  0.81189374  0.56267184  0.56468801  1
  Zn  Zn114  1  0.43583848  0.43831639  0.19600135  1
  Zn  Zn115  1  0.42191986  0.43580920  0.69954816  1
  Zn  Zn116  1  0.43450799  0.93125326  0.19033817  1
  Zn  Zn117  1  0.42653687  0.93329262  0.68375320  1
  Zn  Zn118  1  0.92050157  0.41271600  0.18783595  1
  Zn  Zn119  1  0.94104898  0.43822140  0.68615382  1
  Zn  Zn120  1  0.93862339  0.94228726  0.19131548  1
  Zn  Zn121  1  0.97776004  0.92376428  0.67176007  1
  Zn  Zn122  1  0.05283228  0.06929621  0.29556386  1
  Zn  Zn123  1  0.06721767  0.06318107  0.81724386  1
  Zn  Zn124  1  0.05572676  0.55590073  0.30243894  1
  Zn  Zn125  1  0.07741650  0.56954521  0.80453929  1
  Zn  Zn126  1  0.56019381  0.05954694  0.31276560  1
  Zn  Zn127  1  0.57072126  0.03889112  0.81045474  1
  Zn  Zn128  1  0.55612302  0.56820763  0.31527974  1
  Zn  Zn129  1  0.56906226  0.57201325  0.82812482  1
  Zn  Zn130  1  0.43941090  0.18626905  0.43545427  1
  Zn  Zn131  1  0.43963518  0.18590273  0.93760844  1
  Zn  Zn132  1  0.41754875  0.66886984  0.44460344  1
  Zn  Zn133  1  0.44491338  0.68711930  0.91280973  1
  Zn  Zn134  1  0.93572374  0.17980950  0.43791570  1
  Zn  Zn135  1  0.93595944  0.18416479  0.92622738  1
  Zn  Zn136  1  0.92781018  0.69045647  0.43247060  1
  Zn  Zn137  1  0.94011177  0.67573435  0.93934675  1
  Zn  Zn138  1  0.05213247  0.43956780  0.06145425  1
  Zn  Zn139  1  0.07624649  0.30986801  0.56774262  1
  Zn  Zn140  1  0.06317085  0.80269171  0.06040180  1
  Zn  Zn141  1  0.06509748  0.81884923  0.55176771  1
  Zn  Zn142  1  0.56503912  0.30906608  0.06277573  1
  Zn  Zn143  1  0.56234823  0.31075039  0.56442798  1
  Zn  Zn144  1  0.56179499  0.82357525  0.05348676  1
  Zn  Zn145  1  0.54804377  0.79503315  0.56495972  1
  O  O146  1  0.13320375  0.13064849  0.12975624  1
  O  O147  1  0.12966476  0.12355069  0.61770438  1
  O  O148  1  0.11717133  0.62119264  0.11486302  1
  O  O149  1  0.12116827  0.61422877  0.59013805  1
  O  O150  1  0.62715164  0.13484934  0.12491473  1
  O  O151  1  0.60956367  0.10028591  0.60900533  1
  O  O152  1  0.62433788  0.61537496  0.13068566  1
  O  O153  1  0.62379547  0.60613293  0.61607182  1
  O  O154  1  0.39108297  0.36735374  0.37346545  1
  O  O155  1  0.38929848  0.37834121  0.88910680  1
  O  O156  1  0.38152464  0.88940973  0.36418640  1
  O  O157  1  0.36971972  0.89165532  0.88982261  1
  O  O158  1  0.88199379  0.37724182  0.38111241  1
  O  O159  1  0.88842778  0.37365000  0.87912678  1
  O  O160  1  0.83608674  0.90416521  0.37823931  1
  O  O161  1  0.89976229  0.87723366  0.88435596  1
  O  O162  1  0.26286272  0.01008110  0.37971519  1
  O  O163  1  0.26114453  0.01377681  0.87404675  1
  O  O164  1  0.25141712  0.49520599  0.37293503  1
  O  O165  1  0.27509636  0.47916058  0.86872609  1
  O  O166  1  0.77845390  -0.04226835  0.37555785  1
  O  O167  1  0.79168059  -0.01412597  0.87636846  1
  O  O168  1  0.75220303  0.50099333  0.36906392  1
  O  O169  1  0.76809227  0.47869513  0.84616198  1
  O  O170  1  0.25496567  0.48493514  0.12482515  1
  O  O171  1  0.24707370  0.52066165  0.60390582  1
  O  O172  1  0.25570000  0.97632375  0.12240163  1
  O  O173  1  0.26130682  1.00589718  0.64008888  1
  O  O174  1  0.73480484  0.50505391  0.13862156  1
  O  O175  1  0.74370858  0.48704775  0.62872806  1
  O  O176  1  0.74109176  0.99734123  0.06963060  1
  O  O177  1  0.73456656  0.98469970  0.59747148  1
  O  O178  1  0.01438308  0.37931509  0.26458660  1
  O  O179  1  -0.00686773  0.37116143  0.76104402  1
  O  O180  1  0.00933432  0.86597251  0.24070624  1
  O  O181  1  0.01271529  0.87017848  0.77196994  1
  O  O182  1  0.50478563  0.36314440  0.25915083  1
  O  O183  1  0.51053873  0.38361385  0.76610723  1
  O  O184  1  0.49554503  0.85650624  0.25823670  1
  O  O185  1  0.49896143  0.87247115  0.74792881  1
  O  O186  1  0.49069775  0.13599562  0.25780309  1
  O  O187  1  0.49509711  0.10802868  0.73710475  1
  O  O188  1  0.49166046  0.63890614  0.25206603  1
  O  O189  1  0.49898127  0.65432648  0.80126742  1
  O  O190  1  0.97144547  0.13982915  0.25891649  1
  O  O191  1  1.01025586  0.12505452  0.73483346  1
  O  O192  1  0.99970749  0.63803399  0.24296040  1
  O  O193  1  0.98963380  0.62044725  0.74559708  1
  O  O194  1  0.37175670  0.25666743  0.00733294  1
  O  O195  1  0.36241351  0.23399589  0.50170922  1
  O  O196  1  0.39188127  0.76652209  -0.00787768  1
  O  O197  1  0.37726829  0.69411317  0.54599903  1
  O  O198  1  0.85783470  0.24252741  -0.00806528  1
  O  O199  1  0.86287528  0.25789043  0.49146551  1
  O  O200  1  0.88086744  0.76052638  0.01004046  1
  O  O201  1  0.86053497  0.74434642  0.51159103  1
  O  O202  1  0.13416107  0.23313468  0.49401332  1
  O  O203  1  0.13979141  0.25317429  0.98952035  1
  O  O204  1  0.11198801  0.74088464  0.48992697  1
  O  O205  1  0.12656953  0.73208319  0.99723472  1
  O  O206  1  0.62867816  0.23958722  0.49435527  1
  O  O207  1  0.62861709  0.24237956  0.99191584  1
  O  O208  1  0.63204259  0.72734887  0.51052029  1
  O  O209  1  0.64629320  0.76838251  1.00386280  1
  O  O210  1  0.49018831  0.25498931  0.13731661  1
  O  O211  1  0.51186737  0.22730732  0.62530443  1
  O  O212  1  0.49853354  0.74910412  0.12453509  1
  O  O213  1  0.48341069  0.74424546  0.64311392  1
  O  O214  1  0.98747467  0.26090892  0.09667477  1
  O  O215  1  1.00880483  0.23556249  0.62435745  1
  O  O216  1  0.98706766  0.74903470  0.13106258  1
  O  O217  1  0.99186306  0.73579603  0.61216480  1
  O  O218  1  -0.00233061  0.26334387  0.38099293  1
  O  O219  1  0.01836373  0.24731815  0.86917126  1
  O  O220  1  -0.02378291  0.75297202  0.35271056  1
  O  O221  1  0.00520192  0.75771249  0.88548445  1
  O  O222  1  0.50902115  0.25349896  0.36706216  1
  O  O223  1  0.51367662  0.26229999  0.88458400  1
  O  O224  1  0.47958765  0.75784005  0.38788250  1
  O  O225  1  0.50942663  0.76609267  0.86405885  1
  O  O226  1  0.23890348  0.12575183  0.49067941  1
  O  O227  1  0.25568984  0.13814570  0.98890919  1
  O  O228  1  0.23147326  0.63307931  0.46778843  1
  O  O229  1  0.23329379  0.62115218  1.00960687  1
  O  O230  1  0.73769510  0.13350459  0.50882608  1
  O  O231  1  0.72905150  0.13879913  0.99735071  1
  O  O232  1  0.74327494  0.62891807  0.49259743  1
  O  O233  1  0.75849471  0.64760164  0.99841259  1
  O  O234  1  0.26248166  0.36909672  0.00700098  1
  O  O235  1  0.24942842  0.35191924  0.48451725  1
  O  O236  1  0.26622718  0.87167031  0.00720766  1
  O  O237  1  0.25137545  0.84764092  0.46715897  1
  O  O238  1  0.75881674  0.36671269  -0.02296160  1
  O  O239  1  0.75536916  0.37046225  0.50331195  1
  O  O240  1  0.77691133  0.86566945  -0.00994243  1
  O  O241  1  0.74426694  0.84762111  0.49275564  1
  O  O242  1  0.14001021  0.48541314  0.25914313  1
  O  O243  1  0.13248577  0.51961514  0.71959441  1
  O  O244  1  0.11323398  0.98610036  0.24636308  1
  O  O245  1  0.14766098  1.00948127  0.75515752  1
  O  O246  1  0.62468518  0.49364959  0.24289020  1
  O  O247  1  0.63448618  0.49278832  0.73703970  1
  O  O248  1  0.62239468  0.98339428  0.26218866  1
  O  O249  1  0.62556160  0.98622649  0.71975137  1
  O  O250  1  0.38392076  0.00961771  0.26288218  1
  O  O251  1  0.36798451  0.00369841  0.76318266  1
  O  O252  1  0.35887519  0.50111204  0.25341149  1
  O  O253  1  0.40434549  0.51949005  0.78006721  1
  O  O254  1  0.86524415  0.01552706  0.23820218  1
  O  O255  1  0.90578883  -0.01708760  0.75767011  1
  O  O256  1  0.85834731  0.48501088  0.25975436  1
  O  O257  1  0.86456689  0.51484267  0.73048095  1
  O  O258  1  0.10919385  0.37584591  0.37847550  1
  O  O259  1  0.11257722  0.36727398  0.87920188  1
  O  O260  1  0.12411687  0.87444636  0.35746420  1
  O  O261  1  0.12215191  0.86693339  0.88204676  1
  O  O262  1  0.61418213  0.36453950  0.36662981  1
  O  O263  1  0.61971536  0.37696655  0.86965854  1
  O  O264  1  0.60076576  0.86549089  0.36499048  1
  O  O265  1  0.65016630  0.96398478  0.86413428  1
  O  O266  1  0.36503545  0.13888161  0.13676779  1
  O  O267  1  0.38927259  0.11943541  0.63651020  1
  O  O268  1  0.37543382  0.61491237  0.14812508  1
  O  O269  1  0.27990775  0.61161084  0.74933402  1
  O  O270  1  0.87175738  0.15156242  0.12216190  1
  O  O271  1  0.88234905  0.12836983  0.63562781  1
  O  O272  1  0.87849909  0.63606306  0.12376947  1
  O  O273  1  0.86677656  0.63575955  0.63515207  1
  O  O274  1  0.25929968  0.26199234  0.11841032  1
  O  O275  1  0.24705647  0.24734513  0.60987018  1
  O  O276  1  0.24979786  0.76274029  0.11795116  1
  O  O277  1  0.26801268  0.71811449  0.64465215  1
  O  O278  1  0.75112824  0.26100121  0.10107756  1
  O  O279  1  0.74106277  0.26524874  0.60913023  1
  O  O280  1  0.76740230  0.75051116  0.11436618  1
  O  O281  1  0.75008201  0.74479303  0.61692728  1
  O  O282  1  0.25379336  0.23191195  0.38199512  1
  O  O283  1  0.24934350  0.25339732  0.87912115  1
  O  O284  1  0.26269448  0.79124974  0.41813927  1
  O  O285  1  0.25584561  0.74790361  0.88708459  1
  O  O286  1  0.73442622  0.26045921  0.38876474  1
  O  O287  1  0.73023331  0.25041328  0.88102646  1
  O  O288  1  0.75794188  0.73101029  0.37805069  1
  O  O289  1  0.75797405  0.75196387  0.88590579  1
  O  O290  1  0.00334428  0.11257714  -0.00757525  1
  O  O291  1  0.01327456  0.12705337  0.50817425  1
  O  O292  1  0.01010732  0.61617556  0.00695039  1
  O  O293  1  -0.01473064  0.60958904  0.49142707  1
  O  O294  1  0.50878097  0.12500302  0.00614105  1
  O  O295  1  0.50394480  0.11475141  0.50687264  1
  O  O296  1  0.50273491  0.61010813  0.00181546  1
  O  O297  1  0.51691720  0.61859017  0.48713623  1
  O  O298  1  0.50661656  0.36798467  0.48591643  1
  O  O299  1  0.49388181  0.37515841  0.99974450  1
  O  O300  1  0.49719026  0.87831833  0.48629076  1
  O  O301  1  0.48728635  0.89939855  1.00726524  1
  O  O302  1  0.99237302  0.38111518  0.49020149  1
  O  O303  1  0.98424336  0.39014848  0.97954152  1
  O  O304  1  0.99695779  0.89456873  0.49217549  1
  O  O305  1  1.00084897  0.88371424  0.99528550  1
  O  O306  1  0.50440917  0.48283456  0.37001596  1
  O  O307  1  0.49937148  0.48982911  0.89973984  1
  O  O308  1  0.48750279  0.99545442  0.38339797  1
  O  O309  1  0.48420811  1.00771490  0.87767519  1
  O  O310  1  0.98625970  0.48894278  0.37828892  1
  O  O311  1  1.00584164  0.49221813  0.85874954  1
  O  O312  1  1.00279429  1.01655492  0.38960097  1
  O  O313  1  1.00651517  0.98953916  0.88543206  1
  O  O314  1  0.00365553  -0.00012599  0.10874276  1
  O  O315  1  -0.00065494  0.02297505  0.60796344  1
  O  O316  1  -0.00897141  0.48696829  0.14176286  1
  O  O317  1  -0.00328657  0.49705966  0.60486014  1
  O  O318  1  0.48364941  0.01247790  0.12213023  1
  O  O319  1  0.49684229  -0.00283700  0.60902765  1
  O  O320  1  0.50915182  0.49786419  0.12478177  1
  O  O321  1  0.50893191  0.48722244  0.63427883  1
  O  O322  1  0.24636304  0.38566478  0.24761446  1
  O  O323  1  0.32818721  0.37858687  0.71253451  1
  O  O324  1  0.23310176  0.86625898  0.23920984  1
  O  O325  1  0.24875042  0.89028626  0.75549358  1
  O  O326  1  0.73503712  0.38342366  0.26035158  1
  O  O327  1  0.74194468  0.38076014  0.73804259  1
  O  O328  1  0.72316346  0.85644776  0.24958760  1
  O  O329  1  0.76211898  0.88813777  0.75201828  1
  O  O330  1  0.26234730  0.12975601  0.26148335  1
  O  O331  1  0.26834676  0.12011277  0.75657557  1
  O  O332  1  0.25313420  0.61256697  0.25058927  1
  O  O333  1  0.24729150  0.63067490  0.81071079  1
  O  O334  1  0.78874447  0.17753633  0.25833639  1
  O  O335  1  0.75353071  0.06509323  0.74657787  1
  O  O336  1  0.73818041  0.61484266  0.26445544  1
  O  O337  1  0.74536977  0.61005327  0.75198299  1
  O  O338  1  0.36871034  0.11574961  0.36677595  1
  O  O339  1  0.37221943  0.12014923  0.86678965  1
  O  O340  1  0.37518716  0.62064331  0.35412425  1
  O  O341  1  0.36866282  0.60364747  0.91045437  1
  O  O342  1  0.86737979  0.11297290  0.37789133  1
  O  O343  1  0.89272215  0.10396558  0.85811520  1
  O  O344  1  0.85738348  0.60682563  0.37933113  1
  O  O345  1  0.87131304  0.63158785  0.85297769  1
  O  O346  1  0.13201400  0.37382528  0.13829977  1
  O  O347  1  0.13075824  0.40222018  0.60353218  1
  O  O348  1  0.13322132  0.87275845  0.12549749  1
  O  O349  1  0.08703643  0.88689727  0.63571111  1
  O  O350  1  0.62023172  0.37327445  0.14176399  1
  O  O351  1  0.62857606  0.38140601  0.63104203  1
  O  O352  1  0.60820122  0.88247413  0.14003935  1
  O  O353  1  0.61516318  0.88075975  0.59999705  1
  O  O354  1  0.13880687  0.27457751  0.26343395  1
  O  O355  1  0.13645331  0.25852565  0.76110627  1
  O  O356  1  0.10810266  0.75621840  0.24534126  1
  O  O357  1  0.13513142  0.74348460  0.75789491  1
  O  O358  1  0.62036421  0.25212259  0.25703461  1
  O  O359  1  0.62615067  0.26519649  0.76302767  1
  O  O360  1  0.60420459  0.75257577  0.24317485  1
  O  O361  1  0.61190604  0.75725511  0.73425221  1
  O  O362  1  0.38119307  0.24341769  0.24566576  1
  O  O363  1  0.38608791  0.22986823  0.75890210  1
  O  O364  1  0.38065634  0.74103480  0.24886622  1
  O  O365  1  0.38530858  0.75561159  0.74550673  1
  O  O366  1  0.88385591  0.29789685  0.21304047  1
  O  O367  1  0.86950790  0.24299241  0.76431944  1
  O  O368  1  0.88078812  0.76185700  0.23117327  1
  O  O369  1  0.87629607  0.73983067  0.73511118  1
  O  O370  1  0.38142200  0.48860834  0.50799426  1
  O  O371  1  0.39000951  0.48743694  1.00984605  1
  O  O372  1  0.38039749  1.00589008  0.48562917  1
  O  O373  1  0.38529618  1.00757579  0.99011936  1
  O  O374  1  0.87819296  0.48803938  0.49102414  1
  O  O375  1  0.85533933  0.49954382  0.99207411  1
  O  O376  1  0.88536971  1.00210965  0.50412105  1
  O  O377  1  0.89538245  0.99087465  0.99350285  1
  O  O378  1  0.12332453  0.00227680  -0.00176214  1
  O  O379  1  0.11850648  0.01560266  0.49624016  1
  O  O380  1  0.12827142  0.50104695  0.00212766  1
  O  O381  1  0.10698685  0.51077788  0.49302547  1
  O  O382  1  0.60302302  0.01949200  0.00729767  1
  O  O383  1  0.61361927  0.00177688  0.49281852  1
  O  O384  1  0.61440018  0.48760030  0.02481178  1
  O  O385  1  0.62785756  0.50234585  0.51420299  1
  O  O386  1  0.37123778  0.36576050  0.12234920  1
  O  O387  1  0.37511362  0.42975226  0.55002159  1
  O  O388  1  0.37051863  0.87181412  0.11515324  1
  O  O389  1  0.36597188  0.85728318  0.61674770  1
  O  O390  1  0.87150229  0.36798480  0.08495425  1
  O  O391  1  0.86685443  0.37810432  0.61167674  1
  O  O392  1  0.88334646  0.87435944  0.11008152  1
  O  O393  1  0.88925822  0.85518679  0.62247528  1
  O  O394  1  0.13949563  0.12289741  0.36451627  1
  O  O395  1  0.14281625  0.14252546  0.86747751  1
  O  O396  1  0.10299172  0.62410654  0.37905216  1
  O  O397  1  0.12057904  0.61986160  0.89331242  1
  O  O398  1  0.61690920  0.13282753  0.38613463  1
  O  O399  1  0.61312299  0.13741644  0.86445317  1
  O  O400  1  0.63830971  0.61087545  0.38946675  1
  O  O401  1  0.65682660  0.56683484  0.89468891  1
