# generated using pymatgen
data_V73Zn73O256
_symmetry_space_group_name_H-M   'P 1'
_cell_length_a   16.87775965
_cell_length_b   16.87471933
_cell_length_c   16.87822081
_cell_angle_alpha   90.11999361
_cell_angle_beta   90.10790609
_cell_angle_gamma   89.94990379
_symmetry_Int_Tables_number   1
_chemical_formula_structural   V73Zn73O256
_chemical_formula_sum   'V73 Zn73 O256'
_cell_volume   4807.02225943
_cell_formula_units_Z   1
loop_
 _symmetry_equiv_pos_site_id
 _symmetry_equiv_pos_as_xyz
  1  'x, y, z'
loop_
 _atom_site_type_symbol
 _atom_site_label
 _atom_site_symmetry_multiplicity
 _atom_site_fract_x
 _atom_site_fract_y
 _atom_site_fract_z
 _atom_site_occupancy
  V  V0  1  0.74299195  0.74853945  -0.00791983  1
  V  V1  1  0.12496242  0.36538826  0.76593187  1
  V  V2  1  0.75708013  0.11083911  0.86434067  1
  V  V3  1  0.13849184  0.24023182  0.37797059  1
  V  V4  1  0.62391696  0.24493889  0.87854482  1
  V  V5  1  0.24836653  -0.00033405  0.23481867  1
  V  V6  1  -0.00913565  0.50826857  0.02185585  1
  V  V7  1  0.88089059  0.23968374  0.12682287  1
  V  V8  1  0.50499193  0.25236124  0.75556799  1
  V  V9  1  0.74561515  0.86623932  0.14124954  1
  V  V10  1  0.51215670  0.75096863  0.75341832  1
  V  V11  1  0.86694724  0.74479420  0.61752716  1
  V  V12  1  0.51682798  -0.00134931  0.50298484  1
  V  V13  1  -0.00964884  0.73377093  0.75212097  1
  V  V14  1  0.88134578  0.74494944  0.12108131  1
  V  V15  1  0.25337802  0.75734752  0.49608199  1
  V  V16  1  0.87482811  0.62400819  0.24682112  1
  V  V17  1  0.50868143  0.11759742  0.62407129  1
  V  V18  1  0.61927421  0.37080634  0.25485250  1
  V  V19  1  0.11645865  0.01580563  0.62783116  1
  V  V20  1  -0.00202682  0.75004842  0.25304788  1
  V  V21  1  0.49708993  0.62502250  0.13879142  1
  V  V22  1  0.00243482  0.01365841  0.48504404  1
  V  V23  1  0.12301064  0.74167840  0.37960535  1
  V  V24  1  0.00338475  0.61289239  0.60029628  1
  V  V25  1  0.24206578  0.38613936  0.61504231  1
  V  V26  1  0.36696031  0.12606355  0.75667480  1
  V  V27  1  0.25011804  0.23196313  0.49752999  1
  V  V28  1  0.50201157  0.86713078  0.37895907  1
  V  V29  1  0.74226685  0.63248769  0.37977165  1
  V  V30  1  0.88409584  0.12438800  0.26712537  1
  V  V31  1  0.75791519  0.24210169  0.51821599  1
  V  V32  1  0.24088504  0.50801648  0.75021383  1
  V  V33  1  0.87667791  0.49157978  0.37920441  1
  V  V34  1  0.87307839  0.87761332  -0.00696123  1
  V  V35  1  0.24643174  -0.00288627  0.75156342  1
  V  V36  1  0.87566303  0.87857135  0.48577657  1
  V  V37  1  0.63156365  0.89539106  0.75029109  1
  V  V38  1  0.00716700  0.25704293  0.25337040  1
  V  V39  1  0.87771472  0.37248289  -0.00010960  1
  V  V40  1  0.12759977  0.85822296  0.74629918  1
  V  V41  1  0.35900927  -0.00385449  0.39052318  1
  V  V42  1  0.63673865  0.23036808  0.38171445  1
  V  V43  1  0.37222678  0.12007991  0.25555486  1
  V  V44  1  0.00904268  -0.00124283  0.02682095  1
  V  V45  1  0.74375575  0.62650000  0.86489083  1
  V  V46  1  0.27114874  0.49794769  0.25516859  1
  V  V47  1  0.49989976  0.11466783  0.11667839  1
  V  V48  1  0.87824982  0.49999620  0.87056768  1
  V  V49  1  0.75026656  0.00989863  0.26939428  1
  V  V50  1  0.62781797  0.60409170  0.00887544  1
  V  V51  1  0.62713890  0.48403489  0.61657038  1
  V  V52  1  0.11855060  0.87960710  0.24765609  1
  V  V53  1  0.74260853  0.37302660  0.12668296  1
  V  V54  1  0.13993244  0.50232212  0.13276136  1
  V  V55  1  0.62517064  0.64056291  0.49818560  1
  V  V56  1  0.38448661  0.50598485  0.89127729  1
  V  V57  1  0.49825048  0.61860940  0.61647079  1
  V  V58  1  0.37047901  0.76547632  0.62632216  1
  V  V59  1  0.37182470  0.64317570  0.26290927  1
  V  V60  1  0.74107369  0.48124925  0.74846496  1
  V  V61  1  0.62367131  -0.00122750  0.10824473  1
  V  V62  1  0.73972589  0.49885632  0.24843043  1
  V  V63  1  0.26032622  0.85635581  0.11340700  1
  V  V64  1  0.36877879  0.26603683  0.12198393  1
  V  V65  1  0.37389815  0.24993767  0.61918246  1
  V  V66  1  0.37493874  0.61581870  0.74819456  1
  V  V67  1  0.74354803  0.23688579  0.00313780  1
  V  V68  1  0.37985183  -0.00692689  0.88664008  1
  V  V69  1  -0.00172637  0.88530290  0.86833830  1
  V  V70  1  0.13013173  0.63392439  0.00092212  1
  V  V71  1  0.15080879  0.15370172  -0.00589212  1
  V  V72  1  0.50308412  0.24374607  0.25705052  1
  Zn  Zn73  1  0.38219594  0.49727498  0.39376030  1
  Zn  Zn74  1  0.61525976  0.86747872  0.25893520  1
  Zn  Zn75  1  0.75009571  0.89540775  0.62786596  1
  Zn  Zn76  1  0.50895955  0.88301510  0.90465398  1
  Zn  Zn77  1  0.49834008  0.37416795  0.40048997  1
  Zn  Zn78  1  0.14660183  0.36562956  0.23856278  1
  Zn  Zn79  1  0.03501874  0.39778025  0.40273189  1
  Zn  Zn80  1  0.50631437  0.38692143  0.89018147  1
  Zn  Zn81  1  0.87240691  0.36890337  0.49938935  1
  Zn  Zn82  1  0.18566178  0.17990830  0.16994732  1
  Zn  Zn83  1  0.18646652  0.19375220  0.69105414  1
  Zn  Zn84  1  0.18480833  0.68359836  0.18619032  1
  Zn  Zn85  1  0.18875275  0.68197115  0.66044039  1
  Zn  Zn86  1  0.68801792  0.18199609  0.18777709  1
  Zn  Zn87  1  0.69172549  0.18050704  0.68761243  1
  Zn  Zn88  1  0.67634465  0.69347542  0.18497592  1
  Zn  Zn89  1  0.68871684  0.67947527  0.68269204  1
  Zn  Zn90  1  0.32271030  0.31814356  0.31054612  1
  Zn  Zn91  1  0.36862208  0.38093076  0.75641779  1
  Zn  Zn92  1  0.30703314  0.82290117  0.31860802  1
  Zn  Zn93  1  0.32269368  0.81506622  0.80791860  1
  Zn  Zn94  1  0.81022243  0.30728951  0.31320708  1
  Zn  Zn95  1  0.81398937  0.30598528  0.82016805  1
  Zn  Zn96  1  0.79930719  0.81047988  0.30786331  1
  Zn  Zn97  1  0.81261059  0.81269219  0.80603801  1
  Zn  Zn98  1  0.20047130  0.43224381  0.42608391  1
  Zn  Zn99  1  0.17112955  0.48388237  0.92072977  1
  Zn  Zn100  1  0.17672164  0.93105347  0.44135814  1
  Zn  Zn101  1  0.18767776  0.93650493  0.93395722  1
  Zn  Zn102  1  0.69088195  0.42770011  0.43772649  1
  Zn  Zn103  1  0.68931426  0.42716367  0.93371662  1
  Zn  Zn104  1  0.68725225  0.92968120  0.44315439  1
  Zn  Zn105  1  0.68674401  0.92975402  0.93074773  1
  Zn  Zn106  1  0.30685713  0.07028408  0.05974358  1
  Zn  Zn107  1  0.30794945  0.05703490  0.57451760  1
  Zn  Zn108  1  0.31509113  0.58418462  0.07054189  1
  Zn  Zn109  1  0.29721271  0.57773785  0.55758035  1
  Zn  Zn110  1  0.81269031  0.05557866  0.06685418  1
  Zn  Zn111  1  0.81776896  0.07343343  0.44905668  1
  Zn  Zn112  1  0.80342553  0.56194107  0.06337422  1
  Zn  Zn113  1  0.81152014  0.56020835  0.56416219  1
  Zn  Zn114  1  0.44766654  0.44494461  0.07060318  1
  Zn  Zn115  1  0.43212660  0.43742281  0.56116043  1
  Zn  Zn116  1  0.43455741  0.92995907  0.18869764  1
  Zn  Zn117  1  0.44464570  0.94025793  0.69609968  1
  Zn  Zn118  1  0.92830767  0.43073153  0.19336270  1
  Zn  Zn119  1  0.94745584  0.44830160  0.70238744  1
  Zn  Zn120  1  0.92585532  0.93340262  0.19550402  1
  Zn  Zn121  1  0.95856819  0.91578681  0.65916095  1
  Zn  Zn122  1  0.06621485  0.06867075  0.30645743  1
  Zn  Zn123  1  0.06446196  0.06892534  0.81969817  1
  Zn  Zn124  1  0.06379060  0.56301497  0.31500006  1
  Zn  Zn125  1  0.05707664  0.56528423  0.81547111  1
  Zn  Zn126  1  0.55963659  0.05239744  0.31422610  1
  Zn  Zn127  1  0.56125554  0.06689458  0.82101950  1
  Zn  Zn128  1  0.55241132  0.55565145  0.31653363  1
  Zn  Zn129  1  0.56441059  0.56536441  0.80953204  1
  Zn  Zn130  1  0.43953055  0.18325048  0.43743212  1
  Zn  Zn131  1  0.43031521  0.18521228  0.94034203  1
  Zn  Zn132  1  0.43281065  0.68382720  0.44245247  1
  Zn  Zn133  1  0.46921913  0.72170514  0.96211280  1
  Zn  Zn134  1  0.97560297  0.22739294  0.47704141  1
  Zn  Zn135  1  0.92070732  0.16193636  0.95834959  1
  Zn  Zn136  1  0.93267398  0.68839779  0.43377050  1
  Zn  Zn137  1  0.93474373  0.68468047  0.93374606  1
  Zn  Zn138  1  0.06416084  0.31687220  0.06329855  1
  Zn  Zn139  1  0.05934776  0.42392376  0.56250781  1
  Zn  Zn140  1  0.06726992  0.81913191  0.06189622  1
  Zn  Zn141  1  0.05488379  0.81286247  0.56230825  1
  Zn  Zn142  1  0.55958640  0.30307279  0.06553972  1
  Zn  Zn143  1  0.57211064  0.30060776  0.56618391  1
  Zn  Zn144  1  0.56142052  0.80188446  0.07984847  1
  Zn  Zn145  1  0.56253940  0.81755840  0.57129484  1
  O  O146  1  0.13013099  0.12135127  0.09203548  1
  O  O147  1  0.12856991  0.11512491  0.63118926  1
  O  O148  1  0.11937611  0.61079119  0.11741551  1
  O  O149  1  0.09953209  0.62199193  0.62830877  1
  O  O150  1  0.61529390  0.10842558  0.13033379  1
  O  O151  1  0.60659226  0.12402596  0.63118468  1
  O  O152  1  0.65506278  0.60743812  0.10738344  1
  O  O153  1  0.62072651  0.61832374  0.61009297  1
  O  O154  1  0.38339089  0.37934549  0.38008558  1
  O  O155  1  0.38159376  0.40261995  0.87039677  1
  O  O156  1  0.38396681  0.89138922  0.37619406  1
  O  O157  1  0.38581463  0.88924812  0.86693478  1
  O  O158  1  0.86958844  0.38901631  0.36730376  1
  O  O159  1  0.86357798  0.38687347  0.89028963  1
  O  O160  1  0.87137769  0.86185277  0.38735858  1
  O  O161  1  0.88454040  0.86630093  0.88245604  1
  O  O162  1  0.25667102  -0.00990984  0.37308893  1
  O  O163  1  0.26164733  -0.00827114  0.86051417  1
  O  O164  1  0.26101362  0.50234314  0.35904258  1
  O  O165  1  0.26736192  0.50707733  0.85485925  1
  O  O166  1  0.75199660  0.00329992  0.37111795  1
  O  O167  1  0.74492241  0.01232483  0.88175965  1
  O  O168  1  0.75569966  0.50467844  0.36474551  1
  O  O169  1  0.75145416  0.50359833  0.86468944  1
  O  O170  1  0.24272126  0.50264542  0.12762986  1
  O  O171  1  0.25146609  0.49128779  0.62890501  1
  O  O172  1  0.25251776  0.99220683  0.13395913  1
  O  O173  1  0.23662274  0.99648453  0.64126568  1
  O  O174  1  0.75755231  0.48351309  0.13617610  1
  O  O175  1  0.74325968  0.50244051  0.63982043  1
  O  O176  1  0.73631275  0.98896954  0.12475771  1
  O  O177  1  0.76624909  1.01857868  0.63389251  1
  O  O178  1  -0.00484990  0.35974863  0.25598701  1
  O  O179  1  0.02544899  0.38250702  0.74802296  1
  O  O180  1  0.01084222  0.86802487  0.24733368  1
  O  O181  1  0.00232415  0.86260902  0.75718484  1
  O  O182  1  0.51457214  0.35330818  0.24158261  1
  O  O183  1  0.48811771  0.35194799  0.75699304  1
  O  O184  1  0.50132149  0.88387245  0.27088732  1
  O  O185  1  0.51484695  0.86016278  0.74309510  1
  O  O186  1  0.49226451  0.12544309  0.24881060  1
  O  O187  1  0.48771302  0.12459259  0.74023693  1
  O  O188  1  0.48491768  0.62242099  0.24932823  1
  O  O189  1  0.49316599  0.62938555  0.73674227  1
  O  O190  1  0.99025642  0.13619129  0.25064397  1
  O  O191  1  0.99392745  0.14848744  0.75915024  1
  O  O192  1  0.98268888  0.63323991  0.25412485  1
  O  O193  1  0.99471486  0.63139264  0.74718041  1
  O  O194  1  0.38334025  0.24338309  0.02392459  1
  O  O195  1  0.36380192  0.23980579  0.50894397  1
  O  O196  1  0.33823566  0.74014479  -0.03461666  1
  O  O197  1  0.36181100  0.74737084  0.51245834  1
  O  O198  1  0.87022927  0.25429800  0.00716860  1
  O  O199  1  0.86284944  0.24519225  0.50048432  1
  O  O200  1  0.87210271  0.75555736  0.00424530  1
  O  O201  1  0.88437881  0.76391961  0.50947184  1
  O  O202  1  0.13694895  0.24520954  0.48291749  1
  O  O203  1  0.12071313  0.25281842  0.99252119  1
  O  O204  1  0.11744148  0.75977312  0.48142295  1
  O  O205  1  0.10758991  0.73191120  1.00047191  1
  O  O206  1  0.63718859  0.24990224  0.48670092  1
  O  O207  1  0.63596938  0.24590206  0.99705305  1
  O  O208  1  0.62762306  0.73904346  0.50511859  1
  O  O209  1  0.64248933  0.74393722  1.00088934  1
  O  O210  1  0.49843380  0.22906247  0.13780831  1
  O  O211  1  0.49386649  0.23639503  0.63621983  1
  O  O212  1  0.55891874  0.71636860  0.15588171  1
  O  O213  1  0.49309015  0.73991138  0.62928638  1
  O  O214  1  0.98933006  0.25726501  0.13693850  1
  O  O215  1  0.92320266  0.28834842  0.64264997  1
  O  O216  1  0.98739718  0.75706568  0.13398267  1
  O  O217  1  0.99151877  0.73942608  0.63219800  1
  O  O218  1  0.02015965  0.24633767  0.36247644  1
  O  O219  1  -0.03795366  0.20961214  0.80045776  1
  O  O220  1  0.00735987  0.74860280  0.36261023  1
  O  O221  1  -0.00802790  0.74966471  0.85691371  1
  O  O222  1  0.50913494  0.24654796  0.36854911  1
  O  O223  1  0.50367257  0.23677805  0.86521633  1
  O  O224  1  0.48887992  0.76943939  0.38953552  1
  O  O225  1  0.49431155  0.74227104  0.85218231  1
  O  O226  1  0.24823683  0.13353354  0.50525880  1
  O  O227  1  0.25400750  0.14482343  0.99371401  1
  O  O228  1  0.22519145  0.66180857  0.53550586  1
  O  O229  1  0.23066798  0.62421573  1.00771888  1
  O  O230  1  0.74687116  0.14076632  0.50074058  1
  O  O231  1  0.75703871  0.13333373  0.99936563  1
  O  O232  1  0.73901169  0.61875215  0.48876808  1
  O  O233  1  0.74455318  0.62754580  0.98744714  1
  O  O234  1  0.25025516  0.38361150  -0.00626314  1
  O  O235  1  0.24838835  0.36810720  0.51353707  1
  O  O236  1  0.23929229  0.87455387  0.01527848  1
  O  O237  1  0.23525752  0.85630585  0.51059403  1
  O  O238  1  0.75627584  0.36393850  0.00946038  1
  O  O239  1  0.75713390  0.35476223  0.49346974  1
  O  O240  1  0.75679790  0.86610136  0.00092970  1
  O  O241  1  0.77020403  0.89065165  0.50892365  1
  O  O242  1  0.13594590  0.50867299  0.24055496  1
  O  O243  1  0.13970917  0.50950403  0.75210411  1
  O  O244  1  0.13659524  0.98919288  0.25451096  1
  O  O245  1  0.12904830  0.99744083  0.74655409  1
  O  O246  1  0.63256501  0.48774784  0.25698544  1
  O  O247  1  0.63578964  0.50073548  0.74188337  1
  O  O248  1  0.64500295  0.99435397  0.25348110  1
  O  O249  1  0.61671549  0.99406191  0.74795444  1
  O  O250  1  0.36096399  0.00129963  0.25863805  1
  O  O251  1  0.36821930  0.00969486  0.75033537  1
  O  O252  1  0.36936571  0.51131680  0.24272208  1
  O  O253  1  0.37124306  0.51113491  0.74014514  1
  O  O254  1  0.87587880  0.02004703  0.25310185  1
  O  O255  1  0.84190104  0.03713055  0.65732205  1
  O  O256  1  0.86125609  0.50743488  0.25515094  1
  O  O257  1  0.86250408  0.49350505  0.76448089  1
  O  O258  1  0.13591978  0.35382770  0.35494440  1
  O  O259  1  0.13443985  0.39209456  0.86361055  1
  O  O260  1  0.13391443  0.86068362  0.35458947  1
  O  O261  1  0.10743888  0.87511801  0.86158318  1
  O  O262  1  0.62217404  0.36032490  0.36533155  1
  O  O263  1  0.62066703  0.35352460  0.87801386  1
  O  O264  1  0.60985426  0.87553272  0.37981289  1
  O  O265  1  0.61627759  0.87614542  0.85854382  1
  O  O266  1  0.38867535  0.11385845  0.13871993  1
  O  O267  1  0.37793494  0.13197384  0.63465023  1
  O  O268  1  0.39425797  0.64342556  0.12968459  1
  O  O269  1  0.38490850  0.63494676  0.62915024  1
  O  O270  1  0.87016550  0.13602785  0.13125271  1
  O  O271  1  0.86542917  0.10640319  0.64054490  1
  O  O272  1  0.86140616  0.63408745  0.13568834  1
  O  O273  1  0.88589114  0.63592488  0.61219805  1
  O  O274  1  0.26952416  0.25206823  0.13880515  1
  O  O275  1  0.25417649  0.25476096  0.61346434  1
  O  O276  1  0.24922659  0.75636391  0.12653070  1
  O  O277  1  0.26830949  0.76338082  0.63605800  1
  O  O278  1  0.75640613  0.25210053  0.12104466  1
  O  O279  1  0.74319573  0.25142404  0.61835492  1
  O  O280  1  0.76166149  0.75493362  0.10833994  1
  O  O281  1  0.76621372  0.73911469  0.62550558  1
  O  O282  1  0.25229201  0.25186765  0.38753234  1
  O  O283  1  0.26452905  0.32591225  0.95152644  1
  O  O284  1  0.24240185  0.75077810  0.38890208  1
  O  O285  1  0.29038744  0.74515028  0.90729387  1
  O  O286  1  0.73818176  0.24001103  0.36835928  1
  O  O287  1  0.74361104  0.24147955  0.88556554  1
  O  O288  1  0.75194555  0.73088156  0.37735245  1
  O  O289  1  0.76222279  0.73307615  0.87774919  1
  O  O290  1  -0.00343279  0.09898953  0.00491130  1
  O  O291  1  -0.00310016  0.11408639  0.49711981  1
  O  O292  1  -0.00561002  0.60996462  0.00170832  1
  O  O293  1  0.00188107  0.62554086  0.50080705  1
  O  O294  1  0.49549985  0.12011551  0.01849463  1
  O  O295  1  0.49397825  0.11490427  0.51486292  1
  O  O296  1  0.52266997  0.63610267  0.01813649  1
  O  O297  1  0.51464256  0.62874862  0.50382138  1
  O  O298  1  0.49143061  0.35623569  0.51344245  1
  O  O299  1  0.50308486  0.37500065  1.00297422  1
  O  O300  1  0.50327483  0.89050327  0.49786564  1
  O  O301  1  0.48769037  0.82782880  1.00140666  1
  O  O302  1  0.98792681  0.34746403  0.49830900  1
  O  O303  1  0.98359916  0.38846194  1.00889687  1
  O  O304  1  0.98426185  0.89287217  0.51642448  1
  O  O305  1  0.99326082  0.87832162  0.98681315  1
  O  O306  1  0.49844380  0.48943964  0.38579916  1
  O  O307  1  0.48950413  0.50822530  0.87480285  1
  O  O308  1  0.49058195  0.99772450  0.39317592  1
  O  O309  1  0.48652551  1.00109589  0.87800196  1
  O  O310  1  0.98025766  0.49849101  0.36088444  1
  O  O311  1  0.98020082  0.50104599  0.88028500  1
  O  O312  1  1.02214607  1.00017040  0.38763657  1
  O  O313  1  0.99081698  0.98458175  0.86332883  1
  O  O314  1  0.00159807  -0.01346976  0.12599676  1
  O  O315  1  0.01198522  0.01072320  0.63403827  1
  O  O316  1  -0.01342376  0.50416552  0.12280148  1
  O  O317  1  -0.01161205  0.50599999  0.61382102  1
  O  O318  1  0.51354247  0.00298609  0.13584206  1
  O  O319  1  0.49235782  0.00835974  0.61459921  1
  O  O320  1  0.50878205  0.52504115  0.12787050  1
  O  O321  1  0.51600547  0.50987435  0.62448511  1
  O  O322  1  0.26000371  0.39207679  0.24443602  1
  O  O323  1  0.24680013  0.39388610  0.74039068  1
  O  O324  1  0.24401930  0.88429605  0.24129713  1
  O  O325  1  0.23220918  0.87343568  0.75971532  1
  O  O326  1  0.74180513  0.37815964  0.24555584  1
  O  O327  1  0.75080521  0.38187768  0.75553063  1
  O  O328  1  0.78587657  0.90880565  0.24058209  1
  O  O329  1  0.73709767  0.87807271  0.75317994  1
  O  O330  1  0.25671561  0.10855813  0.24048954  1
  O  O331  1  0.26172829  0.11800063  0.74758760  1
  O  O332  1  0.26696280  0.61736024  0.23880166  1
  O  O333  1  0.26332479  0.61730314  0.73122986  1
  O  O334  1  0.76320353  0.11404174  0.24687375  1
  O  O335  1  0.74890704  0.12437094  0.76450130  1
  O  O336  1  0.74895019  0.61839254  0.25981783  1
  O  O337  1  0.74704491  0.61591110  0.76234133  1
  O  O338  1  0.37758467  0.10974369  0.36479589  1
  O  O339  1  0.37870317  0.11543429  0.86113502  1
  O  O340  1  0.37707502  0.62128199  0.36457762  1
  O  O341  1  0.37912413  0.61537459  0.85194992  1
  O  O342  1  0.87650053  0.13243858  0.36570935  1
  O  O343  1  0.85830735  0.12343648  0.87654344  1
  O  O344  1  0.86163765  0.61621031  0.36787741  1
  O  O345  1  0.85913719  0.60624111  0.88402013  1
  O  O346  1  0.11515162  0.39718510  0.13098127  1
  O  O347  1  0.13991422  0.37510889  0.63734484  1
  O  O348  1  0.13590257  0.86645374  0.14294440  1
  O  O349  1  0.11150932  0.88231782  0.64508885  1
  O  O350  1  0.63706915  0.36007245  0.13718997  1
  O  O351  1  0.62309792  0.38587351  0.62683165  1
  O  O352  1  0.63048710  0.88586786  0.12965539  1
  O  O353  1  0.63417680  0.87252452  0.64115402  1
  O  O354  1  0.11466170  0.24722621  0.23876481  1
  O  O355  1  0.13953736  0.26512567  0.76305590  1
  O  O356  1  0.11555788  0.75378995  0.25467014  1
  O  O357  1  0.11400019  0.75481528  0.74052212  1
  O  O358  1  0.62157453  0.24815314  0.25939019  1
  O  O359  1  0.60913463  0.24246832  0.75582922  1
  O  O360  1  0.70111487  0.79692725  0.23238897  1
  O  O361  1  0.61253431  0.73801884  0.74495775  1
  O  O362  1  0.38466306  0.23810898  0.24578220  1
  O  O363  1  0.38115343  0.23571109  0.74361015  1
  O  O364  1  0.36730423  0.74257905  0.26193851  1
  O  O365  1  0.38417060  0.74105827  0.73994593  1
  O  O366  1  0.88354175  0.24190632  0.24694715  1
  O  O367  1  0.89623136  0.23834299  0.76336891  1
  O  O368  1  0.87837112  0.74441921  0.24299764  1
  O  O369  1  0.88465311  0.75074261  0.73539239  1
  O  O370  1  0.37074973  0.51366648  0.50730375  1
  O  O371  1  0.37392285  0.51284342  0.99424146  1
  O  O372  1  0.36869819  1.00502635  0.49158333  1
  O  O373  1  0.36497137  1.00361541  0.98455208  1
  O  O374  1  0.86649408  0.49556352  0.48298898  1
  O  O375  1  0.87661970  0.49360282  0.99804124  1
  O  O376  1  0.89085777  0.99385214  0.48709950  1
  O  O377  1  0.88573441  0.98239897  1.01173263  1
  O  O378  1  0.10548101  -0.01942659  0.00210815  1
  O  O379  1  0.11386848  -0.00790112  0.51920720  1
  O  O380  1  0.10476609  0.50112861  0.01856782  1
  O  O381  1  0.10424425  0.47023270  0.46932738  1
  O  O382  1  0.62007613  -0.00795154  0.01018940  1
  O  O383  1  0.61528458  0.00372647  0.50106154  1
  O  O384  1  0.62761836  0.50528987  -0.00752712  1
  O  O385  1  0.63691657  0.49962390  0.51401837  1
  O  O386  1  0.38445692  0.36504706  0.12820169  1
  O  O387  1  0.36064475  0.36192643  0.63686126  1
  O  O388  1  0.36062514  0.87314181  0.12705185  1
  O  O389  1  0.38811889  0.86322657  0.63020983  1
  O  O390  1  0.86258888  0.36156988  0.12158863  1
  O  O391  1  0.88770947  0.35441406  0.63755013  1
  O  O392  1  0.86389820  0.86327619  0.11783726  1
  O  O393  1  0.86756770  0.86049549  0.62373070  1
  O  O394  1  0.13944998  0.14205324  0.35528513  1
  O  O395  1  0.12373221  0.11124014  0.90317287  1
  O  O396  1  0.12719736  0.64210336  0.36740476  1
  O  O397  1  0.12331093  0.59794218  0.90077954  1
  O  O398  1  0.61993120  0.13177491  0.37318829  1
  O  O399  1  0.63515417  0.13622620  0.87585685  1
  O  O400  1  0.63218411  0.62017565  0.38508985  1
  O  O401  1  0.63872238  0.62087638  0.88476344  1
