# generated using pymatgen
data_V73Zn73O256
_symmetry_space_group_name_H-M   'P 1'
_cell_length_a   16.87286180
_cell_length_b   16.95624403
_cell_length_c   16.95816173
_cell_angle_alpha   89.86175285
_cell_angle_beta   90.12861587
_cell_angle_gamma   90.13687491
_symmetry_Int_Tables_number   1
_chemical_formula_structural   V73Zn73O256
_chemical_formula_sum   'V73 Zn73 O256'
_cell_volume   4851.69608246
_cell_formula_units_Z   1
loop_
 _symmetry_equiv_pos_site_id
 _symmetry_equiv_pos_as_xyz
  1  'x, y, z'
loop_
 _atom_site_type_symbol
 _atom_site_label
 _atom_site_symmetry_multiplicity
 _atom_site_fract_x
 _atom_site_fract_y
 _atom_site_fract_z
 _atom_site_occupancy
  V  V0  1  0.00460967  0.11927525  0.62161083  1
  V  V1  1  0.12341168  0.24945301  0.37497512  1
  V  V2  1  0.72605998  0.00715814  0.24717382  1
  V  V3  1  0.24824786  0.37440466  0.11928302  1
  V  V4  1  0.65042388  0.37746694  0.23849582  1
  V  V5  1  0.37919253  0.37454704  0.49949441  1
  V  V6  1  0.50526996  0.61860573  0.11106194  1
  V  V7  1  -0.00065650  0.87507695  0.37533214  1
  V  V8  1  0.12659589  0.39118595  0.74153309  1
  V  V9  1  0.87301447  -0.00017658  0.87383918  1
  V  V10  1  0.88377411  0.74849180  0.64606682  1
  V  V11  1  0.13296584  0.88251338  0.25112239  1
  V  V12  1  0.24868745  0.38530635  0.62774224  1
  V  V13  1  0.12650867  0.11724659  0.50261972  1
  V  V14  1  -0.00258398  0.62389563  0.63295664  1
  V  V15  1  0.49946309  0.00232227  0.01685965  1
  V  V16  1  0.37719546  -0.00948307  0.37639268  1
  V  V17  1  0.49607237  0.61731556  0.63042844  1
  V  V18  1  0.85957348  0.37976596  0.49956184  1
  V  V19  1  0.50568492  0.38830733  0.87907212  1
  V  V20  1  0.37942333  0.76778062  0.63985075  1
  V  V21  1  0.14001026  0.74792076  0.37655169  1
  V  V22  1  0.50379637  -0.01369530  0.50334458  1
  V  V23  1  0.12976596  0.62277115  0.50430309  1
  V  V24  1  0.87197327  0.01438083  0.36756095  1
  V  V25  1  0.49655898  0.36391799  0.35657937  1
  V  V26  1  0.62066630  0.12895350  0.50639990  1
  V  V27  1  0.73832104  0.86760876  0.62464575  1
  V  V28  1  0.25056792  0.25120015  -0.00202745  1
  V  V29  1  0.13005253  0.51435167  0.11684339  1
  V  V30  1  -0.01064462  0.12892974  0.12601216  1
  V  V31  1  0.25801675  0.76505491  0.51235311  1
  V  V32  1  0.00129968  -0.00143592  0.50453230  1
  V  V33  1  0.37327236  0.87251095  0.00095456  1
  V  V34  1  0.61553482  0.23094136  0.86361566  1
  V  V35  1  0.74360446  0.87795243  0.12650147  1
  V  V36  1  0.24777320  0.00945219  0.73395159  1
  V  V37  1  0.00864943  0.63012804  0.11868097  1
  V  V38  1  0.87267777  0.86551771  0.50091468  1
  V  V39  1  0.36319297  0.01558225  0.87898796  1
  V  V40  1  0.61912662  0.12161137  0.02182170  1
  V  V41  1  0.75842698  0.75646661  0.00269521  1
  V  V42  1  0.25336719  0.24712316  0.50179877  1
  V  V43  1  0.87290159  0.61383643  0.25788095  1
  V  V44  1  0.24388514  0.73706148  -0.00165585  1
  V  V45  1  0.75745007  0.23088890  0.00239511  1
  V  V46  1  0.00005420  0.38179100  0.38249570  1
  V  V47  1  0.87111618  0.11976510  0.74824931  1
  V  V48  1  0.13324127  0.87639166  0.74118317  1
  V  V49  1  0.12660742  0.74260497  0.87408074  1
  V  V50  1  -0.00487733  0.75090569  0.24865641  1
  V  V51  1  0.38005872  0.25047000  0.12964189  1
  V  V52  1  0.00123488  0.24652954  0.74534765  1
  V  V53  1  0.38136105  0.23986001  0.64262950  1
  V  V54  1  -0.00479588  -0.00383042  0.00051599  1
  V  V55  1  -0.00807490  0.24643752  0.24689346  1
  V  V56  1  0.39194097  0.12314563  0.24806567  1
  V  V57  1  0.86484124  0.24831788  0.61335273  1
  V  V58  1  0.25495641  0.50675782  0.25856930  1
  V  V59  1  -0.00739401  0.38067622  0.87579913  1
  V  V60  1  0.37641671  0.50981151  0.37561002  1
  V  V61  1  0.50157861  0.86986181  0.86682127  1
  V  V62  1  0.24777427  0.87846372  0.11917470  1
  V  V63  1  0.12658075  0.00422941  0.12986457  1
  V  V64  1  0.63653361  0.38847952  0.74219207  1
  V  V65  1  0.73972894  -0.00993833  0.74905142  1
  V  V66  1  0.24869587  0.12213047  0.36189328  1
  V  V67  1  0.12915594  0.12587315  -0.00509749  1
  V  V68  1  0.12614457  0.37706770  0.24938989  1
  V  V69  1  0.64274394  0.76293131  0.37502969  1
  V  V70  1  0.00061295  0.87345018  0.87009949  1
  V  V71  1  0.35239453  0.50323713  0.87957297  1
  V  V72  1  0.13306292  0.24416593  0.86913114  1
  Zn  Zn73  1  0.61964890  0.75043991  0.89626028  1
  Zn  Zn74  1  0.61896589  0.50030122  0.12842372  1
  Zn  Zn75  1  0.38222327  0.73605945  0.13945237  1
  Zn  Zn76  1  0.50979389  0.74345812  0.25229403  1
  Zn  Zn77  1  0.50996647  0.49502491  0.50960586  1
  Zn  Zn78  1  0.63637768  0.24490088  0.36936740  1
  Zn  Zn79  1  0.82089035  0.38774340  0.05919569  1
  Zn  Zn80  1  0.61219158  0.62399864  0.49156312  1
  Zn  Zn81  1  0.36375705  0.61846503  0.75314171  1
  Zn  Zn82  1  0.18162729  0.19019214  0.18270944  1
  Zn  Zn83  1  0.19474208  0.18767664  0.68547497  1
  Zn  Zn84  1  0.20771735  0.69924027  0.19899623  1
  Zn  Zn85  1  0.18720321  0.68888446  0.68928009  1
  Zn  Zn86  1  0.69354114  0.19207871  0.19257440  1
  Zn  Zn87  1  0.68440055  0.17879522  0.68545741  1
  Zn  Zn88  1  0.68312026  0.69656838  0.18888190  1
  Zn  Zn89  1  0.69580382  0.67484372  0.66495836  1
  Zn  Zn90  1  0.31329477  0.31200857  0.30986282  1
  Zn  Zn91  1  0.31928028  0.32463386  0.81619811  1
  Zn  Zn92  1  0.33979082  0.81476988  0.29820841  1
  Zn  Zn93  1  0.31055150  0.81598951  0.81429863  1
  Zn  Zn94  1  0.81518751  0.31873229  0.30864095  1
  Zn  Zn95  1  0.78437628  0.33043959  0.85443308  1
  Zn  Zn96  1  0.80812090  0.82005699  0.30787689  1
  Zn  Zn97  1  0.80864896  0.81145877  0.81717745  1
  Zn  Zn98  1  0.18917814  0.43809598  0.44142258  1
  Zn  Zn99  1  0.17147756  0.43375860  0.93582466  1
  Zn  Zn100  1  0.19349008  0.93912666  0.43672359  1
  Zn  Zn101  1  0.18233653  0.93742373  0.93619971  1
  Zn  Zn102  1  0.67021505  0.42812763  0.44232154  1
  Zn  Zn103  1  0.65716140  0.40723534  0.96303976  1
  Zn  Zn104  1  0.68962717  0.94453419  0.43841956  1
  Zn  Zn105  1  0.68365907  0.93532201  0.94125413  1
  Zn  Zn106  1  0.31402309  0.06502308  0.06521072  1
  Zn  Zn107  1  0.32129600  0.06053854  0.55877355  1
  Zn  Zn108  1  0.32222606  0.55623132  0.05754220  1
  Zn  Zn109  1  0.31349272  0.57136796  0.56382517  1
  Zn  Zn110  1  0.80764667  0.05270628  0.06575360  1
  Zn  Zn111  1  0.80755797  0.05200279  0.56368845  1
  Zn  Zn112  1  0.79422153  0.59977082  0.10352341  1
  Zn  Zn113  1  0.99695711  0.50561321  0.50107358  1
  Zn  Zn114  1  0.43508259  0.44435366  0.17981249  1
  Zn  Zn115  1  0.44318988  0.43333190  0.70142967  1
  Zn  Zn116  1  0.44115967  0.93149124  0.19839539  1
  Zn  Zn117  1  0.44227839  0.96195591  0.69787959  1
  Zn  Zn118  1  0.94103219  0.44758401  0.19297357  1
  Zn  Zn119  1  0.93620739  0.43577737  0.68014495  1
  Zn  Zn120  1  0.93437304  0.93844666  0.18659356  1
  Zn  Zn121  1  0.93820058  0.93220732  0.68895887  1
  Zn  Zn122  1  0.05646609  0.06443123  0.31490062  1
  Zn  Zn123  1  0.06624395  0.05830479  0.80936823  1
  Zn  Zn124  1  0.06854237  0.56603502  0.31322382  1
  Zn  Zn125  1  0.01075948  0.58791480  0.83654330  1
  Zn  Zn126  1  0.56213324  0.06501084  0.32681794  1
  Zn  Zn127  1  0.55104176  0.05463436  0.81958580  1
  Zn  Zn128  1  0.55746385  0.56262878  0.30088775  1
  Zn  Zn129  1  0.56253641  0.56113410  0.79731849  1
  Zn  Zn130  1  0.44140097  0.18213740  0.43988628  1
  Zn  Zn131  1  0.44163260  0.19180844  0.94217748  1
  Zn  Zn132  1  0.43920860  0.69162637  0.44454120  1
  Zn  Zn133  1  0.43365321  0.68148564  0.93677091  1
  Zn  Zn134  1  0.79797066  0.18126483  0.43564317  1
  Zn  Zn135  1  0.94546073  0.18393659  0.93017554  1
  Zn  Zn136  1  0.93893320  0.68504348  0.43764400  1
  Zn  Zn137  1  0.93060520  0.70574918  0.95403708  1
  Zn  Zn138  1  0.01763864  0.33857679  0.07573564  1
  Zn  Zn139  1  0.06407434  0.30602155  0.56313770  1
  Zn  Zn140  1  0.06494507  0.81371507  0.06066106  1
  Zn  Zn141  1  0.06310000  0.80918854  0.56266218  1
  Zn  Zn142  1  0.56641443  0.30785270  0.06532127  1
  Zn  Zn143  1  0.56595506  0.30301613  0.56944999  1
  Zn  Zn144  1  0.56791876  0.81174257  0.07358543  1
  Zn  Zn145  1  0.55763407  0.80046008  0.54902958  1
  O  O146  1  0.11665695  0.11877886  0.11756725  1
  O  O147  1  0.11785626  0.13053594  0.61202007  1
  O  O148  1  0.12764408  0.61956912  0.13695316  1
  O  O149  1  0.11081911  0.64212876  0.60945304  1
  O  O150  1  0.61774759  0.12796507  0.11960650  1
  O  O151  1  0.62284049  0.12541954  0.60848866  1
  O  O152  1  0.61478864  0.61971382  0.13336406  1
  O  O153  1  0.60249228  0.63241149  0.61793555  1
  O  O154  1  0.37944832  0.37512052  0.38217857  1
  O  O155  1  0.39771158  0.38158454  0.87833543  1
  O  O156  1  0.35113411  0.89471941  0.37589407  1
  O  O157  1  0.37703909  0.87842959  0.88939222  1
  O  O158  1  0.89430699  0.36555876  0.38842771  1
  O  O159  1  0.89338549  0.36160045  0.87141933  1
  O  O160  1  0.88784989  0.87941996  0.38045829  1
  O  O161  1  0.89371110  0.88551048  0.86562740  1
  O  O162  1  0.25857833  0.01641080  0.38237939  1
  O  O163  1  0.26109336  0.00513082  0.88914386  1
  O  O164  1  0.26039783  0.48667772  0.36478568  1
  O  O165  1  0.25265539  0.48579866  0.87508011  1
  O  O166  1  0.76724080  -0.00756917  0.36230907  1
  O  O167  1  0.76452203  -0.01601088  0.86226118  1
  O  O168  1  0.75176332  0.51976708  0.37791861  1
  O  O169  1  0.78543761  0.55554400  0.88528888  1
  O  O170  1  0.24538059  0.49384405  0.13679961  1
  O  O171  1  0.25284447  0.48226704  0.61294798  1
  O  O172  1  0.23432895  0.99386820  0.11723911  1
  O  O173  1  0.25898086  1.00177326  0.63527036  1
  O  O174  1  0.76344125  0.49011331  0.07380429  1
  O  O175  1  0.79974557  0.53181279  0.69380046  1
  O  O176  1  0.74105442  0.99889533  0.13949086  1
  O  O177  1  0.75471535  0.98143409  0.63911505  1
  O  O178  1  0.00973666  0.36831764  0.26058110  1
  O  O179  1  0.01083893  0.36371976  0.74295771  1
  O  O180  1  0.01083198  0.86732433  0.25546690  1
  O  O181  1  0.01514244  0.88485243  0.76367109  1
  O  O182  1  0.48620644  0.37189524  0.25753699  1
  O  O183  1  0.51852950  0.37539980  0.76706278  1
  O  O184  1  0.44662542  0.83943303  0.25769586  1
  O  O185  1  0.48983445  0.88140217  0.76943355  1
  O  O186  1  0.48974592  0.12873477  0.25263765  1
  O  O187  1  0.47919419  0.06640286  0.73676477  1
  O  O188  1  0.49426965  0.62716575  0.23151763  1
  O  O189  1  0.48920830  0.62359308  0.73586873  1
  O  O190  1  1.00762707  0.14041391  0.24381199  1
  O  O191  1  0.99811790  0.12459877  0.73795626  1
  O  O192  1  1.00048328  0.64048721  0.25310940  1
  O  O193  1  1.00979553  0.62767780  0.73050058  1
  O  O194  1  0.35900315  0.23842395  0.01496507  1
  O  O195  1  0.36467680  0.25665352  0.49899689  1
  O  O196  1  0.35605715  0.75850260  0.00251888  1
  O  O197  1  0.36064338  0.75348053  0.50480531  1
  O  O198  1  0.85703961  0.22250492  -0.01161476  1
  O  O199  1  0.87013233  0.25073686  0.51042893  1
  O  O200  1  0.86175228  0.77722303  0.00103232  1
  O  O201  1  0.87988988  0.76461629  0.49661152  1
  O  O202  1  0.13261204  0.24031877  0.49193916  1
  O  O203  1  0.13222927  0.24068124  0.98601990  1
  O  O204  1  0.13032201  0.74902417  0.48943041  1
  O  O205  1  0.13265064  0.75792614  0.98521386  1
  O  O206  1  0.61764389  0.23623078  0.49527546  1
  O  O207  1  0.62430319  0.22869391  1.00007108  1
  O  O208  1  0.62902145  0.73817644  0.48513829  1
  O  O209  1  0.64293380  0.76024700  1.00672556  1
  O  O210  1  0.47788788  0.25688635  0.11838299  1
  O  O211  1  0.47874316  0.25680395  0.62631773  1
  O  O212  1  0.49813910  0.74048943  0.12926225  1
  O  O213  1  0.48228287  0.74259337  0.61826263  1
  O  O214  1  1.01245249  0.24344709  0.13952461  1
  O  O215  1  0.99642947  0.23664008  0.62722863  1
  O  O216  1  1.01999843  0.74314384  0.14216372  1
  O  O217  1  0.98966836  0.74668172  0.62341738  1
  O  O218  1  0.01553388  0.25892720  0.36231567  1
  O  O219  1  0.01231833  0.25336128  0.86200472  1
  O  O220  1  0.00991457  0.76176426  0.36694586  1
  O  O221  1  0.00908226  0.76861423  0.88454117  1
  O  O222  1  0.49321034  0.26433210  0.37595684  1
  O  O223  1  0.51148394  0.26055880  0.88599070  1
  O  O224  1  0.51400186  0.73370644  0.37166419  1
  O  O225  1  0.49751558  0.76506856  0.88498899  1
  O  O226  1  0.24351634  0.13251635  0.49189824  1
  O  O227  1  0.23644344  0.13468504  1.00907319  1
  O  O228  1  0.23466061  0.64121208  0.50705998  1
  O  O229  1  0.24906560  0.64000705  1.01098333  1
  O  O230  1  0.73602280  0.11204383  0.50135498  1
  O  O231  1  0.72952316  0.11869132  1.00416739  1
  O  O232  1  0.74986572  0.58117862  0.41726738  1
  O  O233  1  0.76358362  0.65466587  1.01114638  1
  O  O234  1  0.23495879  0.36448105  0.01199824  1
  O  O235  1  0.25263973  0.36423916  0.50697500  1
  O  O236  1  0.25494130  0.87611348  0.00441721  1
  O  O237  1  0.24067661  0.86350135  0.50500860  1
  O  O238  1  0.75577711  0.34629032  -0.02158770  1
  O  O239  1  0.76061284  0.38008225  0.49204063  1
  O  O240  1  0.74821330  0.88548912  0.01843465  1
  O  O241  1  0.76236408  0.88711881  0.51712113  1
  O  O242  1  0.13555913  0.49083563  0.25160662  1
  O  O243  1  0.12150795  0.48566460  0.74244653  1
  O  O244  1  0.11395241  0.99414758  0.24103193  1
  O  O245  1  0.13661866  0.98935175  0.75222008  1
  O  O246  1  0.61972583  0.48016276  0.24908591  1
  O  O247  1  0.63627690  0.48937440  0.74831444  1
  O  O248  1  0.62738743  0.99878056  0.26018386  1
  O  O249  1  0.64327352  1.00221383  0.76134107  1
  O  O250  1  0.37595587  0.01645865  0.25863127  1
  O  O251  1  0.35216818  -0.00755102  0.77123762  1
  O  O252  1  0.36266250  0.49405342  0.26037319  1
  O  O253  1  0.37819553  0.49313853  0.77336906  1
  O  O254  1  0.89540927  0.00724189  0.26947293  1
  O  O255  1  0.87454848  0.00356670  0.75519731  1
  O  O256  1  0.88441671  0.51386923  0.26044388  1
  O  O257  1  0.85505067  0.49797879  0.74129488  1
  O  O258  1  0.12279026  0.36787844  0.36992516  1
  O  O259  1  0.12129997  0.36408538  0.85263313  1
  O  O260  1  0.11942015  0.87222750  0.36969075  1
  O  O261  1  0.11612686  0.87204264  0.86810179  1
  O  O262  1  0.60793129  0.37335172  0.36241056  1
  O  O263  1  0.62338538  0.35805374  0.86036088  1
  O  O264  1  0.63218604  0.86221614  0.38451364  1
  O  O265  1  0.60427480  0.87961116  0.88037035  1
  O  O266  1  0.36708118  0.13519070  0.13980779  1
  O  O267  1  0.36618623  0.14241192  0.62158772  1
  O  O268  1  0.39141488  0.62188168  0.11588832  1
  O  O269  1  0.37934317  0.63633500  0.62880844  1
  O  O270  1  0.89099477  0.11757143  0.12091362  1
  O  O271  1  0.88536110  0.12896838  0.62665264  1
  O  O272  1  0.90567730  0.62127443  0.14071618  1
  O  O273  1  0.88814581  0.64525060  0.62198110  1
  O  O274  1  0.24821750  0.25845936  0.11710751  1
  O  O275  1  0.25440666  0.25637609  0.61373233  1
  O  O276  1  0.22581760  0.76880037  0.10388455  1
  O  O277  1  0.25990254  0.75408910  0.61753159  1
  O  O278  1  0.74861628  0.24482726  0.10273700  1
  O  O279  1  0.76865121  0.24190788  0.63408737  1
  O  O280  1  0.75015070  0.76893753  0.12196988  1
  O  O281  1  0.76763520  0.75956413  0.63016016  1
  O  O282  1  0.24092898  0.24521286  0.38122535  1
  O  O283  1  0.24181038  0.26224362  0.88330235  1
  O  O284  1  0.24017950  0.75652863  0.38572055  1
  O  O285  1  0.23844416  0.75152720  0.88699057  1
  O  O286  1  0.75091568  0.25993547  0.37567442  1
  O  O287  1  0.72427888  0.23362702  0.88788653  1
  O  O288  1  0.74460909  0.74992653  0.36918908  1
  O  O289  1  0.74145912  0.77206396  0.89549760  1
  O  O290  1  0.01070812  0.12049654  0.00682254  1
  O  O291  1  0.00978854  0.11365883  0.50721835  1
  O  O292  1  0.00427453  0.64138418  0.02074240  1
  O  O293  1  0.01089261  0.62523103  0.50196198  1
  O  O294  1  0.50128768  0.11026157  0.00707881  1
  O  O295  1  0.50970060  0.11166474  0.49313626  1
  O  O296  1  0.50830385  0.63554097  0.01012675  1
  O  O297  1  0.48725755  0.61523053  0.51534636  1
  O  O298  1  0.48678766  0.37644833  0.49689713  1
  O  O299  1  0.54122291  0.38421354  0.98321163  1
  O  O300  1  0.50506452  0.88585119  0.49282199  1
  O  O301  1  0.48619750  0.88311094  1.00428974  1
  O  O302  1  1.01174833  0.37497006  0.48739571  1
  O  O303  1  1.02446662  0.37524688  0.97210558  1
  O  O304  1  0.99796497  0.88107181  0.49335264  1
  O  O305  1  1.00886755  0.88967791  0.98991112  1
  O  O306  1  0.48250967  0.48595977  0.37318085  1
  O  O307  1  0.51716192  0.49043227  0.87598887  1
  O  O308  1  0.48183092  0.99498405  0.37329170  1
  O  O309  1  0.48218939  0.98668256  0.89206144  1
  O  O310  1  1.01041170  0.48372322  0.37414209  1
  O  O311  1  1.00126600  0.47857743  0.85464151  1
  O  O312  1  0.99685570  0.99223284  0.38566666  1
  O  O313  1  0.99696486  0.99419649  0.88233308  1
  O  O314  1  0.00752554  0.00724612  0.11796649  1
  O  O315  1  -0.00590029  0.00637541  0.61491876  1
  O  O316  1  0.02277105  0.51801150  0.13556996  1
  O  O317  1  -0.00773550  0.51847076  0.62020951  1
  O  O318  1  0.48996235  -0.00794163  0.11584755  1
  O  O319  1  0.49202712  -0.00657855  0.60148315  1
  O  O320  1  0.50075815  0.50944751  0.11733953  1
  O  O321  1  0.48468963  0.51049569  0.62602844  1
  O  O322  1  0.24081134  0.37785568  0.24087661  1
  O  O323  1  0.23943619  0.37226891  0.73608516  1
  O  O324  1  0.23593135  0.87795522  0.23796619  1
  O  O325  1  0.23808138  0.88686125  0.75646186  1
  O  O326  1  0.75127185  0.38711033  0.24373302  1
  O  O327  1  0.73652113  0.36424312  0.75850512  1
  O  O328  1  0.75751639  0.89556002  0.24167795  1
  O  O329  1  0.75286036  0.88042368  0.73868233  1
  O  O330  1  0.24258919  0.12972648  0.26039753  1
  O  O331  1  0.23920331  0.10829247  0.75181648  1
  O  O332  1  0.23881804  0.60264415  0.25729187  1
  O  O333  1  0.25321964  0.60808244  0.72456063  1
  O  O334  1  0.74602306  0.10773780  0.24866402  1
  O  O335  1  0.76430771  0.10485104  0.73820284  1
  O  O336  1  0.77541660  0.62659213  0.21961427  1
  O  O337  1  0.76316446  0.59070429  0.72825131  1
  O  O338  1  0.36655432  0.12817376  0.36014969  1
  O  O339  1  0.37909724  0.11341459  0.88370410  1
  O  O340  1  0.37522296  0.60717438  0.38303408  1
  O  O341  1  0.36984784  0.61054645  0.87402417  1
  O  O342  1  0.87820121  0.11118995  0.38743309  1
  O  O343  1  0.88676060  0.11198508  0.85731069  1
  O  O344  1  0.87786946  0.63807066  0.35552597  1
  O  O345  1  0.90510584  0.62717512  0.87346081  1
  O  O346  1  0.12566511  0.39049111  0.13464293  1
  O  O347  1  0.13585988  0.36783154  0.63075993  1
  O  O348  1  0.12547985  0.88732287  0.13118376  1
  O  O349  1  0.11926837  0.86769465  0.64294155  1
  O  O350  1  0.62779935  0.37620842  0.13522079  1
  O  O351  1  0.62204406  0.36566150  0.64354067  1
  O  O352  1  0.63919038  0.87897647  0.13399901  1
  O  O353  1  0.64087195  0.85678068  0.61865055  1
  O  O354  1  0.12385690  0.26128077  0.25673108  1
  O  O355  1  0.11682572  0.24336417  0.75318751  1
  O  O356  1  0.12450662  0.75987927  0.26543178  1
  O  O357  1  0.13568501  0.76443060  0.76511421  1
  O  O358  1  0.63461701  0.27108524  0.25106908  1
  O  O359  1  0.62042014  0.23122098  0.76272823  1
  O  O360  1  0.62571608  0.75370298  0.26603230  1
  O  O361  1  0.64780438  0.70929928  0.76821965  1
  O  O362  1  0.36698284  0.23903179  0.23810547  1
  O  O363  1  0.36356074  0.25238245  0.74101397  1
  O  O364  1  0.31473094  0.73454223  0.22846403  1
  O  O365  1  0.36412106  0.74624367  0.74151044  1
  O  O366  1  0.89434766  0.25685155  0.25112923  1
  O  O367  1  0.89176003  0.23563305  0.73839182  1
  O  O368  1  0.89471518  0.75501671  0.24960492  1
  O  O369  1  0.88030929  0.75406847  0.74523853  1
  O  O370  1  0.36391483  0.48755925  0.48694144  1
  O  O371  1  0.37153393  0.49204840  0.98100689  1
  O  O372  1  0.38535399  1.00880025  0.48261358  1
  O  O373  1  0.37928439  0.99544051  0.99788251  1
  O  O374  1  0.88177207  0.47658195  0.50134999  1
  O  O375  1  0.85479454  0.55670037  0.90887374  1
  O  O376  1  0.88536711  0.98903042  0.49196220  1
  O  O377  1  0.88629150  1.01242318  0.98701354  1
  O  O378  1  0.11567195  0.00874684  0.00664425  1
  O  O379  1  0.11708066  0.00866207  0.49313920  1
  O  O380  1  0.13436705  0.50576095  0.01849063  1
  O  O381  1  0.12789306  0.51987003  0.49310201  1
  O  O382  1  0.60738376  0.00804561  -0.00036551  1
  O  O383  1  0.61129783  0.00858977  0.48957465  1
  O  O384  1  0.68766989  0.49859147  0.03068007  1
  O  O385  1  0.62188223  0.51050099  0.49533074  1
  O  O386  1  0.35882855  0.36238154  0.13232756  1
  O  O387  1  0.36132010  0.36605144  0.61863524  1
  O  O388  1  0.35746524  0.87887964  0.11604811  1
  O  O389  1  0.38411207  0.86623462  0.64006413  1
  O  O390  1  0.91591989  0.38065016  0.11005302  1
  O  O391  1  0.88446474  0.35788288  0.60940102  1
  O  O392  1  0.85663795  0.88990076  0.12705601  1
  O  O393  1  0.87776243  0.86257585  0.61894478  1
  O  O394  1  0.12873397  0.13097194  0.38234485  1
  O  O395  1  0.11840108  0.13260620  0.88291121  1
  O  O396  1  0.12196633  0.64281712  0.38480125  1
  O  O397  1  0.10671760  0.64568308  0.87082132  1
  O  O398  1  0.62614860  0.13200796  0.38733239  1
  O  O399  1  0.60582416  0.12868104  0.88603381  1
  O  O400  1  0.60654142  0.63694007  0.37286910  1
  O  O401  1  0.63929600  0.65270512  0.82661343  1
