# generated using pymatgen
data_V73Zn73O256
_symmetry_space_group_name_H-M   'P 1'
_cell_length_a   16.93924673
_cell_length_b   16.92513141
_cell_length_c   16.87907456
_cell_angle_alpha   90.03443799
_cell_angle_beta   90.25033676
_cell_angle_gamma   89.56220908
_symmetry_Int_Tables_number   1
_chemical_formula_structural   V73Zn73O256
_chemical_formula_sum   'V73 Zn73 O256'
_cell_volume   4839.02517386
_cell_formula_units_Z   1
loop_
 _symmetry_equiv_pos_site_id
 _symmetry_equiv_pos_as_xyz
  1  'x, y, z'
loop_
 _atom_site_type_symbol
 _atom_site_label
 _atom_site_symmetry_multiplicity
 _atom_site_fract_x
 _atom_site_fract_y
 _atom_site_fract_z
 _atom_site_occupancy
  V  V0  1  0.10909753  0.74429400  0.86747142  1
  V  V1  1  0.37706778  0.12964509  0.24569027  1
  V  V2  1  0.39254843  0.50050653  0.37524577  1
  V  V3  1  0.23997300  0.00238872  0.24248024  1
  V  V4  1  0.85347959  0.35787911  0.49994046  1
  V  V5  1  0.87186502  0.48597124  0.87597172  1
  V  V6  1  0.76002373  0.35604180  0.12860353  1
  V  V7  1  0.12111053  0.88323271  0.23565915  1
  V  V8  1  0.63996199  0.72871267  0.86607064  1
  V  V9  1  0.86140410  0.12473401  0.75302149  1
  V  V10  1  0.48045442  0.37987255  0.87932893  1
  V  V11  1  0.24310261  0.25835324  -0.00140357  1
  V  V12  1  0.25485024  0.76424176  0.50649923  1
  V  V13  1  0.38334864  0.36666097  0.49959474  1
  V  V14  1  0.00051522  0.88000382  0.37401664  1
  V  V15  1  0.50831964  0.76242948  0.23618270  1
  V  V16  1  0.26169839  0.87878871  0.11373796  1
  V  V17  1  0.74589178  0.72595284  0.00092571  1
  V  V18  1  0.38555468  0.63065384  0.22610116  1
  V  V19  1  0.49148191  0.50577946  0.00281357  1
  V  V20  1  0.12427635  0.38993516  0.74425174  1
  V  V21  1  0.13065463  0.13923912  0.49399998  1
  V  V22  1  0.86283004  0.87679251  0.50858332  1
  V  V23  1  0.37894459  -0.01436963  0.36704835  1
  V  V24  1  0.61040439  0.63843102  0.49405113  1
  V  V25  1  0.24757001  0.13851886  0.37244515  1
  V  V26  1  0.13019168  0.75639657  0.37085613  1
  V  V27  1  0.12997307  0.62896628  0.51009153  1
  V  V28  1  0.64254517  0.88633548  0.75186340  1
  V  V29  1  0.25158614  0.61661335  0.87887155  1
  V  V30  1  0.01031563  0.00282831  0.49797283  1
  V  V31  1  0.87508879  0.74005773  0.62027986  1
  V  V32  1  -0.00558881  0.87857874  0.85924246  1
  V  V33  1  0.75449061  0.49433197  0.25969068  1
  V  V34  1  0.37952485  0.02635824  0.87290502  1
  V  V35  1  0.02641846  0.26874153  0.25440030  1
  V  V36  1  0.37984204  0.87064108  0.52340609  1
  V  V37  1  0.73889525  -0.01046223  0.25108839  1
  V  V38  1  0.74513136  0.87562299  0.11274822  1
  V  V39  1  0.24436889  0.13083087  0.86299222  1
  V  V40  1  0.60700860  0.36697718  0.24973715  1
  V  V41  1  0.60349757  0.25020120  0.37937932  1
  V  V42  1  0.12568818  0.10866477  0.01039018  1
  V  V43  1  0.64013717  0.38804195  0.75855011  1
  V  V44  1  0.49004322  0.24756927  0.74687019  1
  V  V45  1  0.61747949  -0.00477662  0.12460160  1
  V  V46  1  0.14904389  -0.00630312  0.62947494  1
  V  V47  1  0.74969511  0.63761746  0.38159574  1
  V  V48  1  0.62770855  0.50607752  0.11933952  1
  V  V49  1  0.25785436  0.62949188  0.36549160  1
  V  V50  1  0.63511096  0.25437050  0.87390754  1
  V  V51  1  0.87668409  0.12642017  0.22653656  1
  V  V52  1  0.37598696  0.26550569  0.12382881  1
  V  V53  1  0.22371526  0.38175700  0.13058557  1
  V  V54  1  -0.00228031  0.13202379  0.62867742  1
  V  V55  1  0.87522220  0.61992633  0.76316149  1
  V  V56  1  -0.01861570  -0.00668610  0.00223298  1
  V  V57  1  0.49739662  0.84379439  0.87181752  1
  V  V58  1  0.62951934  0.49806204  0.60586127  1
  V  V59  1  -0.02691568  0.48175424  0.49847171  1
  V  V60  1  0.87141927  0.75438836  0.12377985  1
  V  V61  1  0.87922017  0.35559454  0.00418575  1
  V  V62  1  0.10598488  0.62822207  0.02168184  1
  V  V63  1  0.48935656  0.62979001  0.65354759  1
  V  V64  1  -0.00359890  0.49692972  0.01848980  1
  V  V65  1  0.73715198  0.13105912  0.37327117  1
  V  V66  1  0.49253050  0.12856045  0.12256445  1
  V  V67  1  0.49301632  0.00491805  0.53028555  1
  V  V68  1  0.87417393  0.62209379  0.25311417  1
  V  V69  1  0.62528822  0.13501237  -0.00058871  1
  V  V70  1  0.87135116  0.00557961  0.37189915  1
  V  V71  1  -0.00319696  0.74747947  0.24451481  1
  V  V72  1  0.25698687  0.74793319  0.00694582  1
  Zn  Zn73  1  0.48992388  -0.00900572  -0.00215409  1
  Zn  Zn74  1  0.25494957  0.37311193  0.61892480  1
  Zn  Zn75  1  0.74589364  0.23379955  0.50841589  1
  Zn  Zn76  1  0.11150664  0.25913606  0.87454978  1
  Zn  Zn77  1  0.81799255  -0.03941770  0.82229336  1
  Zn  Zn78  1  0.25030936  0.50333945  0.24086786  1
  Zn  Zn79  1  0.75590869  0.11943113  0.87877495  1
  Zn  Zn80  1  0.61762646  0.77630290  0.37480703  1
  Zn  Zn81  1  0.01734486  0.63198338  0.63431685  1
  Zn  Zn82  1  0.18369294  0.19304614  0.18498971  1
  Zn  Zn83  1  0.16713620  0.18989103  0.68982943  1
  Zn  Zn84  1  0.18829696  0.69262685  0.18556651  1
  Zn  Zn85  1  0.21071746  0.69123992  0.69920664  1
  Zn  Zn86  1  0.68123593  0.18098472  0.19454326  1
  Zn  Zn87  1  0.80369012  0.29528350  0.67434091  1
  Zn  Zn88  1  0.68749038  0.68792705  0.19049374  1
  Zn  Zn89  1  0.69988072  0.68292656  0.67726905  1
  Zn  Zn90  1  0.31289555  0.32038838  0.30987480  1
  Zn  Zn91  1  0.30616937  0.32042213  0.80823029  1
  Zn  Zn92  1  0.31503264  0.80885876  0.29452827  1
  Zn  Zn93  1  0.29645805  0.81123147  0.81536069  1
  Zn  Zn94  1  0.82555111  0.30977606  0.31274503  1
  Zn  Zn95  1  0.98507625  0.27131916  0.76116179  1
  Zn  Zn96  1  0.80880624  0.81591146  0.31452024  1
  Zn  Zn97  1  0.81631284  0.79343801  0.80771063  1
  Zn  Zn98  1  0.20094990  0.44745589  0.43814781  1
  Zn  Zn99  1  0.17347357  0.44182893  0.93447089  1
  Zn  Zn100  1  0.19287473  0.94385306  0.43232155  1
  Zn  Zn101  1  0.19133461  0.93368225  0.91951077  1
  Zn  Zn102  1  0.68135046  0.43129209  0.43204611  1
  Zn  Zn103  1  0.69911905  0.43550601  0.94369527  1
  Zn  Zn104  1  0.67708752  0.95508028  0.45449009  1
  Zn  Zn105  1  0.67208770  0.93567449  0.93499158  1
  Zn  Zn106  1  0.30979128  0.06265049  0.05217417  1
  Zn  Zn107  1  0.32592151  0.07304104  0.55466760  1
  Zn  Zn108  1  0.29754901  0.54850959  0.04083976  1
  Zn  Zn109  1  0.32868891  0.58148511  0.54750235  1
  Zn  Zn110  1  0.80178287  0.05464948  0.05197733  1
  Zn  Zn111  1  0.82193782  0.06920087  0.55304147  1
  Zn  Zn112  1  0.81666466  0.55391005  0.07507725  1
  Zn  Zn113  1  0.80633773  0.55746730  0.56377157  1
  Zn  Zn114  1  0.43520806  0.44995339  0.18408043  1
  Zn  Zn115  1  0.48074225  0.40274057  0.64518142  1
  Zn  Zn116  1  0.43158964  0.94001388  0.18085223  1
  Zn  Zn117  1  0.43643994  0.92893129  0.70767562  1
  Zn  Zn118  1  0.94018455  0.43145198  0.19506214  1
  Zn  Zn119  1  0.93609382  0.44283709  0.67530912  1
  Zn  Zn120  1  0.93223586  0.94272357  0.18535498  1
  Zn  Zn121  1  0.94784983  0.94428392  0.68429768  1
  Zn  Zn122  1  0.04901986  0.09151611  0.31490910  1
  Zn  Zn123  1  0.06876090  0.05764508  0.81281589  1
  Zn  Zn124  1  0.05672019  0.56862550  0.32793692  1
  Zn  Zn125  1  0.05262428  0.55725793  0.82302080  1
  Zn  Zn126  1  0.55949928  -0.06089219  0.31249591  1
  Zn  Zn127  1  0.56248913  0.06661990  0.80628881  1
  Zn  Zn128  1  0.56695607  0.56827734  0.30316412  1
  Zn  Zn129  1  0.55817858  0.55773884  0.81807458  1
  Zn  Zn130  1  0.43330786  0.18005343  0.44187719  1
  Zn  Zn131  1  0.43576809  0.19905843  0.93972165  1
  Zn  Zn132  1  0.44028091  0.69864454  0.42272670  1
  Zn  Zn133  1  0.43735482  0.68108189  0.93565265  1
  Zn  Zn134  1  0.93913155  0.19980679  0.42974504  1
  Zn  Zn135  1  0.94498086  0.17775871  0.93339729  1
  Zn  Zn136  1  0.93870686  0.69105569  0.43819943  1
  Zn  Zn137  1  0.93526145  0.68696194  0.94114615  1
  Zn  Zn138  1  0.05433810  0.29987979  0.06898564  1
  Zn  Zn139  1  0.06305131  0.32117158  0.56986120  1
  Zn  Zn140  1  0.05447612  0.82047000  0.05477019  1
  Zn  Zn141  1  0.06248365  0.81586867  0.57382342  1
  Zn  Zn142  1  0.56133717  0.31954778  0.06419971  1
  Zn  Zn143  1  0.61495610  0.27476946  0.60461607  1
  Zn  Zn144  1  0.56194908  0.80719860  0.05254664  1
  Zn  Zn145  1  0.56327172  0.81134262  0.57653099  1
  O  O146  1  0.13302219  0.12169525  0.11030054  1
  O  O147  1  0.12195496  0.11750090  0.60622731  1
  O  O148  1  0.12046823  0.62604444  0.12162421  1
  O  O149  1  0.13835567  0.64277780  0.61383567  1
  O  O150  1  0.61184773  0.12297466  0.11893610  1
  O  O151  1  0.66830483  0.07120470  0.63360003  1
  O  O152  1  0.63131600  0.60411902  0.13449641  1
  O  O153  1  0.62852157  0.61948224  0.60477846  1
  O  O154  1  0.36952435  0.39543933  0.37598650  1
  O  O155  1  0.38177668  0.37912226  0.87608808  1
  O  O156  1  0.37174934  0.88630335  0.35768333  1
  O  O157  1  0.39759270  0.83638941  0.86765009  1
  O  O158  1  0.87527884  0.36419199  0.39864060  1
  O  O159  1  0.87309720  0.38150127  0.89922565  1
  O  O160  1  0.88092222  0.88510645  0.38079178  1
  O  O161  1  0.88873849  0.87052832  0.85974493  1
  O  O162  1  0.25949489  0.00598789  0.36053175  1
  O  O163  1  0.25950712  0.02948418  0.88124553  1
  O  O164  1  0.26088891  0.52186470  0.36662556  1
  O  O165  1  0.25262729  0.52040180  0.92069153  1
  O  O166  1  0.75229333  0.00821810  0.36781912  1
  O  O167  1  0.74738565  0.00797697  0.89470835  1
  O  O168  1  0.74351163  0.50444972  0.36311805  1
  O  O169  1  0.77296945  0.50306685  0.89181080  1
  O  O170  1  0.24330876  0.48471439  0.12001738  1
  O  O171  1  0.26833322  0.51465140  0.64859076  1
  O  O172  1  0.25321730  0.98977475  0.12966709  1
  O  O173  1  0.24750864  1.01258002  0.61195572  1
  O  O174  1  0.74204907  0.48761171  0.13824758  1
  O  O175  1  0.72903002  0.49982394  0.62329348  1
  O  O176  1  0.73795808  0.99266573  0.13002174  1
  O  O177  1  0.72194104  1.02256648  0.61985580  1
  O  O178  1  -0.00864377  0.36433441  0.26833764  1
  O  O179  1  0.01483462  0.37732516  0.72714583  1
  O  O180  1  0.00245675  0.87411528  0.25791909  1
  O  O181  1  0.00971376  0.88199671  0.75970154  1
  O  O182  1  0.50965411  0.37597045  0.24163489  1
  O  O183  1  0.51156346  0.37719619  0.77155805  1
  O  O184  1  0.49797406  0.86966750  0.24157507  1
  O  O185  1  0.51688506  0.87383010  0.77084132  1
  O  O186  1  0.48129864  0.12364009  0.23410185  1
  O  O187  1  0.50543818  0.14759889  0.75083618  1
  O  O188  1  0.49030927  0.63047547  0.23929760  1
  O  O189  1  0.49402328  0.62635432  0.75493139  1
  O  O190  1  0.97415662  0.09366983  0.23101895  1
  O  O191  1  1.00826607  0.12145881  0.73092163  1
  O  O192  1  0.99047160  0.63923488  0.26197363  1
  O  O193  1  0.98126689  0.60631511  0.74039549  1
  O  O194  1  0.35585198  0.24688315  0.01510736  1
  O  O195  1  0.37423486  0.26715738  0.48305460  1
  O  O196  1  0.35456542  0.74159054  0.00109339  1
  O  O197  1  0.36888822  0.76433878  0.49302925  1
  O  O198  1  0.88705815  0.25729549  0.00229799  1
  O  O199  1  0.86895076  0.25001865  0.50297633  1
  O  O200  1  0.86173357  0.74150812  0.01494029  1
  O  O201  1  0.87727247  0.77077814  0.49984774  1
  O  O202  1  0.12217568  0.23661297  0.49785357  1
  O  O203  1  0.13151477  0.24081869  1.00028272  1
  O  O204  1  0.14121346  0.75828070  0.48567972  1
  O  O205  1  0.11432527  0.73628523  1.00373168  1
  O  O206  1  0.62364138  0.25488022  0.47986601  1
  O  O207  1  0.61487693  0.24202102  0.99413083  1
  O  O208  1  0.61981953  0.74108543  0.49528327  1
  O  O209  1  0.64243818  0.74589843  0.99297543  1
  O  O210  1  0.48180991  0.24629093  0.11786593  1
  O  O211  1  0.50938484  0.27313320  0.64637493  1
  O  O212  1  0.50568244  0.75415213  0.13356456  1
  O  O213  1  0.51130778  0.72656606  0.63020686  1
  O  O214  1  1.00636112  0.24472306  0.15584681  1
  O  O215  1  1.00689847  0.23095084  0.61506141  1
  O  O216  1  0.98755262  0.76235519  0.13836375  1
  O  O217  1  0.98712798  0.74956417  0.62073613  1
  O  O218  1  0.00718963  0.20765098  0.34187535  1
  O  O219  1  -0.00034898  0.25193758  0.87275105  1
  O  O220  1  0.00819105  0.76289226  0.36562716  1
  O  O221  1  0.00121167  0.75698639  0.87838688  1
  O  O222  1  0.50601916  0.23667180  0.37381879  1
  O  O223  1  0.50317163  0.26609622  0.87419666  1
  O  O224  1  0.50387379  0.75358173  0.35051079  1
  O  O225  1  0.52368517  0.74087044  0.88277188  1
  O  O226  1  0.24272357  0.12394434  0.48230856  1
  O  O227  1  0.23967082  0.13902425  0.99649752  1
  O  O228  1  0.25002756  0.64679215  0.48700095  1
  O  O229  1  0.23043365  0.64043521  1.00995739  1
  O  O230  1  0.74968189  0.11669974  0.47861289  1
  O  O231  1  0.72649761  0.12962590  1.00610345  1
  O  O232  1  0.74465274  0.62167175  0.48328192  1
  O  O233  1  0.75031035  0.62836387  1.01178719  1
  O  O234  1  0.23400807  0.36310220  0.00991731  1
  O  O235  1  0.26581443  0.38947446  0.50504516  1
  O  O236  1  0.23919014  0.86430235  0.00895846  1
  O  O237  1  0.26433809  0.86940833  0.48840438  1
  O  O238  1  0.76453555  0.37114244  0.01944724  1
  O  O239  1  0.75041179  0.36284175  0.49608724  1
  O  O240  1  0.74637491  0.87243093  0.01171866  1
  O  O241  1  0.76527241  0.89627895  0.50458418  1
  O  O242  1  0.12702221  0.48155196  0.28772799  1
  O  O243  1  0.11807171  0.49045718  0.75387479  1
  O  O244  1  0.13412074  0.99524116  0.25617161  1
  O  O245  1  0.13255936  1.01127000  0.72738314  1
  O  O246  1  0.63220532  0.48345744  0.24426362  1
  O  O247  1  0.63515328  0.48861647  0.76638679  1
  O  O248  1  0.62744989  1.00484891  0.23551794  1
  O  O249  1  0.62956801  0.98606753  0.76421563  1
  O  O250  1  0.36299000  0.00840387  0.25182735  1
  O  O251  1  0.36766098  -0.01737561  0.78137971  1
  O  O252  1  0.37283993  0.51547389  0.25494991  1
  O  O253  1  0.30984031  0.50913302  0.70944294  1
  O  O254  1  0.85792216  0.00086589  0.25589615  1
  O  O255  1  0.87912527  0.01482828  0.74171526  1
  O  O256  1  0.86726316  0.51219728  0.24543649  1
  O  O257  1  0.88029895  0.49607939  0.76983857  1
  O  O258  1  0.12991706  0.42377542  0.34333374  1
  O  O259  1  0.13390561  0.37366228  0.85562699  1
  O  O260  1  0.11994671  0.87281637  0.36335784  1
  O  O261  1  0.10921817  0.85151429  0.88513681  1
  O  O262  1  0.62340601  0.36211163  0.35979271  1
  O  O263  1  0.63516469  0.36658298  0.87560767  1
  O  O264  1  0.63376486  0.88749829  0.37731289  1
  O  O265  1  0.62513162  0.85474697  0.86610341  1
  O  O266  1  0.37456991  0.12923954  0.12792738  1
  O  O267  1  0.32799550  0.18638107  0.61981921  1
  O  O268  1  0.36602479  0.61601823  0.13043363  1
  O  O269  1  0.39120640  0.62331943  0.62804371  1
  O  O270  1  0.85457962  0.12091071  0.12937784  1
  O  O271  1  0.89307721  0.11661064  0.62530471  1
  O  O272  1  0.86389949  0.63984377  0.14434368  1
  O  O273  1  0.88033157  0.63866129  0.59935623  1
  O  O274  1  0.25342026  0.26388918  0.11800410  1
  O  O275  1  0.26503285  0.22839242  0.62039755  1
  O  O276  1  0.24284713  0.76725489  0.11758853  1
  O  O277  1  0.24525985  0.75958708  0.60284680  1
  O  O278  1  0.74602116  0.25863829  0.13496347  1
  O  O279  1  0.72056262  0.23883619  0.61905847  1
  O  O280  1  0.74959436  0.75578580  0.11730357  1
  O  O281  1  0.77448002  0.75524545  0.62347484  1
  O  O282  1  0.25416382  0.23627470  0.36511899  1
  O  O283  1  0.25278316  0.24896323  0.89084792  1
  O  O284  1  0.24433113  0.74958226  0.36729451  1
  O  O285  1  0.22855745  0.73986848  0.89636210  1
  O  O286  1  0.75263180  0.23358631  0.37093761  1
  O  O287  1  0.73225053  0.23740502  0.87672078  1
  O  O288  1  0.73897925  0.73978095  0.36754180  1
  O  O289  1  0.75086079  0.74293958  0.89238001  1
  O  O290  1  0.01720407  0.10440708  -0.00936741  1
  O  O291  1  0.01271660  0.11859279  0.49615595  1
  O  O292  1  -0.00016435  0.61893965  0.01211971  1
  O  O293  1  0.02943245  0.64996072  0.49783292  1
  O  O294  1  0.50053742  0.12856147  0.01197542  1
  O  O295  1  0.44221289  0.10018819  0.52277900  1
  O  O296  1  0.50159034  0.60566091  -0.00619032  1
  O  O297  1  0.51121939  0.62870582  0.49004738  1
  O  O298  1  0.48109493  0.38409827  0.50243715  1
  O  O299  1  0.50492725  0.38133163  0.98640826  1
  O  O300  1  0.48625977  0.88389775  0.51387413  1
  O  O301  1  0.51356159  0.87817307  0.97380132  1
  O  O302  1  0.99851090  0.38193642  0.49768932  1
  O  O303  1  0.98786511  0.38296732  1.01498394  1
  O  O304  1  1.00279161  0.88453713  0.48530628  1
  O  O305  1  0.99429391  0.88685426  0.98592561  1
  O  O306  1  0.49106128  0.50530600  0.36278843  1
  O  O307  1  0.50369590  0.48816234  0.89026601  1
  O  O308  1  0.47816636  1.00359076  0.36836432  1
  O  O309  1  0.48533426  1.01601416  0.87732479  1
  O  O310  1  0.99273354  0.52628247  0.40950598  1
  O  O311  1  0.98150967  0.50438325  0.89919997  1
  O  O312  1  0.99327565  0.99674347  0.37756740  1
  O  O313  1  1.01091696  0.98446617  0.88028490  1
  O  O314  1  -0.00602013  -0.01240809  0.10296773  1
  O  O315  1  0.01390009  0.00927297  0.60906769  1
  O  O316  1  -0.00868941  0.50113452  0.11940427  1
  O  O317  1  -0.00697349  0.51729198  0.59523725  1
  O  O318  1  0.50094917  0.00873035  0.11976795  1
  O  O319  1  0.49104836  -0.00424600  0.62983672  1
  O  O320  1  0.51831679  0.48862495  0.11465862  1
  O  O321  1  0.52342038  0.52069286  0.63611357  1
  O  O322  1  0.25103801  0.38044786  0.23279307  1
  O  O323  1  0.23770362  0.36996203  0.73582313  1
  O  O324  1  0.24102592  0.88143154  0.23361770  1
  O  O325  1  0.22817443  0.89812761  0.81785348  1
  O  O326  1  0.75874773  0.37907734  0.24324885  1
  O  O327  1  0.73518720  0.36534123  0.74413663  1
  O  O328  1  0.74731244  0.88465709  0.24136549  1
  O  O329  1  0.74792120  0.87779331  0.76452882  1
  O  O330  1  0.25181186  0.11916964  0.25359273  1
  O  O331  1  0.24353945  0.14241053  0.76428634  1
  O  O332  1  0.25983493  0.62950360  0.25089504  1
  O  O333  1  0.22598784  0.60833912  0.78233487  1
  O  O334  1  0.75487761  0.11185305  0.25714948  1
  O  O335  1  0.76302775  0.12415376  0.75131883  1
  O  O336  1  0.75388563  0.61663361  0.26200248  1
  O  O337  1  0.78008224  0.61264476  0.72764152  1
  O  O338  1  0.36133684  0.11745827  0.36430822  1
  O  O339  1  0.36468138  0.13217339  0.87425168  1
  O  O340  1  0.37117400  0.62401313  0.36344330  1
  O  O341  1  0.35078451  0.63558976  0.87852988  1
  O  O342  1  0.86934599  0.11053263  0.37074921  1
  O  O343  1  0.87534525  0.12550636  0.85864717  1
  O  O344  1  0.86056096  0.63644192  0.36805015  1
  O  O345  1  0.87403226  0.62169747  0.86617492  1
  O  O346  1  0.12569522  0.37538139  0.12768570  1
  O  O347  1  0.13918595  0.37333856  0.63137188  1
  O  O348  1  0.12187310  0.87604409  0.13417893  1
  O  O349  1  0.13171678  0.89413161  0.61371742  1
  O  O350  1  0.63760107  0.37439207  0.13786556  1
  O  O351  1  0.61030657  0.39389199  0.64312731  1
  O  O352  1  0.62751884  0.88871736  0.11530812  1
  O  O353  1  0.62527211  0.86771665  0.65291198  1
  O  O354  1  0.12891119  0.26200214  0.25563794  1
  O  O355  1  0.11125589  0.26245412  0.75296492  1
  O  O356  1  0.11592034  0.76131127  0.25341955  1
  O  O357  1  0.12270401  0.73715920  0.76952143  1
  O  O358  1  0.62246014  0.26034786  0.25684278  1
  O  O359  1  0.61333849  0.26295443  0.77029324  1
  O  O360  1  0.61287896  0.74852184  0.24994387  1
  O  O361  1  0.64972385  0.74585959  0.76384265  1
  O  O362  1  0.36255747  0.24123461  0.23271399  1
  O  O363  1  0.39083957  0.26160866  0.75597105  1
  O  O364  1  0.38586322  0.73843562  0.24096574  1
  O  O365  1  0.30930695  0.73880652  0.73379795  1
  O  O366  1  0.87415228  0.22539382  0.25081838  1
  O  O367  1  0.88050263  0.22971385  0.73342412  1
  O  O368  1  0.87971991  0.74664530  0.24777611  1
  O  O369  1  0.88005864  0.72901772  0.73603337  1
  O  O370  1  0.37915339  0.50996903  0.47750307  1
  O  O371  1  0.39412688  0.49417327  1.01588319  1
  O  O372  1  0.37396526  0.97711349  0.48513182  1
  O  O373  1  0.37176077  0.99760807  0.97904561  1
  O  O374  1  0.86775106  0.47939392  0.50190088  1
  O  O375  1  0.88300001  0.49411026  1.00357305  1
  O  O376  1  0.88852276  0.99279907  0.49156859  1
  O  O377  1  0.88327948  1.00840272  0.98950703  1
  O  O378  1  0.13936229  0.00878506  -0.00589343  1
  O  O379  1  0.12195136  0.00817064  0.49799790  1
  O  O380  1  0.10409070  0.51270057  0.00190708  1
  O  O381  1  0.13917006  0.52989880  0.49653580  1
  O  O382  1  0.61510794  0.01579371  0.01008532  1
  O  O383  1  0.58910592  0.01393409  0.50239549  1
  O  O384  1  0.62934727  0.49199262  0.01683355  1
  O  O385  1  0.62301856  0.50238376  0.50271013  1
  O  O386  1  0.37443094  0.36539710  0.12829657  1
  O  O387  1  0.37326842  0.38182334  0.60932805  1
  O  O388  1  0.36034018  0.87525939  0.11774057  1
  O  O389  1  0.37116050  0.87663930  0.62128991  1
  O  O390  1  0.86668458  0.37047845  0.12256814  1
  O  O391  1  0.87073222  0.36963069  0.61163204  1
  O  O392  1  0.85917310  0.86278820  0.13398511  1
  O  O393  1  0.88664807  0.87650645  0.60976002  1
  O  O394  1  0.13910668  0.11898358  0.38109592  1
  O  O395  1  0.13624561  0.13041460  0.88267221  1
  O  O396  1  0.13736560  0.64308286  0.37591361  1
  O  O397  1  0.11783726  0.63266775  0.89473924  1
  O  O398  1  0.63526964  0.14013125  0.36401599  1
  O  O399  1  0.61404253  0.13654504  0.89038535  1
  O  O400  1  0.63452064  0.62226793  0.38314545  1
  O  O401  1  0.63321173  0.63038992  0.87101109  1
