# generated using pymatgen
data_V73Zn73O256
_symmetry_space_group_name_H-M   'P 1'
_cell_length_a   16.86170481
_cell_length_b   16.91006771
_cell_length_c   16.91244642
_cell_angle_alpha   90.11770750
_cell_angle_beta   90.23914393
_cell_angle_gamma   89.94624043
_symmetry_Int_Tables_number   1
_chemical_formula_structural   V73Zn73O256
_chemical_formula_sum   'V73 Zn73 O256'
_cell_volume   4822.23504909
_cell_formula_units_Z   1
loop_
 _symmetry_equiv_pos_site_id
 _symmetry_equiv_pos_as_xyz
  1  'x, y, z'
loop_
 _atom_site_type_symbol
 _atom_site_label
 _atom_site_symmetry_multiplicity
 _atom_site_fract_x
 _atom_site_fract_y
 _atom_site_fract_z
 _atom_site_occupancy
  V  V0  1  0.61698332  0.00166511  0.61447464  1
  V  V1  1  0.77076539  0.13421156  0.38321382  1
  V  V2  1  0.50354776  0.75000145  0.75628802  1
  V  V3  1  0.02107291  0.61829946  0.62600873  1
  V  V4  1  0.62547677  -0.00058051  0.12686058  1
  V  V5  1  0.75032320  -0.00399699  0.74387661  1
  V  V6  1  0.37371755  0.50380017  0.89435700  1
  V  V7  1  0.36287982  0.50616114  0.35986602  1
  V  V8  1  0.86094289  0.25525426  0.63073494  1
  V  V9  1  0.62785252  0.49856835  0.61837609  1
  V  V10  1  0.37909132  0.25004006  0.12844152  1
  V  V11  1  0.37606585  0.88923663  -0.00017848  1
  V  V12  1  0.01325778  0.35891737  0.87498417  1
  V  V13  1  0.61633409  0.24876996  0.87628435  1
  V  V14  1  0.74800449  0.48956445  0.74943021  1
  V  V15  1  0.38674517  0.12443238  0.25035770  1
  V  V16  1  0.73559475  0.62969570  0.87484178  1
  V  V17  1  0.12462079  0.00131379  0.12683245  1
  V  V18  1  0.88300183  0.50069185  0.88152432  1
  V  V19  1  0.48126324  0.48266187  0.50583505  1
  V  V20  1  -0.00113270  0.75020439  0.75105415  1
  V  V21  1  0.88118346  -0.00039997  0.87456423  1
  V  V22  1  0.61371654  0.37036568  0.74613325  1
  V  V23  1  0.24427339  0.50099873  0.74203478  1
  V  V24  1  0.00343230  0.13322658  0.62563037  1
  V  V25  1  0.86239705  0.37207192  0.50405476  1
  V  V26  1  0.00074327  0.37139096  0.38128600  1
  V  V27  1  0.62809998  0.87387971  0.75071448  1
  V  V28  1  0.12585174  0.36647330  0.74082942  1
  V  V29  1  0.25013206  0.12585764  0.86549246  1
  V  V30  1  0.01658419  0.48936281  0.51170703  1
  V  V31  1  0.87769667  0.11913652  0.22846876  1
  V  V32  1  0.12575744  0.38293336  0.24473368  1
  V  V33  1  0.12580152  0.88453819  0.76221311  1
  V  V34  1  0.87238126  0.62703547  0.73989276  1
  V  V35  1  0.39441400  -0.00596951  0.37549243  1
  V  V36  1  0.49922389  0.62243259  0.61854232  1
  V  V37  1  0.62016116  0.11826513  -0.00383787  1
  V  V38  1  0.01751051  0.75908061  0.25129319  1
  V  V39  1  0.75371952  0.87690798  0.12436714  1
  V  V40  1  0.25653099  0.12771765  0.38044080  1
  V  V41  1  0.12544637  0.13097863  0.00176183  1
  V  V42  1  0.49272269  0.36359354  0.36903894  1
  V  V43  1  0.24987298  -0.00499376  0.25164068  1
  V  V44  1  0.74728859  0.12902603  0.87745347  1
  V  V45  1  0.12865258  0.12956966  0.50043098  1
  V  V46  1  0.62106851  0.50308467  0.10898699  1
  V  V47  1  0.62220313  0.84909260  0.24700930  1
  V  V48  1  0.24898329  0.88204643  0.62928313  1
  V  V49  1  0.74655602  0.35834823  0.10554156  1
  V  V50  1  0.37268183  0.00622966  0.85632230  1
  V  V51  1  0.23656419  0.74630135  0.49081257  1
  V  V52  1  0.37296192  0.75098532  0.62187436  1
  V  V53  1  0.25215324  0.38477386  0.12584698  1
  V  V54  1  0.25380776  0.25070244  0.00320363  1
  V  V55  1  0.50053165  0.88016837  0.87673357  1
  V  V56  1  -0.00036955  0.24672438  0.23043547  1
  V  V57  1  0.88134612  0.13074690  0.75216539  1
  V  V58  1  0.73476676  0.75127450  -0.00707517  1
  V  V59  1  0.38662719  0.87852434  0.49639152  1
  V  V60  1  0.88315979  0.86657397  -0.00719679  1
  V  V61  1  0.00017841  0.00424838  0.00329393  1
  V  V62  1  0.80801279  0.63823538  0.37222868  1
  V  V63  1  0.49892085  0.11868072  0.11824744  1
  V  V64  1  0.49398537  0.37838979  0.89058916  1
  V  V65  1  0.24989265  0.87534691  0.12574647  1
  V  V66  1  0.37025895  0.62386534  0.75643500  1
  V  V67  1  0.62062101  0.36057319  0.25148646  1
  V  V68  1  0.25016557  0.74406536  -0.00267983  1
  V  V69  1  0.37437822  0.64064897  0.23865279  1
  V  V70  1  0.47202849  0.14987498  0.63516660  1
  V  V71  1  0.12601165  0.73536209  0.87921949  1
  V  V72  1  0.12312647  0.00245716  0.62284723  1
  Zn  Zn73  1  0.38969501  0.75416968  0.12459690  1
  Zn  Zn74  1  0.13309795  0.25166931  0.37674811  1
  Zn  Zn75  1  0.01549586  0.51980058  0.02352417  1
  Zn  Zn76  1  0.68224205  0.67368125  0.51070462  1
  Zn  Zn77  1  0.88404288  0.35856686  0.01014422  1
  Zn  Zn78  1  0.75206733  0.49327113  0.24583890  1
  Zn  Zn79  1  0.79848561  0.81854694  0.56248194  1
  Zn  Zn80  1  0.62597071  0.14094775  0.50235057  1
  Zn  Zn81  1  -0.06884151  0.67228406  0.12280767  1
  Zn  Zn82  1  0.19016207  0.18699544  0.19066938  1
  Zn  Zn83  1  0.19630594  0.19303169  0.68291185  1
  Zn  Zn84  1  0.19367233  0.69536406  0.20636367  1
  Zn  Zn85  1  0.19130632  0.69291846  0.69214284  1
  Zn  Zn86  1  0.69117353  0.18898001  0.19276639  1
  Zn  Zn87  1  0.68130416  0.18490009  0.68908431  1
  Zn  Zn88  1  0.72751789  0.67303487  0.19017469  1
  Zn  Zn89  1  0.68842301  0.68919367  0.68635288  1
  Zn  Zn90  1  0.31474848  0.31336509  0.30941924  1
  Zn  Zn91  1  0.29228843  0.33168657  0.83572909  1
  Zn  Zn92  1  0.31773925  0.80631914  0.31416728  1
  Zn  Zn93  1  0.31159811  0.81441572  0.81361659  1
  Zn  Zn94  1  0.82071913  0.32310624  0.30318084  1
  Zn  Zn95  1  0.82688692  0.30003933  0.84381496  1
  Zn  Zn96  1  0.89596420  0.82217627  0.35762425  1
  Zn  Zn97  1  0.81431540  0.81163367  0.81406022  1
  Zn  Zn98  1  0.15721569  0.47726449  0.39997094  1
  Zn  Zn99  1  0.18786438  0.44331449  0.93565805  1
  Zn  Zn100  1  0.19859583  0.94422485  0.44604468  1
  Zn  Zn101  1  0.19095717  0.94270632  0.93938886  1
  Zn  Zn102  1  0.68349480  0.30518995  0.43723097  1
  Zn  Zn103  1  0.68456851  0.44180628  0.93311079  1
  Zn  Zn104  1  0.68861957  0.94726918  0.41735460  1
  Zn  Zn105  1  0.68896181  0.94077825  0.93434343  1
  Zn  Zn106  1  0.31100661  0.06449230  0.06086385  1
  Zn  Zn107  1  0.31742497  0.06165340  0.56401193  1
  Zn  Zn108  1  0.19196819  0.56824192  0.06637867  1
  Zn  Zn109  1  0.30514143  0.56579680  0.55998950  1
  Zn  Zn110  1  0.80955644  0.06332033  0.05910981  1
  Zn  Zn111  1  0.81227505  0.06322828  0.56467046  1
  Zn  Zn112  1  0.80413793  0.55653682  0.06416273  1
  Zn  Zn113  1  0.81740579  0.55322880  0.55673084  1
  Zn  Zn114  1  0.43528069  0.44327364  0.18534221  1
  Zn  Zn115  1  0.43275401  0.43553240  0.69542457  1
  Zn  Zn116  1  0.44400114  0.93482630  0.19069128  1
  Zn  Zn117  1  0.44041210  0.94033390  0.68539038  1
  Zn  Zn118  1  0.91900483  0.43729493  0.19422847  1
  Zn  Zn119  1  0.93895233  0.43601097  0.69407727  1
  Zn  Zn120  1  0.93599932  0.93098913  0.18518112  1
  Zn  Zn121  1  0.94502410  0.94177576  0.69145077  1
  Zn  Zn122  1  0.06495705  0.06839842  0.30896177  1
  Zn  Zn123  1  0.06514176  0.06680321  0.81594016  1
  Zn  Zn124  1  0.05333691  0.56887792  0.19314015  1
  Zn  Zn125  1  0.06375372  0.56191653  0.81469254  1
  Zn  Zn126  1  0.59670454  0.05638759  0.32143273  1
  Zn  Zn127  1  0.55778067  0.06074793  0.80472736  1
  Zn  Zn128  1  0.56028515  0.57527802  0.23054837  1
  Zn  Zn129  1  0.55599158  0.55723930  0.81113078  1
  Zn  Zn130  1  0.47700754  0.15925009  0.42379064  1
  Zn  Zn131  1  0.43558032  0.18999875  0.93586603  1
  Zn  Zn132  1  0.48247040  0.64743791  0.39688608  1
  Zn  Zn133  1  0.43513385  0.69129200  0.94186992  1
  Zn  Zn134  1  0.94155311  0.19210638  0.44376132  1
  Zn  Zn135  1  0.93919319  0.18813532  0.94553258  1
  Zn  Zn136  1  0.99003690  0.65741137  0.41429183  1
  Zn  Zn137  1  0.93946455  0.67937326  0.93223504  1
  Zn  Zn138  1  0.06683788  0.32263442  0.05679996  1
  Zn  Zn139  1  0.06751647  0.30553148  0.56847561  1
  Zn  Zn140  1  0.06457088  0.80974029  0.06498515  1
  Zn  Zn141  1  0.06101202  0.81044932  0.57148285  1
  Zn  Zn142  1  0.56514348  0.30580927  0.06435914  1
  Zn  Zn143  1  0.54802603  0.30444172  0.56796177  1
  Zn  Zn144  1  0.56407430  0.81562121  0.05903436  1
  Zn  Zn145  1  0.56944215  0.81354168  0.56962978  1
  O  O146  1  0.13588456  0.11169308  0.11411039  1
  O  O147  1  0.12572904  0.12201047  0.62323071  1
  O  O148  1  0.13465714  0.62699481  0.14098264  1
  O  O149  1  0.11979830  0.62111566  0.63329935  1
  O  O150  1  0.61970601  0.11888597  0.11646361  1
  O  O151  1  0.63436346  0.10748031  0.61838330  1
  O  O152  1  0.63991924  0.60187166  0.14415229  1
  O  O153  1  0.61527225  0.61224761  0.62597452  1
  O  O154  1  0.38466995  0.39037412  0.35813644  1
  O  O155  1  0.38653191  0.38409459  0.87337990  1
  O  O156  1  0.37537581  0.87863644  0.38939046  1
  O  O157  1  0.37692374  0.88872622  0.87788530  1
  O  O158  1  0.88863654  0.35528367  0.40190840  1
  O  O159  1  0.89480335  0.39486284  0.85819262  1
  O  O160  1  0.84213679  0.90543356  0.41931255  1
  O  O161  1  0.87138229  0.88854304  0.88298764  1
  O  O162  1  0.26011778  0.00380994  0.36641751  1
  O  O163  1  0.26212327  0.01279394  0.87846560  1
  O  O164  1  0.26728415  0.48749213  0.38451890  1
  O  O165  1  0.26919707  0.49258760  0.86844692  1
  O  O166  1  0.71570569  0.04499453  0.36020676  1
  O  O167  1  0.75833302  0.00889263  0.86636988  1
  O  O168  1  0.63973817  0.53540436  0.38357524  1
  O  O169  1  0.75527708  0.51218951  0.86700278  1
  O  O170  1  0.25645060  0.48223876  0.12042600  1
  O  O171  1  0.25202684  0.50412896  0.64284827  1
  O  O172  1  0.24771781  0.99441619  0.13174484  1
  O  O173  1  0.24237289  0.98942454  0.62612115  1
  O  O174  1  0.73716114  0.47946286  0.12432854  1
  O  O175  1  0.73566951  0.50562186  0.63271163  1
  O  O176  1  0.73873825  0.98669234  0.10805446  1
  O  O177  1  0.74300065  1.00267171  0.64058622  1
  O  O178  1  0.01001354  0.36081141  0.25841041  1
  O  O179  1  0.01689484  0.38703284  0.76473607  1
  O  O180  1  -0.04596899  0.85204424  0.26133388  1
  O  O181  1  0.01445394  0.86370400  0.74178965  1
  O  O182  1  0.50415456  0.38029386  0.26205435  1
  O  O183  1  0.51097120  0.38031955  0.76201871  1
  O  O184  1  0.52134256  0.85765620  0.22311015  1
  O  O185  1  0.50423871  0.86828361  0.75661155  1
  O  O186  1  0.48972401  0.11909914  0.23795664  1
  O  O187  1  0.51267972  0.12784901  0.72867960  1
  O  O188  1  0.48192781  0.63269051  0.28080237  1
  O  O189  1  0.49243915  0.63113182  0.74274246  1
  O  O190  1  0.99425146  0.13717814  0.25079662  1
  O  O191  1  0.98858442  0.11923050  0.74670805  1
  O  O192  1  0.99096185  0.65732387  0.23874872  1
  O  O193  1  0.99395698  0.62615136  0.74151855  1
  O  O194  1  0.36463376  0.24389414  0.01316942  1
  O  O195  1  0.29383320  0.33788273  0.48750286  1
  O  O196  1  0.36052094  0.76530537  -0.00322851  1
  O  O197  1  0.36582069  0.76369566  0.51459792  1
  O  O198  1  0.86156142  0.26525776  -0.04864873  1
  O  O199  1  0.88028775  0.25728808  0.52301831  1
  O  O200  1  0.87453328  0.76597268  -0.01370999  1
  O  O201  1  0.90681074  0.77765377  0.52049277  1
  O  O202  1  0.13321573  0.23444960  0.50411346  1
  O  O203  1  0.13518131  0.23846062  1.00816551  1
  O  O204  1  0.13656452  0.76169971  0.50489412  1
  O  O205  1  0.13371330  0.75987613  0.98650662  1
  O  O206  1  0.63431745  0.25366199  0.52189602  1
  O  O207  1  0.61906086  0.23510951  0.98506339  1
  O  O208  1  0.59429515  0.74303073  0.47952747  1
  O  O209  1  0.63677605  0.75830704  0.98606186  1
  O  O210  1  0.48690938  0.23771813  0.11835136  1
  O  O211  1  0.47735895  0.25221511  0.63725007  1
  O  O212  1  0.50334577  0.72070766  0.09016103  1
  O  O213  1  0.49225418  0.74241098  0.63405812  1
  O  O214  1  1.00264627  0.25696233  0.13141462  1
  O  O215  1  0.99778181  0.23673954  0.63377749  1
  O  O216  1  0.99260972  0.77066198  0.13982797  1
  O  O217  1  1.00905105  0.73119925  0.64095510  1
  O  O218  1  0.01171913  0.26076193  0.38144701  1
  O  O219  1  0.00715150  0.26065513  0.87201927  1
  O  O220  1  0.11434740  0.64362456  0.39982430  1
  O  O221  1  0.01456965  0.74268703  0.86570363  1
  O  O222  1  0.47205065  0.26801807  0.38215065  1
  O  O223  1  0.50397111  0.26245461  0.87381774  1
  O  O224  1  0.54673782  0.74293848  0.41267144  1
  O  O225  1  0.48856186  0.76203640  0.86253286  1
  O  O226  1  0.24703811  0.11533153  0.48890077  1
  O  O227  1  0.24396351  0.13209841  0.99471014  1
  O  O228  1  0.25025664  0.64661556  0.50714397  1
  O  O229  1  0.25543243  0.64649533  1.00417083  1
  O  O230  1  0.75484669  0.12403780  0.48776759  1
  O  O231  1  0.73910447  0.11955660  0.98435885  1
  O  O232  1  0.76812238  0.61298512  0.47146964  1
  O  O233  1  0.75252958  0.63898004  0.98355796  1
  O  O234  1  0.24089339  0.36175813  0.01460119  1
  O  O235  1  0.24033797  0.37419169  0.52019505  1
  O  O236  1  0.25815322  0.87647688  0.00763768  1
  O  O237  1  0.25796876  0.86958720  0.51303827  1
  O  O238  1  0.74173270  0.37187922  0.00324961  1
  O  O239  1  0.76392015  0.37633696  0.49424620  1
  O  O240  1  0.75818603  0.86522119  -0.00985388  1
  O  O241  1  0.77554175  0.87591606  0.45702140  1
  O  O242  1  0.11685424  0.48119373  0.25036683  1
  O  O243  1  0.14113747  0.50127930  0.75877235  1
  O  O244  1  0.13821654  1.00819189  0.23932642  1
  O  O245  1  0.12203878  0.98861339  0.74683554  1
  O  O246  1  0.63041411  0.47862809  0.24393803  1
  O  O247  1  0.62879174  0.49164174  0.74530080  1
  O  O248  1  0.62293695  0.99479362  0.22872375  1
  O  O249  1  0.63311841  0.99283662  0.74385858  1
  O  O250  1  0.37140932  0.00307711  0.25597613  1
  O  O251  1  0.36836575  -0.00416532  0.75797919  1
  O  O252  1  0.37313037  0.51643609  0.25597204  1
  O  O253  1  0.36626272  0.50970116  0.75417498  1
  O  O254  1  0.88819509  0.01991114  0.24287359  1
  O  O255  1  0.87080904  0.00532031  0.75726839  1
  O  O256  1  0.84791423  0.43886916  0.27872317  1
  O  O257  1  0.86515857  0.50764828  0.75512219  1
  O  O258  1  0.12330640  0.37163222  0.36141789  1
  O  O259  1  0.11781512  0.37656408  0.87014120  1
  O  O260  1  0.09129560  0.91242028  0.38273113  1
  O  O261  1  0.12749808  0.87854651  0.86382368  1
  O  O262  1  0.60884399  0.36165153  0.36281648  1
  O  O263  1  0.61353563  0.36958701  0.86965964  1
  O  O264  1  0.63350148  0.87930246  0.34315493  1
  O  O265  1  0.61124458  0.88690985  0.86415057  1
  O  O266  1  0.38063850  0.12695605  0.13074179  1
  O  O267  1  0.37328912  0.12157166  0.63954815  1
  O  O268  1  0.37537865  0.63245251  0.13954991  1
  O  O269  1  0.37962408  0.63427897  0.63495365  1
  O  O270  1  0.87325228  0.12742244  0.12796137  1
  O  O271  1  0.88217798  0.13400425  0.63309867  1
  O  O272  1  0.82756765  0.63238164  0.14381563  1
  O  O273  1  0.87141329  0.62127351  0.63764148  1
  O  O274  1  0.25974611  0.24943399  0.11948175  1
  O  O275  1  0.28063583  0.25668172  0.62782297  1
  O  O276  1  0.24595088  0.76525904  0.11165639  1
  O  O277  1  0.25676364  0.76143531  0.62450174  1
  O  O278  1  0.73457131  0.25828572  0.11296643  1
  O  O279  1  0.76238690  0.24694192  0.63240145  1
  O  O280  1  0.74791552  0.76607390  0.09981907  1
  O  O281  1  0.71523199  0.74926227  0.59232419  1
  O  O282  1  0.25383713  0.23154057  0.36658871  1
  O  O283  1  0.26285889  0.23674584  0.88785647  1
  O  O284  1  0.24850230  0.76300024  0.39203883  1
  O  O285  1  0.23947017  0.75784143  0.88592544  1
  O  O286  1  0.75252409  0.23914714  0.37020112  1
  O  O287  1  0.72964528  0.23576550  0.86144508  1
  O  O288  1  0.81480377  0.73827949  0.36426291  1
  O  O289  1  0.75202818  0.73796184  0.87704772  1
  O  O290  1  0.01075023  0.11674656  -0.00362431  1
  O  O291  1  0.01289885  0.12709890  0.51298911  1
  O  O292  1  -0.02929193  0.62674573  0.02451681  1
  O  O293  1  -0.00090775  0.60728626  0.51862164  1
  O  O294  1  0.50617480  0.12705209  0.00713332  1
  O  O295  1  0.49816079  0.13162374  0.53339431  1
  O  O296  1  0.50689685  0.66502779  0.03027167  1
  O  O297  1  0.49275121  0.60576897  0.51488612  1
  O  O298  1  0.49911157  0.37899879  0.49232340  1
  O  O299  1  0.50206264  0.37241736  0.98905346  1
  O  O300  1  0.48403825  0.87123684  0.51191807  1
  O  O301  1  0.48931120  0.86850258  0.98597468  1
  O  O302  1  1.00391881  0.37711280  0.50416255  1
  O  O303  1  1.00021457  0.38109298  0.98319163  1
  O  O304  1  0.96168245  0.83293958  0.50905897  1
  O  O305  1  0.98772530  0.88453343  0.99917295  1
  O  O306  1  0.48029228  0.49001293  0.39891353  1
  O  O307  1  0.49092900  0.48820380  0.87607005  1
  O  O308  1  0.49234841  0.99737384  0.36420341  1
  O  O309  1  0.48426204  0.99304646  0.86735584  1
  O  O310  1  1.00631113  0.48012637  0.40047166  1
  O  O311  1  0.98630337  0.51389388  0.88342475  1
  O  O312  1  1.03609952  0.96504144  0.37520385  1
  O  O313  1  0.99024354  1.00573953  0.88468258  1
  O  O314  1  0.01074189  -0.00882010  0.11355016  1
  O  O315  1  0.01535656  0.01430357  0.63340521  1
  O  O316  1  -0.01148306  0.49615750  0.13354553  1
  O  O317  1  0.00145479  0.50871013  0.62554485  1
  O  O318  1  0.50610394  0.01070673  0.12167607  1
  O  O319  1  0.51488195  0.00092758  0.62613698  1
  O  O320  1  0.51777410  0.50109714  0.13289450  1
  O  O321  1  0.50408663  0.50223027  0.62617456  1
  O  O322  1  0.23611164  0.36723079  0.23958906  1
  O  O323  1  0.23826387  0.38906938  0.75551204  1
  O  O324  1  0.26076395  0.88577051  0.23946814  1
  O  O325  1  0.23449554  0.86805051  0.74254474  1
  O  O326  1  0.72740446  0.35820469  0.23759048  1
  O  O327  1  0.73706527  0.38766480  0.76389046  1
  O  O328  1  0.74765482  0.87238686  0.22256587  1
  O  O329  1  0.74109332  0.88212265  0.75965999  1
  O  O330  1  0.26243297  0.11222738  0.25683042  1
  O  O331  1  0.24514713  0.13069264  0.76727014  1
  O  O332  1  0.27469258  0.64411080  0.26665267  1
  O  O333  1  0.26137440  0.61964991  0.75209697  1
  O  O334  1  0.77445839  0.13838041  0.25399641  1
  O  O335  1  0.75797089  0.11545160  0.75773332  1
  O  O336  1  0.75061897  0.60406842  0.29072509  1
  O  O337  1  0.75346225  0.62228673  0.75743047  1
  O  O338  1  0.37696681  0.11371074  0.36968683  1
  O  O339  1  0.36828487  0.11384400  0.87639387  1
  O  O340  1  0.37490661  0.60275638  0.39257492  1
  O  O341  1  0.38862348  0.61402053  0.86850525  1
  O  O342  1  0.87327226  0.12312035  0.37821110  1
  O  O343  1  0.86797173  0.11774867  0.86906629  1
  O  O344  1  0.89970368  0.59880763  0.37275987  1
  O  O345  1  0.86649901  0.61494723  0.86185735  1
  O  O346  1  0.13682130  0.37013684  0.13535988  1
  O  O347  1  0.11805956  0.37866221  0.64170880  1
  O  O348  1  0.13855160  0.89042900  0.11492908  1
  O  O349  1  0.12931205  0.88461125  0.63219094  1
  O  O350  1  0.62612143  0.38071648  0.12592741  1
  O  O351  1  0.61546946  0.38543276  0.64120378  1
  O  O352  1  0.63532428  0.88096267  0.12013299  1
  O  O353  1  0.62139903  0.88535077  0.64207818  1
  O  O354  1  0.11398210  0.24936172  0.25238578  1
  O  O355  1  0.13681022  0.26683439  0.74866433  1
  O  O356  1  0.11788849  0.77104663  0.25087517  1
  O  O357  1  0.12222590  0.75763534  0.76429324  1
  O  O358  1  0.60870233  0.26077847  0.23250294  1
  O  O359  1  0.62578233  0.26549975  0.75428941  1
  O  O360  1  0.64764092  0.75220250  0.23764109  1
  O  O361  1  0.61294077  0.75827817  0.74560686  1
  O  O362  1  0.36871994  0.23455151  0.23932649  1
  O  O363  1  0.32933021  0.29943692  0.67481295  1
  O  O364  1  0.38435963  0.75093192  0.24279810  1
  O  O365  1  0.37957056  0.74534994  0.74345383  1
  O  O366  1  0.89629350  0.24605947  0.25252133  1
  O  O367  1  0.87033573  0.23902368  0.74690861  1
  O  O368  1  0.99357745  0.75486456  0.36087284  1
  O  O369  1  0.88712137  0.74264120  0.75743109  1
  O  O370  1  0.38171420  0.48713176  0.52317268  1
  O  O371  1  0.37235328  0.50654098  0.98955162  1
  O  O372  1  0.37243776  0.98628981  0.49189201  1
  O  O373  1  0.37317593  0.99240249  0.99374653  1
  O  O374  1  0.88942136  0.47440109  0.51698117  1
  O  O375  1  0.86196570  0.49265413  0.98152584  1
  O  O376  1  0.87951257  0.96669264  0.54852922  1
  O  O377  1  0.88247021  0.99868846  0.99132210  1
  O  O378  1  0.11837837  0.00778389  0.00448483  1
  O  O379  1  0.13051465  0.01113198  0.51488344  1
  O  O380  1  0.12530735  0.50967960  -0.00242914  1
  O  O381  1  0.11664098  0.49394358  0.50869667  1
  O  O382  1  0.62318323  0.01109070  0.00240622  1
  O  O383  1  0.63575804  -0.01788239  0.51660186  1
  O  O384  1  0.62539347  0.50516916  0.00814723  1
  O  O385  1  0.61037043  0.48883567  0.52149492  1
  O  O386  1  0.36177469  0.36379920  0.13904249  1
  O  O387  1  0.36343873  0.35922570  0.63496543  1
  O  O388  1  0.37059393  0.87521923  0.11560925  1
  O  O389  1  0.36830554  0.87191606  0.62257554  1
  O  O390  1  0.85217305  0.37008441  0.11947665  1
  O  O391  1  0.87819110  0.36080052  0.62819785  1
  O  O392  1  0.86129439  0.88601050  0.10127795  1
  O  O393  1  0.86513892  0.91057939  0.60717297  1
  O  O394  1  0.13661017  0.12169608  0.38449540  1
  O  O395  1  0.14088583  0.11810109  0.88668688  1
  O  O396  1  0.13785966  0.59162767  0.35066296  1
  O  O397  1  0.13163389  0.63730400  0.87467675  1
  O  O398  1  0.58627286  0.13904421  0.39370831  1
  O  O399  1  0.62534133  0.12735787  0.87686335  1
  O  O400  1  0.61638574  0.60264174  0.40333571  1
  O  O401  1  0.63651824  0.62038596  0.86740051  1
