# generated using pymatgen
data_V73Zn73O256
_symmetry_space_group_name_H-M   'P 1'
_cell_length_a   16.99480777
_cell_length_b   16.99121791
_cell_length_c   16.90530143
_cell_angle_alpha   90.31409099
_cell_angle_beta   89.96315573
_cell_angle_gamma   90.06319887
_symmetry_Int_Tables_number   1
_chemical_formula_structural   V73Zn73O256
_chemical_formula_sum   'V73 Zn73 O256'
_cell_volume   4881.53949494
_cell_formula_units_Z   1
loop_
 _symmetry_equiv_pos_site_id
 _symmetry_equiv_pos_as_xyz
  1  'x, y, z'
loop_
 _atom_site_type_symbol
 _atom_site_label
 _atom_site_symmetry_multiplicity
 _atom_site_fract_x
 _atom_site_fract_y
 _atom_site_fract_z
 _atom_site_occupancy
  V  V0  1  0.71819999  -0.01503853  0.23998435  1
  V  V1  1  0.63487831  0.63078222  0.49613026  1
  V  V2  1  0.36973204  0.02553695  0.37155313  1
  V  V3  1  0.37475475  0.87311676  0.48534244  1
  V  V4  1  0.11955079  0.62768023  0.50625937  1
  V  V5  1  0.88692726  0.36369360  -0.00321493  1
  V  V6  1  0.49331227  0.49635746  0.50145003  1
  V  V7  1  0.25358590  0.61735081  0.37390514  1
  V  V8  1  0.12075745  0.37433004  0.25414890  1
  V  V9  1  0.49379437  0.12249831  0.12021650  1
  V  V10  1  0.49371639  0.38293428  0.38530322  1
  V  V11  1  0.38226711  0.46977318  0.88917594  1
  V  V12  1  0.80101353  0.68693910  0.18904485  1
  V  V13  1  0.87800549  0.36414229  0.48641623  1
  V  V14  1  -0.01613888  0.00105650  -0.00051708  1
  V  V15  1  -0.00111147  0.11589458  0.13011078  1
  V  V16  1  -0.00417619  0.00374618  0.50992746  1
  V  V17  1  0.00314529  0.25373321  0.77229564  1
  V  V18  1  0.37808140  0.62981477  0.74981698  1
  V  V19  1  -0.00640168  0.87849805  0.37007334  1
  V  V20  1  0.64297481  0.11873535  -0.00299931  1
  V  V21  1  0.39315233  0.61506018  0.26589114  1
  V  V22  1  0.00631686  0.73902846  0.74348988  1
  V  V23  1  0.38836339  0.76062027  0.12818990  1
  V  V24  1  0.49865938  0.24883043  0.24982406  1
  V  V25  1  0.12326495  0.74934355  0.37903058  1
  V  V26  1  0.74698568  0.36877536  0.11875493  1
  V  V27  1  0.50414305  0.62803890  0.62819217  1
  V  V28  1  0.37024054  0.12858552  0.75403798  1
  V  V29  1  0.23815873  0.13984728  0.89183601  1
  V  V30  1  0.36670565  0.25974980  0.61274288  1
  V  V31  1  0.13429806  0.00066263  0.11626861  1
  V  V32  1  0.49868726  0.26117047  0.76410372  1
  V  V33  1  0.05959907  0.70453466  0.19406605  1
  V  V34  1  0.50327431  0.12956114  0.62481171  1
  V  V35  1  0.76040655  0.49735664  0.26031216  1
  V  V36  1  0.17503370  0.05849746  0.56778066  1
  V  V37  1  -0.00747585  0.14058537  0.62352090  1
  V  V38  1  0.76869931  0.63353614  0.38475761  1
  V  V39  1  0.63196629  0.49222885  0.62920803  1
  V  V40  1  0.60289095  0.77229679  0.82019032  1
  V  V41  1  0.62559600  0.38093074  0.25632213  1
  V  V42  1  0.36680054  -0.00862536  0.88710371  1
  V  V43  1  0.24264523  0.00146893  0.74804522  1
  V  V44  1  0.74604099  0.11444025  0.37290971  1
  V  V45  1  0.87037931  0.73869407  0.63144588  1
  V  V46  1  0.50214538  -0.00249884  0.49582216  1
  V  V47  1  0.37547637  0.75887577  0.62686578  1
  V  V48  1  0.25688846  0.50377428  0.74325084  1
  V  V49  1  0.87190236  0.01499477  0.85705789  1
  V  V50  1  0.76232467  0.36445228  0.62299356  1
  V  V51  1  0.62842335  0.12983845  0.50249626  1
  V  V52  1  0.86450991  0.09793662  0.24743990  1
  V  V53  1  0.63326625  0.25294352  0.38085608  1
  V  V54  1  0.25533392  0.62644280  0.88792012  1
  V  V55  1  0.56705977  0.80425623  0.32885808  1
  V  V56  1  0.37094101  0.26858547  0.12191778  1
  V  V57  1  0.11196209  0.50567388  0.63257040  1
  V  V58  1  0.86767443  0.24241816  0.13417721  1
  V  V59  1  0.00789210  0.88035826  0.87233798  1
  V  V60  1  0.87028698  0.87532586  0.51298733  1
  V  V61  1  0.25332115  0.00769350  0.25820031  1
  V  V62  1  0.75255349  0.50141848  0.75967016  1
  V  V63  1  0.49323369  0.61678491  0.11274506  1
  V  V64  1  0.24900046  0.75746672  0.50797017  1
  V  V65  1  0.62926472  0.62465482  -0.00385959  1
  V  V66  1  -0.01062325  0.50602994  0.48202583  1
  V  V67  1  0.13490133  0.87627595  0.25047600  1
  V  V68  1  0.89325946  0.49559179  0.88034979  1
  V  V69  1  0.49409224  -0.00714382  -0.00113401  1
  V  V70  1  0.62095504  0.49837762  0.12488683  1
  V  V71  1  0.12583604  0.87931709  0.73133768  1
  V  V72  1  0.12551622  0.37479333  0.75487275  1
  Zn  Zn73  1  0.65757447  0.23153836  0.87121425  1
  Zn  Zn74  1  0.09034333  0.39209230  0.95671065  1
  Zn  Zn75  1  0.71640281  0.86572633  0.67269516  1
  Zn  Zn76  1  0.80433832  0.80217317  0.01755766  1
  Zn  Zn77  1  0.25042340  0.37780640  0.61307612  1
  Zn  Zn78  1  0.26043348  0.31380058  -0.01759945  1
  Zn  Zn79  1  0.84108521  0.14912995  0.76154105  1
  Zn  Zn80  1  0.27424964  0.77077710  0.00152847  1
  Zn  Zn81  1  0.76563332  0.65222744  0.88703844  1
  Zn  Zn82  1  0.22803147  0.21119822  0.24611715  1
  Zn  Zn83  1  0.18777511  0.19279920  0.69037606  1
  Zn  Zn84  1  0.23621383  0.64441909  0.15400477  1
  Zn  Zn85  1  0.18831433  0.68913135  0.69263623  1
  Zn  Zn86  1  0.68114940  0.18103340  0.18342621  1
  Zn  Zn87  1  0.68797432  0.19867988  0.69886982  1
  Zn  Zn88  1  0.62348500  0.76174579  0.15321338  1
  Zn  Zn89  1  0.69144622  0.68344747  0.69869299  1
  Zn  Zn90  1  0.32125102  0.32865234  0.31577932  1
  Zn  Zn91  1  0.30699268  0.31125663  0.80239411  1
  Zn  Zn92  1  0.31554315  0.80128499  0.30353234  1
  Zn  Zn93  1  0.30407860  0.81004577  0.81094818  1
  Zn  Zn94  1  0.81254575  0.30872319  0.31368661  1
  Zn  Zn95  1  0.81473355  0.31773851  0.80447994  1
  Zn  Zn96  1  0.79980452  0.82364246  0.32411452  1
  Zn  Zn97  1  0.83254403  0.81190231  0.82228235  1
  Zn  Zn98  1  0.17148871  0.44795114  0.43354440  1
  Zn  Zn99  1  0.16461688  0.48124911  1.08543437  1
  Zn  Zn100  1  0.18801291  0.93434976  0.43497428  1
  Zn  Zn101  1  0.18834572  0.93485933  0.93284172  1
  Zn  Zn102  1  0.69164477  0.44174020  0.44471960  1
  Zn  Zn103  1  0.68519440  0.43679976  0.94098937  1
  Zn  Zn104  1  0.66331735  0.90390440  0.48245561  1
  Zn  Zn105  1  0.70798471  0.91934462  0.87194481  1
  Zn  Zn106  1  0.31316163  0.07445098  0.07217144  1
  Zn  Zn107  1  0.33304918  0.06687256  0.56142088  1
  Zn  Zn108  1  0.31753224  0.51013664  0.05372540  1
  Zn  Zn109  1  0.30987277  0.56817739  0.56446245  1
  Zn  Zn110  1  0.79002588  -0.04220745  0.05399496  1
  Zn  Zn111  1  0.81667975  0.07129934  0.56310964  1
  Zn  Zn112  1  0.81043528  0.55055159  0.05849853  1
  Zn  Zn113  1  0.81432539  0.55854253  0.56984262  1
  Zn  Zn114  1  0.43678990  0.44392554  0.19894441  1
  Zn  Zn115  1  0.44022898  0.43751543  0.68580075  1
  Zn  Zn116  1  0.52312420  0.91595275  0.17115711  1
  Zn  Zn117  1  0.43059376  0.94681251  0.68238579  1
  Zn  Zn118  1  0.93472727  0.43037009  0.17580736  1
  Zn  Zn119  1  0.93549574  0.43298550  0.69196952  1
  Zn  Zn120  1  0.92667931  0.83749275  0.17255653  1
  Zn  Zn121  1  0.93720037  0.94287750  0.68666689  1
  Zn  Zn122  1  0.05415274  0.05143119  0.30934615  1
  Zn  Zn123  1  0.06301792  0.06960086  0.81033381  1
  Zn  Zn124  1  -0.04710010  0.56112191  0.28826996  1
  Zn  Zn125  1  0.07441818  0.56516715  0.93422171  1
  Zn  Zn126  1  0.55773245  0.06464645  0.31432508  1
  Zn  Zn127  1  0.55219270  0.06836295  0.82142495  1
  Zn  Zn128  1  0.60632061  0.62052862  0.28217274  1
  Zn  Zn129  1  0.55696590  0.54712793  0.81201137  1
  Zn  Zn130  1  0.44218252  0.19482699  0.43577270  1
  Zn  Zn131  1  0.42125264  0.19233492  0.94416059  1
  Zn  Zn132  1  0.43977225  0.68464653  0.44653609  1
  Zn  Zn133  1  0.44728712  0.69673249  0.93560281  1
  Zn  Zn134  1  0.93273814  0.17754221  0.43080290  1
  Zn  Zn135  1  0.93300987  0.18591377  0.94735959  1
  Zn  Zn136  1  0.93774634  0.69480071  0.44345526  1
  Zn  Zn137  1  0.93407456  0.69413911  0.91694012  1
  Zn  Zn138  1  0.06902535  0.27770877  0.07287918  1
  Zn  Zn139  1  0.05813359  0.32893567  0.56210392  1
  Zn  Zn140  1  0.09065565  0.81972838  0.04605152  1
  Zn  Zn141  1  0.05550207  0.81397873  0.56416683  1
  Zn  Zn142  1  0.57615051  0.29405375  0.05864911  1
  Zn  Zn143  1  0.56405346  0.31054719  0.57122245  1
  Zn  Zn144  1  0.61679793  0.85188640  0.00079440  1
  Zn  Zn145  1  0.57570118  0.80375387  0.60020913  1
  O  O146  1  0.10199406  0.10617115  0.14219126  1
  O  O147  1  0.11889905  0.12601939  0.62110425  1
  O  O148  1  0.11905024  0.64491192  0.14117357  1
  O  O149  1  0.13195319  0.61582685  0.61675332  1
  O  O150  1  0.60628332  0.13336402  0.10974147  1
  O  O151  1  0.61143311  0.13890376  0.61595136  1
  O  O152  1  0.61186388  0.61399053  0.11828314  1
  O  O153  1  0.62257650  0.61460794  0.62205412  1
  O  O154  1  0.39489238  0.37939056  0.38076661  1
  O  O155  1  0.35756622  0.37180668  0.88526243  1
  O  O156  1  0.37270746  0.86796816  0.38488746  1
  O  O157  1  0.36131427  0.89297081  0.87122911  1
  O  O158  1  0.86612920  0.37773703  0.38707518  1
  O  O159  1  0.87094272  0.37245210  0.89113859  1
  O  O160  1  0.89217076  0.86362090  0.38699965  1
  O  O161  1  0.90187060  0.90330212  0.85978280  1
  O  O162  1  0.26019251  -0.00240059  0.37081170  1
  O  O163  1  0.25403779  0.01082295  0.86933070  1
  O  O164  1  0.24800856  0.51837222  0.39320325  1
  O  O165  1  0.28337623  0.51191302  0.85558438  1
  O  O166  1  0.73526078  0.01572450  0.35936004  1
  O  O167  1  0.77321096  0.01116060  0.86588121  1
  O  O168  1  0.74754104  0.50763546  0.36338926  1
  O  O169  1  0.74661546  0.48736078  0.86240824  1
  O  O170  1  0.24708959  0.53327930  0.13580623  1
  O  O171  1  0.24007533  0.49833158  0.62369716  1
  O  O172  1  0.23911842  1.00760257  0.13795788  1
  O  O173  1  0.24694642  1.01116069  0.63094675  1
  O  O174  1  0.74424672  0.48824985  0.13924215  1
  O  O175  1  0.74745854  0.49466391  0.63551272  1
  O  O176  1  0.73484262  0.99972710  0.14213892  1
  O  O177  1  0.74829062  1.03560010  0.65240127  1
  O  O178  1  0.01670764  0.36779018  0.25084881  1
  O  O179  1  0.01411241  0.36377314  0.74524181  1
  O  O180  1  0.00194117  0.87768878  0.26681059  1
  O  O181  1  0.01572843  0.88520238  0.74950846  1
  O  O182  1  0.51223979  0.37740002  0.26769721  1
  O  O183  1  0.49458681  0.35910449  0.74581479  1
  O  O184  1  0.51109663  0.86648401  0.27263848  1
  O  O185  1  0.52619371  0.91963095  0.74639015  1
  O  O186  1  0.51078767  0.13989190  0.23690170  1
  O  O187  1  0.48575216  0.12717093  0.74281638  1
  O  O188  1  0.49371079  0.61597036  0.26303257  1
  O  O189  1  0.49536730  0.61512597  0.73262421  1
  O  O190  1  0.97710793  0.09957102  0.23918460  1
  O  O191  1  1.01607424  0.14720863  0.73559896  1
  O  O192  1  0.99600246  0.66015159  0.25714055  1
  O  O193  1  1.01320718  0.64567778  0.76143994  1
  O  O194  1  0.36151849  0.25979669  0.01684531  1
  O  O195  1  0.37702663  0.24588444  0.51370902  1
  O  O196  1  0.39038239  0.75169485  0.01715909  1
  O  O197  1  0.36687778  0.75651791  0.50649753  1
  O  O198  1  0.86960798  0.25637872  0.01423192  1
  O  O199  1  0.88980593  0.26464827  0.48959138  1
  O  O200  1  0.83283408  0.74779331  -0.07909489  1
  O  O201  1  0.88535659  0.76533210  0.51953899  1
  O  O202  1  0.15438381  0.29910834  0.49353080  1
  O  O203  1  0.14578532  0.30185116  1.00221674  1
  O  O204  1  0.13050063  0.74769022  0.50119941  1
  O  O205  1  0.08571597  0.71730534  0.98036540  1
  O  O206  1  0.61913733  0.24208850  0.49150762  1
  O  O207  1  0.64208648  0.22805787  0.99067352  1
  O  O208  1  0.62798164  0.72663445  0.51567778  1
  O  O209  1  0.62118600  0.72410565  0.99725318  1
  O  O210  1  0.49455139  0.24877203  0.12985754  1
  O  O211  1  0.48929777  0.24510626  0.63404718  1
  O  O212  1  0.49715926  0.72010499  0.13558845  1
  O  O213  1  0.48731347  0.73616494  0.61101873  1
  O  O214  1  0.98964311  0.22318382  0.12506068  1
  O  O215  1  1.00995868  0.23831168  0.60806730  1
  O  O216  1  1.01495676  0.77211053  0.12842547  1
  O  O217  1  0.99316882  0.75103836  0.63583103  1
  O  O218  1  0.03519560  0.20672386  0.37147807  1
  O  O219  1  0.00680015  0.24547225  0.87099329  1
  O  O220  1  0.01531469  0.76642023  0.39181297  1
  O  O221  1  -0.00418754  0.77534946  0.85599014  1
  O  O222  1  0.51139733  0.26310363  0.37147936  1
  O  O223  1  0.47985472  0.24544541  0.86213153  1
  O  O224  1  0.50705655  0.74983312  0.38828486  1
  O  O225  1  0.51738411  0.73017846  0.85170486  1
  O  O226  1  0.23621284  0.11019567  0.50932403  1
  O  O227  1  0.24973938  0.12616038  0.99086898  1
  O  O228  1  0.24351178  0.63880007  0.49653437  1
  O  O229  1  0.27371943  0.60933345  0.98418453  1
  O  O230  1  0.73647473  0.11562763  0.49147955  1
  O  O231  1  0.73531721  0.09603797  1.01040581  1
  O  O232  1  0.74690829  0.61504657  0.49250603  1
  O  O233  1  0.73471005  0.61137145  0.99473514  1
  O  O234  1  0.24626450  0.41904122  0.02582918  1
  O  O235  1  0.21024119  0.35439065  0.49318881  1
  O  O236  1  0.19380222  0.84748291  0.00189995  1
  O  O237  1  0.25809712  0.86545570  0.49776316  1
  O  O238  1  0.75156241  0.37461243  0.01584788  1
  O  O239  1  0.76814076  0.38447397  0.50977641  1
  O  O240  1  0.72931393  0.88594963  -0.01680753  1
  O  O241  1  0.77660614  0.88563149  0.48610736  1
  O  O242  1  0.11980519  0.47764147  0.26240250  1
  O  O243  1  0.13829396  0.49870317  0.73654988  1
  O  O244  1  0.13610304  0.99132146  0.25659162  1
  O  O245  1  0.13540464  0.99799414  0.74705404  1
  O  O246  1  0.63654828  0.49564731  0.24578335  1
  O  O247  1  0.63823566  0.50047221  0.74096898  1
  O  O248  1  0.61584563  0.99675929  0.24624292  1
  O  O249  1  0.58171688  0.97508930  0.74997324  1
  O  O250  1  0.36133652  0.00260098  0.26619257  1
  O  O251  1  0.36192202  0.00918526  0.75532309  1
  O  O252  1  0.37339397  0.51609811  0.26018887  1
  O  O253  1  0.36339621  0.51574841  0.72224533  1
  O  O254  1  0.85164799  0.00176000  0.24916719  1
  O  O255  1  0.88994056  0.01970322  0.75503720  1
  O  O256  1  0.86108093  0.49115365  0.25226673  1
  O  O257  1  0.86838340  0.48426625  0.77209676  1
  O  O258  1  0.11845188  0.36547611  0.35864030  1
  O  O259  1  0.13017491  0.39346248  0.85163961  1
  O  O260  1  0.11801372  0.86842468  0.36974522  1
  O  O261  1  0.11176742  0.88949204  0.85608342  1
  O  O262  1  0.62652571  0.37081530  0.37287904  1
  O  O263  1  0.60357565  0.35866172  0.90504210  1
  O  O264  1  0.63105841  0.85863126  0.38642484  1
  O  O265  1  0.60966663  0.85852607  0.87853762  1
  O  O266  1  0.38892695  0.14275616  0.12940828  1
  O  O267  1  0.38179969  0.13857746  0.63371329  1
  O  O268  1  0.39244493  0.61135757  0.14024039  1
  O  O269  1  0.38409822  0.63694861  0.62709348  1
  O  O270  1  0.87459590  0.12680543  0.14066223  1
  O  O271  1  0.89084608  0.13252469  0.63189193  1
  O  O272  1  0.85929622  0.62871579  0.13115260  1
  O  O273  1  0.87496269  0.64051360  0.62136320  1
  O  O274  1  0.27542567  0.24918731  0.15078424  1
  O  O275  1  0.26314705  0.25406260  0.62851966  1
  O  O276  1  0.28022822  0.74281095  0.11923551  1
  O  O277  1  0.26016946  0.74545391  0.61616501  1
  O  O278  1  0.75336638  0.26007746  0.13665036  1
  O  O279  1  0.74756167  0.26594565  0.62485565  1
  O  O280  1  0.73739013  0.73209272  0.12581289  1
  O  O281  1  0.76795750  0.75335004  0.64217404  1
  O  O282  1  0.24713355  0.25516009  0.34781064  1
  O  O283  1  0.25464337  0.24293010  0.88113729  1
  O  O284  1  0.23912860  0.74758701  0.38682571  1
  O  O285  1  0.26565407  0.73334934  0.88566924  1
  O  O286  1  0.73688085  0.23898548  0.36697896  1
  O  O287  1  0.75199402  0.22324542  0.80327153  1
  O  O288  1  0.75878794  0.73159522  0.37970071  1
  O  O289  1  0.68429337  0.71076669  0.83112974  1
  O  O290  1  -0.00682017  0.11154205  0.01564868  1
  O  O291  1  -0.00743885  0.11234718  0.50663746  1
  O  O292  1  0.02465799  0.66424953  -0.01570348  1
  O  O293  1  0.01064162  0.61901346  0.49682797  1
  O  O294  1  0.49045988  0.12685097  0.01196136  1
  O  O295  1  0.50678387  0.12494116  0.50525578  1
  O  O296  1  0.50088704  0.61817367  0.01108419  1
  O  O297  1  0.51412430  0.61128276  0.50706410  1
  O  O298  1  0.50871927  0.38413172  0.49574908  1
  O  O299  1  0.54610803  0.35927944  0.96011462  1
  O  O300  1  0.49104726  0.89679667  0.50163733  1
  O  O301  1  0.49490995  0.89578092  0.99848001  1
  O  O302  1  0.98796863  0.39427475  0.49983455  1
  O  O303  1  0.98622739  0.35801029  1.00864975  1
  O  O304  1  0.99301681  0.88812620  0.49996968  1
  O  O305  1  1.01151401  0.89055410  0.98155063  1
  O  O306  1  0.50904086  0.48840970  0.39335156  1
  O  O307  1  0.46837271  0.48253312  0.83785614  1
  O  O308  1  0.48055966  1.01445868  0.38570128  1
  O  O309  1  0.47322731  1.01201236  0.88737466  1
  O  O310  1  0.99589089  0.50805911  0.38312826  1
  O  O311  1  0.99137858  0.49639641  0.87754194  1
  O  O312  1  1.00564467  0.98611107  0.39090614  1
  O  O313  1  1.00348046  1.00638007  0.88751245  1
  O  O314  1  0.00224250  0.00085902  0.10695267  1
  O  O315  1  0.00389781  0.01441353  0.61511692  1
  O  O316  1  0.00079322  0.51527133  0.18702783  1
  O  O317  1  0.01137379  0.50295994  0.63469836  1
  O  O318  1  0.48640650  0.01529786  0.11540488  1
  O  O319  1  0.48028133  0.01937574  0.60421663  1
  O  O320  1  0.51158671  0.50681416  0.13872338  1
  O  O321  1  0.51245911  0.50235669  0.61744260  1
  O  O322  1  0.22572434  0.38027372  0.25727027  1
  O  O323  1  0.24155951  0.38624406  0.74115775  1
  O  O324  1  0.23998996  0.88151308  0.25676640  1
  O  O325  1  0.23565271  0.88636179  0.75310978  1
  O  O326  1  0.74237656  0.38388992  0.25023742  1
  O  O327  1  0.75700709  0.38651905  0.73100480  1
  O  O328  1  0.73668597  0.88824994  0.25870095  1
  O  O329  1  0.75087978  0.87126875  0.77591740  1
  O  O330  1  0.23931105  0.10436220  0.25866169  1
  O  O331  1  0.25536041  0.12104362  0.75482626  1
  O  O332  1  0.25212904  0.62757710  0.27341710  1
  O  O333  1  0.26079477  0.62136389  0.75159732  1
  O  O334  1  0.75002971  0.11760512  0.25190322  1
  O  O335  1  0.74326744  0.09032105  0.71139664  1
  O  O336  1  0.75189629  0.61672460  0.26195956  1
  O  O337  1  0.76032525  0.60227132  0.75166469  1
  O  O338  1  0.36763957  0.12381681  0.37891673  1
  O  O339  1  0.35922700  0.11959362  0.86754286  1
  O  O340  1  0.36477804  0.63259229  0.37432991  1
  O  O341  1  0.38177524  0.62943225  0.85501656  1
  O  O342  1  0.86158935  0.12950833  0.35535302  1
  O  O343  1  0.88618291  0.11990356  0.86904086  1
  O  O344  1  0.87112533  0.62383063  0.37832213  1
  O  O345  1  0.87263143  0.59688223  0.89146083  1
  O  O346  1  0.12222379  0.38407782  0.14943449  1
  O  O347  1  0.12615776  0.39292122  0.63138165  1
  O  O348  1  0.11641094  0.89727948  0.14121713  1
  O  O349  1  0.12361880  0.88203415  0.63156622  1
  O  O350  1  0.62906058  0.37626713  0.13800845  1
  O  O351  1  0.64194836  0.38528663  0.61328326  1
  O  O352  1  0.60398051  0.86253401  0.11290075  1
  O  O353  1  0.64399149  0.88929253  0.59304290  1
  O  O354  1  0.12695238  0.27046376  0.24185429  1
  O  O355  1  0.12268889  0.26856642  0.74666957  1
  O  O356  1  0.12497315  0.76035986  0.26115772  1
  O  O357  1  0.11794369  0.76792759  0.74032884  1
  O  O358  1  0.61831749  0.26349524  0.25835642  1
  O  O359  1  0.60017152  0.23990833  0.76105691  1
  O  O360  1  0.62028866  0.73536866  0.26461597  1
  O  O361  1  0.61017980  0.77469559  0.71384937  1
  O  O362  1  0.39626049  0.26496443  0.24979648  1
  O  O363  1  0.37876833  0.24203987  0.74059667  1
  O  O364  1  0.37427152  0.72680915  0.23992441  1
  O  O365  1  0.36795572  0.74445785  0.73659281  1
  O  O366  1  0.87561976  0.25248932  0.23697309  1
  O  O367  1  0.90274611  0.25501411  0.75123949  1
  O  O368  1  0.85666545  0.76042536  0.23654065  1
  O  O369  1  0.89407973  0.75506834  0.73973448  1
  O  O370  1  0.39532133  0.50658075  0.51048570  1
  O  O371  1  0.40189811  0.49224196  0.98526912  1
  O  O372  1  0.37561578  0.99387747  0.48440213  1
  O  O373  1  0.36900326  1.00342510  0.99241565  1
  O  O374  1  0.88962914  0.50468178  0.50388796  1
  O  O375  1  0.87331067  0.47667149  0.99401114  1
  O  O376  1  0.88795676  0.99266730  0.50767440  1
  O  O377  1  0.88412976  0.99978746  0.98657893  1
  O  O378  1  0.12863091  0.00284038  0.01607257  1
  O  O379  1  0.11682161  -0.00225855  0.50326000  1
  O  O380  1  0.08301472  0.48944569  0.01439925  1
  O  O381  1  0.10839136  0.50740551  0.51042106  1
  O  O382  1  0.59469166  0.01338283  -0.00422466  1
  O  O383  1  0.60509790  0.01344829  0.49020613  1
  O  O384  1  0.63005081  0.49723859  0.02200374  1
  O  O385  1  0.62316654  0.50868101  0.51218355  1
  O  O386  1  0.38361057  0.36909150  0.13307531  1
  O  O387  1  0.37242176  0.36389922  0.62328449  1
  O  O388  1  0.40350169  0.85549945  0.14386760  1
  O  O389  1  0.38426208  0.86487134  0.61559864  1
  O  O390  1  0.86732115  0.36447307  0.11741612  1
  O  O391  1  0.86812951  0.37736068  0.61515370  1
  O  O392  1  0.85929244  0.86843668  0.09062172  1
  O  O393  1  0.87037896  0.87700113  0.61861305  1
  O  O394  1  0.08964136  0.15378870  0.36361861  1
  O  O395  1  0.14099703  0.12681840  0.87148659  1
  O  O396  1  0.13677125  0.63737807  0.39164633  1
  O  O397  1  0.15716712  0.60997051  0.87396775  1
  O  O398  1  0.62667450  0.13540098  0.38201595  1
  O  O399  1  0.62624680  0.11726598  0.88803890  1
  O  O400  1  0.64072241  0.62063365  0.39223510  1
  O  O401  1  0.60742722  0.59081837  0.90260477  1
