# generated using pymatgen
data_V73Zn73O256
_symmetry_space_group_name_H-M   'P 1'
_cell_length_a   16.87613100
_cell_length_b   16.88015613
_cell_length_c   16.90220850
_cell_angle_alpha   89.92807362
_cell_angle_beta   90.16205251
_cell_angle_gamma   89.89399215
_symmetry_Int_Tables_number   1
_chemical_formula_structural   V73Zn73O256
_chemical_formula_sum   'V73 Zn73 O256'
_cell_volume   4814.92998793
_cell_formula_units_Z   1
loop_
 _symmetry_equiv_pos_site_id
 _symmetry_equiv_pos_as_xyz
  1  'x, y, z'
loop_
 _atom_site_type_symbol
 _atom_site_label
 _atom_site_symmetry_multiplicity
 _atom_site_fract_x
 _atom_site_fract_y
 _atom_site_fract_z
 _atom_site_occupancy
  V  V0  1  0.88463545  0.12872895  0.77187181  1
  V  V1  1  0.25931245  0.75520744  0.50442983  1
  V  V2  1  0.24381549  0.61837804  0.37777516  1
  V  V3  1  0.75963849  0.50201941  0.75343171  1
  V  V4  1  0.24907970  0.12880524  0.37486911  1
  V  V5  1  0.63019930  0.24420918  0.36729192  1
  V  V6  1  0.36678106  0.11972115  0.74083811  1
  V  V7  1  0.88914590  0.23774039  0.62523435  1
  V  V8  1  0.63801899  0.49811028  0.12925128  1
  V  V9  1  0.37337852  0.49962465  0.87055168  1
  V  V10  1  0.73976864  0.61185859  0.37734239  1
  V  V11  1  0.75876763  0.62955043  0.87004197  1
  V  V12  1  0.63253216  0.00444773  0.13135090  1
  V  V13  1  0.49915182  0.62501842  0.61061461  1
  V  V14  1  0.37318289  0.62728465  0.74724046  1
  V  V15  1  0.24335802  0.48260489  0.24175004  1
  V  V16  1  0.24248172  0.24488229  -0.00748038  1
  V  V17  1  0.88398014  0.89144872  0.01656137  1
  V  V18  1  0.75501724  0.37500186  0.62485140  1
  V  V19  1  0.61863446  0.49845510  0.61171675  1
  V  V20  1  0.25442395  0.86418481  0.12473584  1
  V  V21  1  0.89349498  0.38542467  0.50320637  1
  V  V22  1  0.37140005  -0.00399197  0.38257543  1
  V  V23  1  -0.00100387  0.38428381  0.87561435  1
  V  V24  1  0.50255945  -0.00181217  0.00428765  1
  V  V25  1  0.49317246  0.74843549  0.24822959  1
  V  V26  1  0.49747327  0.62503880  0.12569124  1
  V  V27  1  0.71797656  0.14647902  0.88137510  1
  V  V28  1  0.26062336  0.38380934  0.62207441  1
  V  V29  1  0.24261784  0.62536906  0.87446704  1
  V  V30  1  0.13733128  0.39128683  0.75174426  1
  V  V31  1  0.26631753  0.26058193  0.50169529  1
  V  V32  1  -0.00648266  -0.01533784  0.51184356  1
  V  V33  1  0.11996988  0.86703368  0.24978148  1
  V  V34  1  0.11331810  0.01170335  0.12874801  1
  V  V35  1  0.11546902  0.12561472  -0.01116948  1
  V  V36  1  -0.02046664  0.50955565  -0.00424956  1
  V  V37  1  -0.01051949  0.74218805  0.23278367  1
  V  V38  1  0.50218346  0.74363068  0.75694736  1
  V  V39  1  0.86669044  0.27541082  0.08860380  1
  V  V40  1  0.75513849  0.23929667  0.50007022  1
  V  V41  1  0.37253382  0.62052368  0.24500348  1
  V  V42  1  0.13226714  0.12362440  0.52304296  1
  V  V43  1  0.11550600  0.25191330  0.36556669  1
  V  V44  1  0.72893153  0.74530315  0.49512915  1
  V  V45  1  0.25168127  -0.00189318  0.24655331  1
  V  V46  1  0.86733446  0.60606322  0.24749685  1
  V  V47  1  0.12091950  0.49575862  0.10764691  1
  V  V48  1  0.36993165  0.25105250  0.12936200  1
  V  V49  1  0.23027201  0.74278137  0.00101932  1
  V  V50  1  0.36704061  0.37396096  0.00744103  1
  V  V51  1  0.01850843  0.24590930  0.75682164  1
  V  V52  1  0.75938209  0.00999093  0.74799347  1
  V  V53  1  0.39284002  0.86070572  -0.00063275  1
  V  V54  1  0.11708362  0.74529121  0.37753043  1
  V  V55  1  0.59893857  0.89869419  0.74275098  1
  V  V56  1  0.75868830  0.11897101  0.38047679  1
  V  V57  1  0.13785953  0.88850606  0.71278791  1
  V  V58  1  0.49327320  0.24948369  0.71943580  1
  V  V59  1  0.50930460  0.01499277  0.49816560  1
  V  V60  1  -0.00066690  0.38526902  0.35775922  1
  V  V61  1  0.89220776  0.13030572  0.25027152  1
  V  V62  1  0.38333972  0.49331756  0.38422786  1
  V  V63  1  0.49405379  0.86643711  0.38576477  1
  V  V64  1  0.50069268  0.36205749  0.87758452  1
  V  V65  1  0.64025383  0.37535327  0.24826979  1
  V  V66  1  0.62413078  0.36835424  0.75384340  1
  V  V67  1  0.50304148  0.12863547  0.12956244  1
  V  V68  1  0.38049311  0.12747239  0.24788136  1
  V  V69  1  0.50016032  0.49897293  0.00256333  1
  V  V70  1  0.75830447  -0.00617556  0.26018586  1
  V  V71  1  0.50463471  0.37087784  0.38297942  1
  V  V72  1  0.62241762  0.86763747  0.25322083  1
  Zn  Zn73  1  0.12046940  0.49662394  0.58867640  1
  Zn  Zn74  1  0.62606703  0.63196622  -0.00744937  1
  Zn  Zn75  1  0.56641942  0.08087837  0.64435708  1
  Zn  Zn76  1  -0.00502490  0.78182461  0.76060880  1
  Zn  Zn77  1  0.63108976  0.75731228  0.86956603  1
  Zn  Zn78  1  0.74779987  0.86328819  0.62516325  1
  Zn  Zn79  1  0.75372863  0.75462510  0.01986711  1
  Zn  Zn80  1  0.86321678  0.87896930  0.49870259  1
  Zn  Zn81  1  0.35890202  -0.00298274  0.86720715  1
  Zn  Zn82  1  0.18945236  0.19345317  0.18546281  1
  Zn  Zn83  1  0.20923118  0.19717101  0.69184966  1
  Zn  Zn84  1  0.18006495  0.67621375  0.18412252  1
  Zn  Zn85  1  0.18261908  0.70010865  0.69677149  1
  Zn  Zn86  1  0.70423437  0.18650601  0.18633666  1
  Zn  Zn87  1  0.69895341  0.18177919  0.68632913  1
  Zn  Zn88  1  0.69479111  0.68217333  0.19003976  1
  Zn  Zn89  1  0.68618551  0.68501195  0.68114659  1
  Zn  Zn90  1  0.31635026  0.31056450  0.31597365  1
  Zn  Zn91  1  0.31581957  0.30717152  0.81226237  1
  Zn  Zn92  1  0.31020025  0.80880775  0.31686120  1
  Zn  Zn93  1  0.31222979  0.81102615  0.81724087  1
  Zn  Zn94  1  0.82374757  0.31103738  0.31228006  1
  Zn  Zn95  1  0.81709906  0.31167641  0.81932437  1
  Zn  Zn96  1  0.80279147  0.80508325  0.31507073  1
  Zn  Zn97  1  0.81284483  0.82280948  0.81098363  1
  Zn  Zn98  1  0.18219248  0.43745587  0.43127149  1
  Zn  Zn99  1  0.18496261  0.43594912  0.93305080  1
  Zn  Zn100  1  0.17253198  0.93594989  0.44999394  1
  Zn  Zn101  1  0.18720633  0.93700845  0.94536642  1
  Zn  Zn102  1  0.69760817  0.42843900  0.43635340  1
  Zn  Zn103  1  0.68430537  0.44227677  0.93378858  1
  Zn  Zn104  1  0.67931606  0.93256906  0.43709679  1
  Zn  Zn105  1  0.66736643  0.95490795  0.92044243  1
  Zn  Zn106  1  0.29678670  0.04373760  0.03446533  1
  Zn  Zn107  1  0.29602021  0.05159966  0.56115998  1
  Zn  Zn108  1  0.30847036  0.55967779  0.06304419  1
  Zn  Zn109  1  0.31176845  0.56318264  0.56292780  1
  Zn  Zn110  1  0.81654927  0.08485677  0.06176280  1
  Zn  Zn111  1  0.82034213  0.04597683  0.57171907  1
  Zn  Zn112  1  0.81627808  0.57295996  0.05929519  1
  Zn  Zn113  1  0.81500679  0.56885306  0.55913801  1
  Zn  Zn114  1  0.44617106  0.43190463  0.19724204  1
  Zn  Zn115  1  0.44095106  0.43969077  0.68817004  1
  Zn  Zn116  1  0.43740618  0.93663469  0.18502851  1
  Zn  Zn117  1  0.43645204  0.94426501  0.68465277  1
  Zn  Zn118  1  0.93101887  0.43102745  0.17267054  1
  Zn  Zn119  1  0.94286959  0.43359672  0.69378024  1
  Zn  Zn120  1  0.93307632  0.93082213  0.18638237  1
  Zn  Zn121  1  0.93165899  0.92679293  0.67975314  1
  Zn  Zn122  1  0.06562172  0.04479906  0.33465796  1
  Zn  Zn123  1  0.08652991  0.06195833  0.79270740  1
  Zn  Zn124  1  0.05863744  0.56301787  0.30186170  1
  Zn  Zn125  1  0.02963734  0.60465371  0.85655613  1
  Zn  Zn126  1  0.56466120  0.05920049  0.31738065  1
  Zn  Zn127  1  0.52801420  0.08528884  0.82971063  1
  Zn  Zn128  1  0.56396522  0.55686973  0.31191937  1
  Zn  Zn129  1  0.56868634  0.55800471  0.80820891  1
  Zn  Zn130  1  0.44043369  0.19133704  0.43126157  1
  Zn  Zn131  1  0.42974028  0.18046495  0.94369828  1
  Zn  Zn132  1  0.43272636  0.68495763  0.43447632  1
  Zn  Zn133  1  0.43650492  0.68497896  0.93661805  1
  Zn  Zn134  1  0.94608372  0.17320531  0.44207801  1
  Zn  Zn135  1  0.94369251  0.20295344  0.94468151  1
  Zn  Zn136  1  0.90728624  0.72489431  0.40764921  1
  Zn  Zn137  1  0.92757119  0.70819911  0.93810106  1
  Zn  Zn138  1  0.05772328  0.31533168  0.07047629  1
  Zn  Zn139  1  0.07598501  0.30599075  0.56501726  1
  Zn  Zn140  1  0.05865333  0.81666139  0.06203384  1
  Zn  Zn141  1  0.06238623  0.80359621  0.56322279  1
  Zn  Zn142  1  0.55674556  0.31769030  0.07091298  1
  Zn  Zn143  1  0.57797004  0.28224537  0.56632119  1
  Zn  Zn144  1  0.59328313  0.80262866  0.07487808  1
  Zn  Zn145  1  0.56126759  0.81131872  0.56970125  1
  O  O146  1  0.12499768  0.11378458  0.13368738  1
  O  O147  1  0.13525546  0.14293123  0.62046689  1
  O  O148  1  0.11545156  0.59436891  0.14284235  1
  O  O149  1  0.10986428  0.60630423  0.65492595  1
  O  O150  1  0.61770610  0.11433083  0.14077479  1
  O  O151  1  0.61628075  0.17525469  0.61154175  1
  O  O152  1  0.61396915  0.60873424  0.12660949  1
  O  O153  1  0.61285693  0.60718257  0.62552038  1
  O  O154  1  0.39220414  0.38195968  0.36882854  1
  O  O155  1  0.38063548  0.38119042  0.88361649  1
  O  O156  1  0.38480489  0.88367749  0.36688173  1
  O  O157  1  0.37626402  0.87651795  0.89556435  1
  O  O158  1  0.89262043  0.36441710  0.39357682  1
  O  O159  1  0.89993140  0.38034890  0.85449349  1
  O  O160  1  0.88058688  0.84143970  0.39052544  1
  O  O161  1  0.81779987  0.89259570  0.90876167  1
  O  O162  1  0.25401537  0.00667606  0.36464022  1
  O  O163  1  0.26557420  0.01093754  0.92582061  1
  O  O164  1  0.26242180  0.50344607  0.36337794  1
  O  O165  1  0.26445744  0.51304989  0.88782378  1
  O  O166  1  0.74019185  0.00643821  0.36827684  1
  O  O167  1  0.71841714  0.02835242  0.84381944  1
  O  O168  1  0.75669180  0.51175739  0.38786622  1
  O  O169  1  0.74788848  0.50082022  0.85959776  1
  O  O170  1  0.24092304  0.49884779  0.13409583  1
  O  O171  1  0.24194777  0.48734179  0.61304338  1
  O  O172  1  0.24587346  0.99141187  0.13458677  1
  O  O173  1  0.28799868  0.93469971  0.61964666  1
  O  O174  1  0.73448789  0.50319229  0.11269782  1
  O  O175  1  0.74296009  0.49194947  0.63053017  1
  O  O176  1  0.73702531  1.00613177  0.14574947  1
  O  O177  1  0.72185212  1.04609233  0.65896798  1
  O  O178  1  -0.01351247  0.37315420  0.26008697  1
  O  O179  1  0.02001146  0.36887714  0.75210953  1
  O  O180  1  0.01375280  0.86265060  0.24417862  1
  O  O181  1  0.02932704  0.89566760  0.73714990  1
  O  O182  1  0.52193162  0.37779978  0.26456006  1
  O  O183  1  0.50110338  0.36442367  0.75724146  1
  O  O184  1  0.49915442  0.86577105  0.25555706  1
  O  O185  1  0.49697742  0.85720320  0.73514508  1
  O  O186  1  0.48868900  0.11679863  0.24655524  1
  O  O187  1  0.49602142  0.14090205  0.72582664  1
  O  O188  1  0.49330365  0.62747642  0.24606234  1
  O  O189  1  0.49361466  0.62934786  0.74496301  1
  O  O190  1  0.98607539  0.10228797  0.28142129  1
  O  O191  1  0.99890217  0.13603405  0.75912255  1
  O  O192  1  0.98232413  0.63406435  0.25136024  1
  O  O193  1  1.03993456  0.58317086  0.68927597  1
  O  O194  1  0.36502345  0.25375439  0.00847737  1
  O  O195  1  0.36497109  0.25845311  0.48486554  1
  O  O196  1  0.38071934  0.75894846  0.00461116  1
  O  O197  1  0.36022756  0.74662333  0.49612183  1
  O  O198  1  0.86594095  0.27294640  -0.01460450  1
  O  O199  1  0.87943879  0.24818201  0.51491823  1
  O  O200  1  0.86153093  0.77550852  -0.00685192  1
  O  O201  1  0.85436153  0.75891219  0.50168838  1
  O  O202  1  0.13767288  0.23833859  0.49144656  1
  O  O203  1  0.13510168  0.24345779  1.01013457  1
  O  O204  1  0.12608021  0.74560796  0.47983515  1
  O  O205  1  0.13160472  0.75037040  0.99603388  1
  O  O206  1  0.64789359  0.26003792  0.47913310  1
  O  O207  1  0.65620283  0.28971985  1.00383640  1
  O  O208  1  0.62763136  0.74781638  0.50156324  1
  O  O209  1  0.63115751  0.74972243  0.98281371  1
  O  O210  1  0.49179863  0.23649888  0.11689301  1
  O  O211  1  0.47878437  0.27196069  0.62421855  1
  O  O212  1  0.50878560  0.73472648  0.13628696  1
  O  O213  1  0.50172103  0.72920228  0.63133021  1
  O  O214  1  0.96721667  0.25796073  0.10866568  1
  O  O215  1  0.99400763  0.25417859  0.63911948  1
  O  O216  1  1.00649848  0.74443113  0.13450421  1
  O  O217  1  0.99077104  0.72765255  0.62479703  1
  O  O218  1  0.01353500  0.24774546  0.38142009  1
  O  O219  1  0.00467515  0.26409046  0.86068713  1
  O  O220  1  0.01587385  0.73913591  0.36297061  1
  O  O221  1  -0.01123024  0.70656906  0.84437863  1
  O  O222  1  0.51619242  0.25783777  0.37266604  1
  O  O223  1  0.49709505  0.26291438  0.88945319  1
  O  O224  1  0.49205254  0.76091913  0.36849738  1
  O  O225  1  0.50224214  0.74316571  0.85966489  1
  O  O226  1  0.25471340  0.14576549  0.48999785  1
  O  O227  1  0.24048020  0.14175519  1.01136886  1
  O  O228  1  0.25523857  0.62517963  0.48003088  1
  O  O229  1  0.25563804  0.63571438  0.99378454  1
  O  O230  1  0.76285538  0.13158289  0.49792866  1
  O  O231  1  0.74632368  0.11732185  0.97392718  1
  O  O232  1  0.75191303  0.63359607  0.49094880  1
  O  O233  1  0.74841367  0.62789740  0.98200546  1
  O  O234  1  0.26161644  0.36815841  -0.00125901  1
  O  O235  1  0.24437519  0.36764137  0.50525543  1
  O  O236  1  0.25383561  0.85573979  0.00618480  1
  O  O237  1  0.24398053  0.85440511  0.48628091  1
  O  O238  1  0.71090754  0.34358144  0.00371942  1
  O  O239  1  0.76947393  0.36154371  0.50729994  1
  O  O240  1  0.75154091  0.88057239  -0.03969209  1
  O  O241  1  0.73891070  0.86067571  0.49750211  1
  O  O242  1  0.14394573  0.49370429  0.25962450  1
  O  O243  1  0.14567213  0.48653799  0.75349189  1
  O  O244  1  0.13515358  0.98962702  0.24776071  1
  O  O245  1  0.14772137  0.99118765  0.73542870  1
  O  O246  1  0.62831642  0.49184528  0.23749404  1
  O  O247  1  0.63039391  0.48417955  0.73621675  1
  O  O248  1  0.62986363  0.99215754  0.24869987  1
  O  O249  1  0.57854131  0.99927882  0.74309085  1
  O  O250  1  0.36700890  0.00530844  0.25569129  1
  O  O251  1  0.37768085  0.01067137  0.75384988  1
  O  O252  1  0.36893131  0.50415124  0.25425695  1
  O  O253  1  0.38154359  0.50791315  0.76344736  1
  O  O254  1  0.85770629  -0.01932156  0.26067024  1
  O  O255  1  0.86806601  0.02079173  0.74975266  1
  O  O256  1  0.87839625  0.50720534  0.24422063  1
  O  O257  1  0.85852364  0.49640070  0.73962616  1
  O  O258  1  0.11078904  0.36066492  0.37798326  1
  O  O259  1  0.12236738  0.37458999  0.85918201  1
  O  O260  1  0.13924850  0.85177985  0.35816098  1
  O  O261  1  0.08675833  0.91153737  0.88629098  1
  O  O262  1  0.62400395  0.36996210  0.36567187  1
  O  O263  1  0.61198065  0.38450096  0.86257038  1
  O  O264  1  0.60122433  0.88356041  0.36195008  1
  O  O265  1  0.62381698  0.87523225  0.84219040  1
  O  O266  1  0.38268803  0.13125989  0.13400454  1
  O  O267  1  0.35514686  0.11296164  0.63933472  1
  O  O268  1  0.38542292  0.61554114  0.13384988  1
  O  O269  1  0.38877998  0.60818577  0.63628350  1
  O  O270  1  0.88809732  0.09848878  0.15467715  1
  O  O271  1  0.87609068  0.13709329  0.63422356  1
  O  O272  1  0.85343541  0.63269164  0.14764548  1
  O  O273  1  0.89096976  0.63884794  0.62581870  1
  O  O274  1  0.26423556  0.25193646  0.11993148  1
  O  O275  1  0.25609551  0.26331860  0.60802150  1
  O  O276  1  0.24139995  0.75063490  0.11390663  1
  O  O277  1  0.23778162  0.72863449  0.60029991  1
  O  O278  1  0.78503483  0.20810297  0.11116279  1
  O  O279  1  0.76805844  0.25780897  0.62140809  1
  O  O280  1  0.70168288  0.76524518  0.11918586  1
  O  O281  1  0.74606653  0.74667116  0.60918631  1
  O  O282  1  0.24264635  0.24842239  0.38108744  1
  O  O283  1  0.25358039  0.25249577  0.89362343  1
  O  O284  1  0.24605865  0.73251404  0.37646300  1
  O  O285  1  0.25568714  0.73635078  0.89150150  1
  O  O286  1  0.75202309  0.24009197  0.38157645  1
  O  O287  1  0.74290397  0.24586883  0.86944316  1
  O  O288  1  0.73999407  0.73737647  0.38633831  1
  O  O289  1  0.74936388  0.73365031  0.84767714  1
  O  O290  1  0.01667687  0.13645169  0.00144274  1
  O  O291  1  0.03035477  0.11377304  0.49896769  1
  O  O292  1  -0.01040112  0.61033596  -0.01590515  1
  O  O293  1  -0.05453165  0.67481516  0.58149356  1
  O  O294  1  0.49593230  0.10805148  0.01648235  1
  O  O295  1  0.49856525  0.11508317  0.49044514  1
  O  O296  1  0.49906815  0.61470587  0.00821325  1
  O  O297  1  0.49205933  0.62367270  0.51186801  1
  O  O298  1  0.51683298  0.36787621  0.48102717  1
  O  O299  1  0.49110071  0.38194371  0.99599941  1
  O  O300  1  0.50085977  0.87725441  0.48746071  1
  O  O301  1  0.49558410  0.87672692  1.01888590  1
  O  O302  1  0.99487099  0.37199122  0.50905530  1
  O  O303  1  1.00857891  0.38212869  0.97885252  1
  O  O304  1  0.98515292  0.87888775  0.51936003  1
  O  O305  1  0.98568061  0.87903289  1.00485911  1
  O  O306  1  0.49101731  0.49130624  0.37407551  1
  O  O307  1  0.49208679  0.49334369  0.88556648  1
  O  O308  1  0.49003579  0.99197501  0.38211412  1
  O  O309  1  0.52476828  0.99295592  0.90658729  1
  O  O310  1  1.00589186  0.48407968  0.36837908  1
  O  O311  1  1.00713446  0.49417774  0.88109902  1
  O  O312  1  1.06582443  0.97937819  0.42705653  1
  O  O313  1  1.03819336  0.96922686  0.87635890  1
  O  O314  1  0.01684576  -0.00541951  0.13856191  1
  O  O315  1  0.00118788  0.00444403  0.61054506  1
  O  O316  1  0.00304138  0.49138363  0.10119097  1
  O  O317  1  0.01236056  0.51725966  0.64371220  1
  O  O318  1  0.50938429  0.00907990  0.12759111  1
  O  O319  1  0.49385527  -0.00047656  0.60217445  1
  O  O320  1  0.50385143  0.50455758  0.11866246  1
  O  O321  1  0.51198974  0.50193124  0.62414981  1
  O  O322  1  0.25909620  0.38446148  0.25083633  1
  O  O323  1  0.24398556  0.35910961  0.73519951  1
  O  O324  1  0.24734909  0.87740899  0.24277294  1
  O  O325  1  0.23112970  0.85824245  0.75632822  1
  O  O326  1  0.74059680  0.37797212  0.26347562  1
  O  O327  1  0.74566408  0.37849528  0.74296712  1
  O  O328  1  0.73030718  0.88173957  0.26477006  1
  O  O329  1  0.73786454  0.90724502  0.74372317  1
  O  O330  1  0.25832657  0.11690598  0.25499702  1
  O  O331  1  0.27162361  0.14198883  0.76894461  1
  O  O332  1  0.25960827  0.61682687  0.25554538  1
  O  O333  1  0.26077887  0.63765908  0.76484848  1
  O  O334  1  0.76592901  0.10863551  0.26085756  1
  O  O335  1  0.77130220  0.13894249  0.76807210  1
  O  O336  1  0.75383144  0.62267759  0.26377816  1
  O  O337  1  0.74210931  0.60685839  0.75031030  1
  O  O338  1  0.36692752  0.11978523  0.36634960  1
  O  O339  1  0.41263476  0.10836074  0.85915634  1
  O  O340  1  0.37034679  0.61064288  0.36462333  1
  O  O341  1  0.37180181  0.61685979  0.86787915  1
  O  O342  1  0.86385161  0.12780011  0.37174640  1
  O  O343  1  0.88763123  0.12870777  0.87036971  1
  O  O344  1  0.86276593  0.63179606  0.35739356  1
  O  O345  1  0.85650877  0.61849824  0.87159620  1
  O  O346  1  0.11787522  0.39344773  0.12814318  1
  O  O347  1  0.13307045  0.37974011  0.63455663  1
  O  O348  1  0.13716751  0.88254162  0.13078414  1
  O  O349  1  0.13631546  0.87739336  0.61134510  1
  O  O350  1  0.62321928  0.38406941  0.13868966  1
  O  O351  1  0.63828237  0.37606089  0.62883804  1
  O  O352  1  0.61157045  0.89277267  0.14822697  1
  O  O353  1  0.62634098  0.87473130  0.64289231  1
  O  O354  1  0.12851425  0.24451348  0.26658679  1
  O  O355  1  0.11845608  0.24770088  0.74653112  1
  O  O356  1  0.11761424  0.75031384  0.25066425  1
  O  O357  1  0.10829153  0.77414493  0.73512014  1
  O  O358  1  0.64106837  0.26054311  0.25464073  1
  O  O359  1  0.60680325  0.26262869  0.74250447  1
  O  O360  1  0.61059517  0.76318426  0.25392881  1
  O  O361  1  0.60806830  0.74618322  0.74651934  1
  O  O362  1  0.37081448  0.23775998  0.24426653  1
  O  O363  1  0.39261769  0.24072896  0.75585660  1
  O  O364  1  0.38311409  0.73604938  0.25486198  1
  O  O365  1  0.38608346  0.73792154  0.75401775  1
  O  O366  1  0.88018432  0.23190040  0.25023103  1
  O  O367  1  0.88898440  0.24226076  0.74453144  1
  O  O368  1  0.89018846  0.76100002  0.24654592  1
  O  O369  1  0.89214448  0.82736249  0.73508579  1
  O  O370  1  0.37091990  0.49997824  0.48162954  1
  O  O371  1  0.38204371  0.49201662  0.99750092  1
  O  O372  1  0.37666734  1.00529739  0.48524026  1
  O  O373  1  0.39629805  0.98479736  1.01099714  1
  O  O374  1  0.87961029  0.48375391  0.51343757  1
  O  O375  1  0.88055095  0.49698821  1.00006596  1
  O  O376  1  0.89852477  1.01402112  0.48322031  1
  O  O377  1  0.86762394  0.99341470  1.01227690  1
  O  O378  1  0.12839738  0.01538104  0.02005187  1
  O  O379  1  0.18185053  0.02850999  0.52550245  1
  O  O380  1  0.12606942  0.50290733  0.00533537  1
  O  O381  1  0.12351796  0.51648671  0.48057572  1
  O  O382  1  0.62058549  -0.01192019  0.02591186  1
  O  O383  1  0.60921360  0.00401168  0.49253619  1
  O  O384  1  0.61279377  0.49430841  0.01157960  1
  O  O385  1  0.63221717  0.48672306  0.51439230  1
  O  O386  1  0.38952410  0.36380368  0.11710637  1
  O  O387  1  0.35981488  0.38699386  0.62915923  1
  O  O388  1  0.36174799  0.87595542  0.11647665  1
  O  O389  1  0.34695012  0.88757570  0.62403155  1
  O  O390  1  0.84911105  0.37006524  0.12225645  1
  O  O391  1  0.87414812  0.36548225  0.62136197  1
  O  O392  1  0.86498063  0.87561529  0.11599883  1
  O  O393  1  0.83855576  0.93339910  0.60468403  1
  O  O394  1  0.14107277  0.13163635  0.37853307  1
  O  O395  1  0.12331466  0.11621378  0.89000935  1
  O  O396  1  0.13827026  0.63205632  0.35964294  1
  O  O397  1  0.14537314  0.61563636  0.86880180  1
  O  O398  1  0.64026343  0.13547708  0.36393407  1
  O  O399  1  0.61725692  0.14390250  0.87388423  1
  O  O400  1  0.63776515  0.61689258  0.37019001  1
  O  O401  1  0.63616748  0.62020880  0.87408959  1
