# generated using pymatgen
data_V73Zn73O256
_symmetry_space_group_name_H-M   'P 1'
_cell_length_a   17.00258644
_cell_length_b   16.93509509
_cell_length_c   16.98934964
_cell_angle_alpha   90.31631990
_cell_angle_beta   89.84113253
_cell_angle_gamma   89.89827158
_symmetry_Int_Tables_number   1
_chemical_formula_structural   V73Zn73O256
_chemical_formula_sum   'V73 Zn73 O256'
_cell_volume   4891.81923847
_cell_formula_units_Z   1
loop_
 _symmetry_equiv_pos_site_id
 _symmetry_equiv_pos_as_xyz
  1  'x, y, z'
loop_
 _atom_site_type_symbol
 _atom_site_label
 _atom_site_symmetry_multiplicity
 _atom_site_fract_x
 _atom_site_fract_y
 _atom_site_fract_z
 _atom_site_occupancy
  V  V0  1  0.24825866  0.62106562  0.38613162  1
  V  V1  1  0.74634279  0.49728253  0.24873181  1
  V  V2  1  0.89984981  0.74542445  0.61601491  1
  V  V3  1  -0.00291797  0.49559051  0.00233244  1
  V  V4  1  0.25306281  0.22538011  0.49204141  1
  V  V5  1  0.49977519  -0.02289826  0.49064626  1
  V  V6  1  0.39101676  0.62771188  0.75256500  1
  V  V7  1  -0.00191931  0.25188200  0.25444504  1
  V  V8  1  0.87177228  0.11904218  0.25240617  1
  V  V9  1  0.74790206  0.12618852  0.37633879  1
  V  V10  1  0.24689277  0.49794332  0.24961902  1
  V  V11  1  0.62584768  0.12985697  0.49984523  1
  V  V12  1  0.12042564  0.61970310  -0.02061719  1
  V  V13  1  0.85942175  0.12210414  0.74239422  1
  V  V14  1  0.50099587  0.25662152  0.74943240  1
  V  V15  1  0.12458217  0.74998861  0.38142301  1
  V  V16  1  0.74224567  0.26673927  0.00566790  1
  V  V17  1  0.58331226  0.81168000  0.28883167  1
  V  V18  1  0.86676965  0.50139482  0.87288394  1
  V  V19  1  0.36617004  0.01595957  0.37671815  1
  V  V20  1  0.63844877  -0.01829318  0.62775242  1
  V  V21  1  0.88355484  0.49847930  0.37396926  1
  V  V22  1  0.37778186  0.86021693  0.01072430  1
  V  V23  1  0.61890479  0.51240224  0.12292342  1
  V  V24  1  -0.00323613  0.11869334  0.11411946  1
  V  V25  1  0.38399855  0.75956949  0.62235216  1
  V  V26  1  0.87177329  0.84765223  0.02538018  1
  V  V27  1  0.12051833  0.50703979  0.12396523  1
  V  V28  1  0.74671253  0.50722032  0.74349554  1
  V  V29  1  0.37288259  0.49788056  0.37235808  1
  V  V30  1  0.87182774  -0.02463920  0.37678515  1
  V  V31  1  0.71874732  0.74635095  0.50584465  1
  V  V32  1  0.62740958  0.24097063  0.87496141  1
  V  V33  1  0.12728080  0.23183416  0.37770448  1
  V  V34  1  0.50191664  0.01119099  0.00651059  1
  V  V35  1  0.49101922  0.51054564  0.01066212  1
  V  V36  1  0.25584185  0.13325265  0.87811017  1
  V  V37  1  0.82806882  0.01786142  0.88071849  1
  V  V38  1  0.49868677  0.37313088  0.37205318  1
  V  V39  1  0.49902285  0.38168150  0.87869216  1
  V  V40  1  0.12372333  0.24932273  0.87410871  1
  V  V41  1  0.37643664  0.23517352  0.13182908  1
  V  V42  1  0.50797938  0.51720843  0.50499534  1
  V  V43  1  0.37170620  0.37311555  0.49934336  1
  V  V44  1  0.24011357  0.49839843  0.75036762  1
  V  V45  1  0.73513253  0.62243766  0.38395633  1
  V  V46  1  0.51639425  0.86396460  0.87353894  1
  V  V47  1  0.72869098  -0.00483472  0.23577219  1
  V  V48  1  0.86660804  0.25862577  0.12671325  1
  V  V49  1  0.37510255  0.25068219  0.62310868  1
  V  V50  1  0.12046655  0.61276576  0.51114813  1
  V  V51  1  0.03069389  0.74145166  0.24340475  1
  V  V52  1  0.62275447  0.37337894  0.24115756  1
  V  V53  1  0.87818452  0.25138127  0.62706813  1
  V  V54  1  0.38400105  0.12509472  0.75322958  1
  V  V55  1  0.50519615  0.12361950  0.62563029  1
  V  V56  1  0.49714924  0.22647142  0.24990475  1
  V  V57  1  0.00091031  0.49025568  0.51544961  1
  V  V58  1  0.87120911  0.36877976  0.48997311  1
  V  V59  1  0.62675404  0.12605274  0.02455073  1
  V  V60  1  0.87489526  0.63065760  0.25127734  1
  V  V61  1  0.24372639  0.00142475  0.74382540  1
  V  V62  1  0.74423408  0.37364178  0.61805447  1
  V  V63  1  -0.00706401  0.36376575  0.86790654  1
  V  V64  1  0.37531968  0.63057149  0.23840808  1
  V  V65  1  0.13228807  0.12194998  -0.00221821  1
  V  V66  1  0.62349007  0.38425360  0.74585232  1
  V  V67  1  0.62754580  0.24991088  0.37863284  1
  V  V68  1  0.37091546  0.36478317  0.00047515  1
  V  V69  1  0.12190073  0.37092273  0.25660526  1
  V  V70  1  0.89111278  0.62059060  0.73634940  1
  V  V71  1  0.24573917  0.36329115  0.12077288  1
  V  V72  1  0.24069848  0.73332203  -0.00125493  1
  Zn  Zn73  1  0.90717994  0.72118885  0.11734700  1
  Zn  Zn74  1  0.86675044  0.37546530  0.00046663  1
  Zn  Zn75  1  0.38997222  -0.00719220  0.87170956  1
  Zn  Zn76  1  0.33156661  0.80961918  0.45264697  1
  Zn  Zn77  1  0.17313977  0.93692449  0.15906022  1
  Zn  Zn78  1  0.11925345  0.36597280  0.73589375  1
  Zn  Zn79  1  0.36616679  0.51396777  0.87975678  1
  Zn  Zn80  1  0.81675891  0.89823597  0.54797300  1
  Zn  Zn81  1  0.22841539  0.38113936  0.61741894  1
  Zn  Zn82  1  0.18266659  0.18039848  0.18391555  1
  Zn  Zn83  1  0.19963904  0.18827526  0.69067955  1
  Zn  Zn84  1  0.24246007  0.76989653  0.20883063  1
  Zn  Zn85  1  0.23284392  0.66368567  0.66646377  1
  Zn  Zn86  1  0.68753115  0.18937387  0.19440912  1
  Zn  Zn87  1  0.68896359  0.19466529  0.68528449  1
  Zn  Zn88  1  0.65012264  0.71842987  0.15284463  1
  Zn  Zn89  1  0.74528212  0.72777955  0.72369052  1
  Zn  Zn90  1  0.30970755  0.30569789  0.30993642  1
  Zn  Zn91  1  0.30791544  0.31812762  0.81148597  1
  Zn  Zn92  1  0.41916164  0.81666571  0.29925473  1
  Zn  Zn93  1  0.32329001  0.81027085  0.81689553  1
  Zn  Zn94  1  0.80818659  0.31318163  0.31002896  1
  Zn  Zn95  1  0.80125980  0.29901459  0.80372199  1
  Zn  Zn96  1  0.77463961  0.80338027  0.30282336  1
  Zn  Zn97  1  0.95445422  0.85341683  0.86164946  1
  Zn  Zn98  1  0.18393045  0.43007361  0.43879399  1
  Zn  Zn99  1  0.18608985  0.43194635  0.93315672  1
  Zn  Zn100  1  0.23572333  0.90155567  0.35538049  1
  Zn  Zn101  1  0.22404156  0.90965563  0.90134245  1
  Zn  Zn102  1  0.68659240  0.43968433  0.43434462  1
  Zn  Zn103  1  0.64918075  0.50485459  0.90246676  1
  Zn  Zn104  1  0.67892610  0.94019224  0.43012857  1
  Zn  Zn105  1  0.68890013  0.93108843  0.96503749  1
  Zn  Zn106  1  0.30998127  0.05166365  0.05366570  1
  Zn  Zn107  1  0.31359283  -0.05859956  0.56034330  1
  Zn  Zn108  1  0.30345759  0.55501794  0.06246094  1
  Zn  Zn109  1  0.32426013  0.55583500  0.56914627  1
  Zn  Zn110  1  0.80588959  0.07656655  0.06529586  1
  Zn  Zn111  1  0.81027915  0.06645186  0.55588189  1
  Zn  Zn112  1  0.81224258  0.55117281  0.07089916  1
  Zn  Zn113  1  0.81050077  0.56188029  0.56070305  1
  Zn  Zn114  1  0.43325191  0.43016137  0.18645446  1
  Zn  Zn115  1  0.43506153  0.44660470  0.68672797  1
  Zn  Zn116  1  0.33312475  0.94455300  0.19864564  1
  Zn  Zn117  1  0.45291872  0.93433269  0.69082008  1
  Zn  Zn118  1  0.93861430  0.43740532  0.19006189  1
  Zn  Zn119  1  0.93211660  0.42697131  0.68658090  1
  Zn  Zn120  1  0.98526104  0.90622749  0.16810817  1
  Zn  Zn121  1  0.84054103  0.91443783  0.72510518  1
  Zn  Zn122  1  0.04840464  0.05881511  0.31733848  1
  Zn  Zn123  1  0.06018332  0.08726807  0.69654177  1
  Zn  Zn124  1  0.06194430  0.56278740  0.31292119  1
  Zn  Zn125  1  0.05881837  0.54738484  0.80777571  1
  Zn  Zn126  1  0.51700672  0.00468504  0.27214516  1
  Zn  Zn127  1  0.61216268  0.02629740  0.83492703  1
  Zn  Zn128  1  0.55415754  0.56472338  0.30953360  1
  Zn  Zn129  1  0.57523419  0.67827616  0.80770707  1
  Zn  Zn130  1  0.44437447  0.18509776  0.43810099  1
  Zn  Zn131  1  0.44481481  0.19115533  0.94004547  1
  Zn  Zn132  1  0.50747321  0.73149688  0.46635712  1
  Zn  Zn133  1  0.43655354  0.69148593  0.93492776  1
  Zn  Zn134  1  0.93537769  0.19397383  0.43361076  1
  Zn  Zn135  1  0.92498109  0.18407239  0.93427687  1
  Zn  Zn136  1  0.94141797  0.68080955  0.43661172  1
  Zn  Zn137  1  0.94258268  0.68331856  0.92497746  1
  Zn  Zn138  1  0.05629764  0.30737059  0.06091990  1
  Zn  Zn139  1  0.08361756  0.25358520  0.58981640  1
  Zn  Zn140  1  0.06150991  0.91817225  0.01074753  1
  Zn  Zn141  1  0.18967813  0.80081384  0.55005187  1
  Zn  Zn142  1  0.55382073  0.31010225  0.06369108  1
  Zn  Zn143  1  0.55979736  0.31815072  0.56137273  1
  Zn  Zn144  1  0.50606752  0.87620234  0.13107762  1
  Zn  Zn145  1  0.59183516  0.77255850  0.63825813  1
  O  O146  1  0.10683541  0.13754513  0.10833383  1
  O  O147  1  0.11677635  0.15124073  0.62621567  1
  O  O148  1  0.12787010  0.60421663  0.11562001  1
  O  O149  1  0.13702585  0.61988600  0.60727728  1
  O  O150  1  0.61752469  0.13548207  0.12191754  1
  O  O151  1  0.62200878  0.13257268  0.61505152  1
  O  O152  1  0.61114277  0.60946083  0.13426060  1
  O  O153  1  0.63457197  0.72538534  0.72765006  1
  O  O154  1  0.37884372  0.37807787  0.37795050  1
  O  O155  1  0.38495631  0.36487530  0.88655593  1
  O  O156  1  0.35580602  0.87862605  0.36814803  1
  O  O157  1  0.39492352  0.87407569  0.88768051  1
  O  O158  1  0.86232203  0.38395603  0.38404137  1
  O  O159  1  0.88212834  0.37682965  0.87379758  1
  O  O160  1  0.85528187  0.87955966  0.36170666  1
  O  O161  1  0.87609825  0.93276817  0.83800615  1
  O  O162  1  0.26671502  0.01062361  0.37784148  1
  O  O163  1  0.26521823  0.02430379  0.86881050  1
  O  O164  1  0.25476207  0.49444650  0.36756826  1
  O  O165  1  0.25851327  0.47792079  0.85894440  1
  O  O166  1  0.75300414  0.01085339  0.36458851  1
  O  O167  1  0.72665496  0.00383846  0.87472857  1
  O  O168  1  0.75742565  0.50624432  0.37068730  1
  O  O169  1  0.75849579  0.48971307  0.85935375  1
  O  O170  1  0.23835346  0.48455927  0.13265831  1
  O  O171  1  0.26032125  0.49224176  0.64130400  1
  O  O172  1  0.25862774  1.00696275  0.13825130  1
  O  O173  1  0.26938257  0.99697712  0.64781670  1
  O  O174  1  0.72921581  0.50159170  0.13482587  1
  O  O175  1  0.75701367  0.48906805  0.63679212  1
  O  O176  1  0.74751542  1.01606004  0.13846303  1
  O  O177  1  0.74131012  0.98376331  0.60489697  1
  O  O178  1  0.00875654  0.36088795  0.24482554  1
  O  O179  1  0.00161693  0.38131815  0.76632907  1
  O  O180  1  -0.00113667  0.83579245  0.25791159  1
  O  O181  1  0.03063450  0.92862377  0.80070307  1
  O  O182  1  0.50406004  0.37269398  0.26170831  1
  O  O183  1  0.50308445  0.37674214  0.75572868  1
  O  O184  1  0.50334390  0.88589391  0.25378648  1
  O  O185  1  0.51086134  0.88272320  0.77407416  1
  O  O186  1  0.50518743  0.12969367  0.25442231  1
  O  O187  1  0.49834761  0.13862099  0.73884529  1
  O  O188  1  0.47391214  0.62044186  0.25383716  1
  O  O189  1  0.48856888  0.62387087  0.74767387  1
  O  O190  1  0.98915932  0.13630723  0.24579290  1
  O  O191  1  0.96100911  0.11429613  0.73759775  1
  O  O192  1  0.98354277  0.63443822  0.26396970  1
  O  O193  1  0.98913514  0.61008280  0.74412673  1
  O  O194  1  0.38280026  0.25698038  0.01703914  1
  O  O195  1  0.36723597  0.25265863  0.50017352  1
  O  O196  1  0.36274316  0.75541454  0.00185616  1
  O  O197  1  0.39697577  0.74480667  0.51360703  1
  O  O198  1  0.85921950  0.24961319  0.00807846  1
  O  O199  1  0.86518463  0.26629355  0.49131777  1
  O  O200  1  0.88454120  0.74409657  0.00679576  1
  O  O201  1  0.88434786  0.74127811  0.51307378  1
  O  O202  1  0.14147980  0.24927000  0.48384857  1
  O  O203  1  0.11267786  0.23756936  0.98733115  1
  O  O204  1  0.12514413  0.72386569  0.49091991  1
  O  O205  1  0.12912897  0.72202290  0.99253336  1
  O  O206  1  0.61710030  0.24646911  0.48737561  1
  O  O207  1  0.62294661  0.24460632  0.99615431  1
  O  O208  1  0.61717088  0.74164223  0.51767299  1
  O  O209  1  0.65574452  0.70285095  0.95181465  1
  O  O210  1  0.48500454  0.25303486  0.13756708  1
  O  O211  1  0.49601075  0.24572075  0.62840823  1
  O  O212  1  0.61566422  0.73108594  0.00544820  1
  O  O213  1  0.48186946  0.74735903  0.63734098  1
  O  O214  1  0.98882940  0.24154025  0.13508822  1
  O  O215  1  0.97122220  0.24282923  0.59369083  1
  O  O216  1  1.01840288  0.72800730  0.14541356  1
  O  O217  1  0.99427392  0.74359944  0.62645134  1
  O  O218  1  0.01374560  0.24549598  0.36738952  1
  O  O219  1  -0.00293712  0.25949328  0.87776616  1
  O  O220  1  0.02272737  0.73351404  0.37128368  1
  O  O221  1  -0.01467984  0.75127952  0.85095320  1
  O  O222  1  0.50572488  0.25541658  0.36658138  1
  O  O223  1  0.51001668  0.26283334  0.87028041  1
  O  O224  1  0.51587168  0.75739888  0.35005562  1
  O  O225  1  0.50836978  0.75734490  0.87685374  1
  O  O226  1  0.25381096  0.13126553  0.49798292  1
  O  O227  1  0.23859115  0.12449805  0.99524802  1
  O  O228  1  0.24026798  0.59939006  0.48905416  1
  O  O229  1  0.24003330  0.62484486  0.99620103  1
  O  O230  1  0.73661663  0.12375990  0.48770871  1
  O  O231  1  0.72966249  0.14276615  1.00547040  1
  O  O232  1  0.74192247  0.62129781  0.49008691  1
  O  O233  1  0.75261636  0.64924602  1.03745502  1
  O  O234  1  0.25655021  0.37556788  0.01155364  1
  O  O235  1  0.26456903  0.37377502  0.50008278  1
  O  O236  1  0.29022079  0.91095702  -0.00144482  1
  O  O237  1  0.24681135  0.87817356  0.49329561  1
  O  O238  1  0.74616244  0.36611295  0.01477969  1
  O  O239  1  0.76137832  0.39252027  0.50741779  1
  O  O240  1  0.77672082  0.87362594  0.00295864  1
  O  O241  1  0.73261383  0.85028882  0.48782922  1
  O  O242  1  0.12655561  0.49016545  0.24378647  1
  O  O243  1  0.13622144  0.48578156  0.75253664  1
  O  O244  1  0.13579016  1.03084686  0.24327056  1
  O  O245  1  0.14594506  1.02144969  0.73976504  1
  O  O246  1  0.62408751  0.49263504  0.24200764  1
  O  O247  1  0.64084999  0.49300088  0.75501972  1
  O  O248  1  0.63027786  1.00978893  0.24918009  1
  O  O249  1  0.63105355  1.01266240  0.72335822  1
  O  O250  1  0.39613473  0.00062232  0.27473281  1
  O  O251  1  0.38717129  0.01738948  0.75447714  1
  O  O252  1  0.36448615  0.49543348  0.25670036  1
  O  O253  1  0.37085877  0.51365431  0.75359027  1
  O  O254  1  0.86211192  0.01608161  0.26122470  1
  O  O255  1  0.82156598  0.02944183  0.73636186  1
  O  O256  1  0.86609077  0.49819296  0.25641576  1
  O  O257  1  0.86674209  0.50038964  0.75222284  1
  O  O258  1  0.13065431  0.36501003  0.35931379  1
  O  O259  1  0.10698291  0.36491219  0.88085174  1
  O  O260  1  0.13495456  0.84808940  0.38350213  1
  O  O261  1  0.10873971  0.89023649  0.90445120  1
  O  O262  1  0.61590042  0.36824199  0.36741513  1
  O  O263  1  0.60974861  0.38402603  0.86527426  1
  O  O264  1  0.62682244  0.87534195  0.35270465  1
  O  O265  1  0.61357210  0.87214291  0.90210762  1
  O  O266  1  0.36940729  0.13878021  0.12052132  1
  O  O267  1  0.39016326  0.13835589  0.63414758  1
  O  O268  1  0.36132568  0.61293762  0.14124249  1
  O  O269  1  0.36155686  0.63597286  0.64081555  1
  O  O270  1  0.88086778  0.13707033  0.13472033  1
  O  O271  1  0.85077371  0.14448586  0.62766838  1
  O  O272  1  0.87646865  0.61155921  0.14724626  1
  O  O273  1  0.87986546  0.62342550  0.62947056  1
  O  O274  1  0.26094126  0.25435844  0.13918339  1
  O  O275  1  0.26374238  0.24813793  0.60777033  1
  O  O276  1  0.23752799  0.76876625  0.09242048  1
  O  O277  1  0.26628801  0.75648418  0.61803486  1
  O  O278  1  0.75901732  0.24612855  0.12415254  1
  O  O279  1  0.75587471  0.26869035  0.61852790  1
  O  O280  1  0.75067557  0.70315119  0.09450598  1
  O  O281  1  0.75295109  0.73788170  0.60035978  1
  O  O282  1  0.24178176  0.24498892  0.38051243  1
  O  O283  1  0.24240171  0.24260228  0.87455218  1
  O  O284  1  0.24506214  0.72435211  0.38413511  1
  O  O285  1  0.24431985  0.78486309  0.90821033  1
  O  O286  1  0.73512235  0.24311094  0.36638378  1
  O  O287  1  0.73261022  0.26841734  0.89165022  1
  O  O288  1  0.75162799  0.72891819  0.39492721  1
  O  O289  1  0.75639664  0.76182443  0.85660718  1
  O  O290  1  -0.00936116  0.12745441  0.01203543  1
  O  O291  1  -0.01012223  0.10962642  0.50923892  1
  O  O292  1  0.00959102  0.60703049  -0.00888075  1
  O  O293  1  0.01289906  0.60515751  0.49713362  1
  O  O294  1  0.51817782  0.12279208  -0.00370403  1
  O  O295  1  0.51111723  0.12733893  0.51200443  1
  O  O296  1  0.47838796  0.60816243  0.00678925  1
  O  O297  1  0.50334615  0.61464612  0.48583452  1
  O  O298  1  0.48749071  0.37007744  0.48464903  1
  O  O299  1  0.48859394  0.37794776  0.99642552  1
  O  O300  1  0.51044854  0.88066474  0.49417117  1
  O  O301  1  0.48607920  0.88826358  0.99755794  1
  O  O302  1  0.97743883  0.38654322  0.49438191  1
  O  O303  1  0.99305092  0.38092501  0.99095458  1
  O  O304  1  1.02926691  0.95049284  0.56578642  1
  O  O305  1  0.95265792  0.89200185  0.97737475  1
  O  O306  1  0.48914909  0.48990588  0.37800702  1
  O  O307  1  0.49144258  0.48988472  0.89813295  1
  O  O308  1  0.50390198  1.00344685  0.39276254  1
  O  O309  1  0.51459620  0.99105152  0.88991169  1
  O  O310  1  0.98580609  0.49832472  0.37192445  1
  O  O311  1  0.98850481  0.48573844  0.88396481  1
  O  O312  1  0.97193133  0.99235687  0.36430136  1
  O  O313  1  1.07758262  0.95612982  0.85402488  1
  O  O314  1  -0.01187904  0.02148011  0.13542338  1
  O  O315  1  0.00136557  -0.01826923  0.62623945  1
  O  O316  1  0.00773267  0.48728292  0.11261102  1
  O  O317  1  -0.00431627  0.49045432  0.61342012  1
  O  O318  1  0.50582376  -0.00656149  0.10529880  1
  O  O319  1  0.50991117  0.00898054  0.61419450  1
  O  O320  1  0.50456253  0.49053721  0.11839602  1
  O  O321  1  0.48833103  0.50203482  0.60310424  1
  O  O322  1  0.24222939  0.37977854  0.24305362  1
  O  O323  1  0.24719302  0.37715134  0.73838627  1
  O  O324  1  0.24038563  0.88018107  0.23933355  1
  O  O325  1  0.25357266  0.90287509  0.78238907  1
  O  O326  1  0.73519339  0.38699216  0.25882868  1
  O  O327  1  0.74094326  0.37970627  0.73887765  1
  O  O328  1  0.74726622  0.89684241  0.24075032  1
  O  O329  1  0.74470993  0.85033501  0.75708969  1
  O  O330  1  0.19744220  0.08186410  0.24841273  1
  O  O331  1  0.26701599  0.12228301  0.75670574  1
  O  O332  1  0.25301476  0.60415342  0.26337031  1
  O  O333  1  0.24358334  0.60218398  0.75760366  1
  O  O334  1  0.75430296  0.12367885  0.26024622  1
  O  O335  1  0.77139259  0.18290186  0.76054948  1
  O  O336  1  0.76034119  0.60714226  0.26506755  1
  O  O337  1  0.76062798  0.60664961  0.74463310  1
  O  O338  1  0.37862270  0.11617767  0.38171548  1
  O  O339  1  0.37375000  0.14253149  0.86354432  1
  O  O340  1  0.35861453  0.60722864  0.36743606  1
  O  O341  1  0.37462335  0.62998527  0.86006765  1
  O  O342  1  0.86228437  0.13063596  0.36962217  1
  O  O343  1  0.86728232  0.11623013  0.85947583  1
  O  O344  1  0.86686191  0.61427247  0.36912774  1
  O  O345  1  0.87870772  0.60618058  0.85925708  1
  O  O346  1  0.13156524  0.36925702  0.13386756  1
  O  O347  1  0.11836404  0.35431831  0.62230328  1
  O  O348  1  0.08534907  0.88963316  0.11445372  1
  O  O349  1  0.11953376  0.85412991  0.65446804  1
  O  O350  1  0.61552446  0.37523349  0.13921689  1
  O  O351  1  0.62860739  0.37231798  0.63547565  1
  O  O352  1  0.57255938  0.79621317  0.17042856  1
  O  O353  1  0.61749689  0.88540766  0.62694671  1
  O  O354  1  0.11936214  0.25045443  0.25895739  1
  O  O355  1  0.12734086  0.24800810  0.76957189  1
  O  O356  1  0.13577359  0.73629802  0.26565886  1
  O  O357  1  0.11660487  0.81485833  0.71581475  1
  O  O358  1  0.61431068  0.25604143  0.25817744  1
  O  O359  1  0.61947739  0.26583038  0.75794382  1
  O  O360  1  0.66861691  0.75160625  0.26550504  1
  O  O361  1  0.74942089  0.83575990  0.83988548  1
  O  O362  1  0.38299081  0.24992648  0.24154143  1
  O  O363  1  0.38114169  0.24860415  0.74011833  1
  O  O364  1  0.35236388  0.73318289  0.24787482  1
  O  O365  1  0.36465760  0.73655826  0.74326223  1
  O  O366  1  0.87900986  0.24604366  0.24762184  1
  O  O367  1  0.88916040  0.26693096  0.72619840  1
  O  O368  1  0.85753857  0.73014972  0.24981551  1
  O  O369  1  0.86593565  0.72474995  0.73237875  1
  O  O370  1  0.38233135  0.49075690  0.48851881  1
  O  O371  1  0.37883279  0.48536186  1.00419839  1
  O  O372  1  0.39180982  0.99225085  0.49045769  1
  O  O373  1  0.39901703  1.02593535  0.98763459  1
  O  O374  1  0.88491907  0.49935691  0.49239544  1
  O  O375  1  0.87697720  0.49773344  0.99287445  1
  O  O376  1  0.85876276  0.98745818  0.48350998  1
  O  O377  1  0.85066800  1.01821100  0.97770713  1
  O  O378  1  0.11193196  0.02505571  -0.00325217  1
  O  O379  1  0.04138135  0.06093730  0.48568697  1
  O  O380  1  0.11791768  0.49966620  0.00433483  1
  O  O381  1  0.10968753  0.49745022  0.49476306  1
  O  O382  1  0.62272474  0.02000328  0.00460043  1
  O  O383  1  0.61696207  0.00904701  0.50765184  1
  O  O384  1  0.60677353  0.49818616  0.01526706  1
  O  O385  1  0.60412368  0.48835449  0.49350375  1
  O  O386  1  0.36266100  0.36679228  0.11962930  1
  O  O387  1  0.38559343  0.36110254  0.61238448  1
  O  O388  1  0.38779907  0.87411773  0.11472028  1
  O  O389  1  0.38061268  0.86682008  0.63067910  1
  O  O390  1  0.87936330  0.36213810  0.12481788  1
  O  O391  1  0.86619185  0.36850969  0.60952137  1
  O  O392  1  0.88917538  0.85419675  0.12554431  1
  O  O393  1  0.87361077  0.85382746  0.63443010  1
  O  O394  1  0.12064033  0.13361306  0.37372798  1
  O  O395  1  0.13689546  0.13380057  0.88616486  1
  O  O396  1  0.13798713  0.61620460  0.38153586  1
  O  O397  1  0.12394917  0.60756828  0.88203564  1
  O  O398  1  0.63111084  0.13522607  0.38457342  1
  O  O399  1  0.62253630  0.14181401  0.86814789  1
  O  O400  1  0.63755234  0.61449786  0.36832777  1
  O  O401  1  0.61350845  0.61214272  0.88910602  1
