# generated using pymatgen
data_V73Zn73O256
_symmetry_space_group_name_H-M   'P 1'
_cell_length_a   16.92105407
_cell_length_b   16.92778283
_cell_length_c   16.91962223
_cell_angle_alpha   90.08294757
_cell_angle_beta   90.17448784
_cell_angle_gamma   90.07896624
_symmetry_Int_Tables_number   1
_chemical_formula_structural   V73Zn73O256
_chemical_formula_sum   'V73 Zn73 O256'
_cell_volume   4846.35551934
_cell_formula_units_Z   1
loop_
 _symmetry_equiv_pos_site_id
 _symmetry_equiv_pos_as_xyz
  1  'x, y, z'
loop_
 _atom_site_type_symbol
 _atom_site_label
 _atom_site_symmetry_multiplicity
 _atom_site_fract_x
 _atom_site_fract_y
 _atom_site_fract_z
 _atom_site_occupancy
  V  V0  1  0.75718994  0.62761875  0.85824169  1
  V  V1  1  0.13911235  0.12793227  0.50075525  1
  V  V2  1  0.74520496  0.86786293  0.12500817  1
  V  V3  1  0.00144497  0.37546639  0.87049165  1
  V  V4  1  0.48788095  0.61628167  0.60517204  1
  V  V5  1  0.64744774  0.62731157  0.01430873  1
  V  V6  1  0.23681236  0.24248956  0.00078050  1
  V  V7  1  0.38187547  0.37705871  0.48931384  1
  V  V8  1  0.89055445  0.61272139  0.26857113  1
  V  V9  1  0.24875034  0.61662423  0.87219691  1
  V  V10  1  0.75258042  0.00074373  0.25247438  1
  V  V11  1  0.24466583  0.75654566  0.48332554  1
  V  V12  1  0.00920736  0.61933259  0.62569524  1
  V  V13  1  0.87396743  0.37914189  0.00538214  1
  V  V14  1  0.74615652  0.87242533  0.62563121  1
  V  V15  1  0.85688480  0.25112076  0.62431899  1
  V  V16  1  0.86852975  0.00140912  0.87363684  1
  V  V17  1  0.63194286  0.26099271  0.88138741  1
  V  V18  1  0.87082753  0.50449308  0.85955753  1
  V  V19  1  0.13982143  0.24609465  0.38046066  1
  V  V20  1  0.74990832  0.75324114  0.49303090  1
  V  V21  1  0.25474038  0.50612832  0.26044174  1
  V  V22  1  0.00647683  0.23902431  0.25218825  1
  V  V23  1  0.88065532  0.89320800  0.49228526  1
  V  V24  1  0.24253128  0.37274118  0.60362758  1
  V  V25  1  0.36544345  0.76321458  0.61878959  1
  V  V26  1  0.51118673  0.11564266  0.11466161  1
  V  V27  1  0.37779382  0.24001831  0.12509543  1
  V  V28  1  0.01389520  0.75307154  0.74458785  1
  V  V29  1  0.62089296  0.61633215  0.50017830  1
  V  V30  1  0.00709294  0.86882044  0.86732174  1
  V  V31  1  0.50232748  0.62498343  0.12579727  1
  V  V32  1  0.74393304  -0.00020891  0.74917256  1
  V  V33  1  0.87132018  0.86234760  -0.00121068  1
  V  V34  1  0.61259079  0.11260015  0.49745037  1
  V  V35  1  0.38921772  0.02590387  0.87153360  1
  V  V36  1  0.39774042  0.86810660  -0.01704826  1
  V  V37  1  0.61058032  0.87603461  0.25084204  1
  V  V38  1  0.25509118  0.75104710  -0.00794545  1
  V  V39  1  0.26123934  0.04014376  0.28944475  1
  V  V40  1  0.25091776  0.88218305  0.12242571  1
  V  V41  1  0.62539121  0.50021352  0.13166088  1
  V  V42  1  0.62621794  0.74139146  0.88401625  1
  V  V43  1  0.12441131  0.38086909  0.74508819  1
  V  V44  1  0.37231538  0.61636882  0.75019864  1
  V  V45  1  0.12899337  0.61660147  0.48773336  1
  V  V46  1  0.73586197  0.25081094  0.49064222  1
  V  V47  1  0.37695595  0.62631290  0.26366693  1
  V  V48  1  0.63520335  0.37458438  0.26140425  1
  V  V49  1  -0.00736711  0.12208582  0.61138236  1
  V  V50  1  0.13522314  -0.01890388  0.62676925  1
  V  V51  1  0.49538605  0.39216428  0.37044490  1
  V  V52  1  0.12411437  0.37649536  0.25369927  1
  V  V53  1  0.87036770  0.74478737  0.63117280  1
  V  V54  1  0.62438114  0.86086220  0.75257730  1
  V  V55  1  0.37679785  0.24823137  0.63433358  1
  V  V56  1  0.74146647  0.39177532  0.63438222  1
  V  V57  1  0.75669299  0.37932281  0.13335735  1
  V  V58  1  0.87679769  0.23793810  0.11750774  1
  V  V59  1  0.12707744  0.50840990  0.12529180  1
  V  V60  1  0.25527625  0.37751745  0.12255081  1
  V  V61  1  0.39441529  0.00090930  0.39026894  1
  V  V62  1  0.49970620  0.24205577  0.25911856  1
  V  V63  1  0.22973435  0.12860549  0.86230866  1
  V  V64  1  0.60531270  0.75244178  0.37042688  1
  V  V65  1  0.38498941  0.38653909  -0.00951369  1
  V  V66  1  0.12643612  0.63179516  -0.00608062  1
  V  V67  1  0.01251012  -0.00029763  -0.00093142  1
  V  V68  1  0.38091713  0.74979880  0.12657230  1
  V  V69  1  0.89149140  0.74979462  0.14377386  1
  V  V70  1  0.49636892  0.74563412  0.75690380  1
  V  V71  1  0.00034157  0.50854217  0.00465336  1
  V  V72  1  0.00039700  0.24470142  0.75178730  1
  Zn  Zn73  1  0.23741910  0.50453928  0.74217018  1
  Zn  Zn74  1  0.58881311  0.45888193  0.67447638  1
  Zn  Zn75  1  0.75289042  0.61951384  0.37161195  1
  Zn  Zn76  1  0.86469734  0.12722920  0.75442795  1
  Zn  Zn77  1  0.50397082  -0.02772764  0.54434357  1
  Zn  Zn78  1  0.90544903  0.09800486  0.27550231  1
  Zn  Zn79  1  0.06163698  0.16018759  0.06786460  1
  Zn  Zn80  1  0.75050962  0.11215262  0.37784291  1
  Zn  Zn81  1  0.49272383  0.13167669  0.62828453  1
  Zn  Zn82  1  0.19316125  0.17980420  0.19118820  1
  Zn  Zn83  1  0.18500626  0.19275946  0.68254997  1
  Zn  Zn84  1  0.19268409  0.69217724  0.18611238  1
  Zn  Zn85  1  0.18530968  0.69245234  0.68062883  1
  Zn  Zn86  1  0.68596903  0.18952791  0.18464764  1
  Zn  Zn87  1  0.66496765  0.17677100  0.69063733  1
  Zn  Zn88  1  0.70155378  0.68843982  0.19826452  1
  Zn  Zn89  1  0.64808827  0.63356536  0.71457363  1
  Zn  Zn90  1  0.31397639  0.30901821  0.30753117  1
  Zn  Zn91  1  0.30910605  0.30704922  0.81754695  1
  Zn  Zn92  1  0.30750431  0.81710624  0.31114171  1
  Zn  Zn93  1  0.31118757  0.80596165  0.80905617  1
  Zn  Zn94  1  0.81816645  0.26980187  0.30863039  1
  Zn  Zn95  1  0.81802512  0.32801171  0.80076925  1
  Zn  Zn96  1  0.81282702  0.81987920  0.31603170  1
  Zn  Zn97  1  0.81317957  0.81002792  0.81344962  1
  Zn  Zn98  1  0.17459971  0.44078253  0.43290749  1
  Zn  Zn99  1  0.19026350  0.43624119  0.93730677  1
  Zn  Zn100  1  0.18251039  0.94985667  0.44401460  1
  Zn  Zn101  1  0.20852940  0.92836081  0.90362944  1
  Zn  Zn102  1  0.68617650  0.42534523  0.45099794  1
  Zn  Zn103  1  0.69475496  0.44898578  0.94715280  1
  Zn  Zn104  1  0.67925983  0.93587161  0.43534249  1
  Zn  Zn105  1  0.68933789  0.92622925  0.93332930  1
  Zn  Zn106  1  0.32114335  0.05501387  0.04239448  1
  Zn  Zn107  1  0.31669274  0.05565707  0.56281795  1
  Zn  Zn108  1  0.31309627  0.56474819  0.06413487  1
  Zn  Zn109  1  0.30456201  0.55744522  0.55508351  1
  Zn  Zn110  1  0.81330457  0.04448230  0.06632100  1
  Zn  Zn111  1  0.80045839  0.06753881  0.56701673  1
  Zn  Zn112  1  0.82260320  0.56360184  0.08581044  1
  Zn  Zn113  1  0.81026611  0.56811256  0.56082962  1
  Zn  Zn114  1  0.43820278  0.43965561  0.18646791  1
  Zn  Zn115  1  0.42133676  0.43074014  0.68377469  1
  Zn  Zn116  1  0.42283856  0.94368824  0.19059749  1
  Zn  Zn117  1  0.41908416  0.93951913  0.70264006  1
  Zn  Zn118  1  0.94453640  0.43633943  0.19086257  1
  Zn  Zn119  1  0.95445259  0.41833943  0.63716732  1
  Zn  Zn120  1  0.93883235  0.93592000  0.18478418  1
  Zn  Zn121  1  0.93715056  0.93581912  0.68021090  1
  Zn  Zn122  1  0.12440654  -0.00061002  0.14705658  1
  Zn  Zn123  1  0.06274935  0.05499593  0.80688676  1
  Zn  Zn124  1  0.06538226  0.71713257  0.32305282  1
  Zn  Zn125  1  0.05646786  0.56635463  0.81057311  1
  Zn  Zn126  1  0.56682604  0.06207259  0.31362912  1
  Zn  Zn127  1  0.54367714  0.04116580  0.75856823  1
  Zn  Zn128  1  0.56308007  0.56638294  0.31001318  1
  Zn  Zn129  1  0.53572448  0.49686094  0.81757682  1
  Zn  Zn130  1  0.42596372  0.18926277  0.44243672  1
  Zn  Zn131  1  0.43498471  0.19491814  0.94227808  1
  Zn  Zn132  1  0.43191627  0.82334218  0.44273101  1
  Zn  Zn133  1  0.46532620  0.62909996  0.92065314  1
  Zn  Zn134  1  0.92998840  0.19609940  0.43593899  1
  Zn  Zn135  1  0.93529042  0.18568807  0.93541999  1
  Zn  Zn136  1  0.93926665  0.69032689  0.44462930  1
  Zn  Zn137  1  0.93854385  0.68894057  0.93503021  1
  Zn  Zn138  1  0.05920326  0.32722720  0.06662903  1
  Zn  Zn139  1  0.05764966  0.30830919  0.55839729  1
  Zn  Zn140  1  0.06802037  0.81801933  0.06240349  1
  Zn  Zn141  1  0.06038962  0.81320809  0.51224959  1
  Zn  Zn142  1  0.55886357  0.31905386  0.07329997  1
  Zn  Zn143  1  0.55903914  0.31060902  0.55864794  1
  Zn  Zn144  1  0.56296889  0.80417884  0.06673515  1
  Zn  Zn145  1  0.56464069  0.79463460  0.57052336  1
  O  O146  1  0.13921862  0.10894010  0.12518373  1
  O  O147  1  0.10587601  0.14064534  0.61245906  1
  O  O148  1  0.13716506  0.61322914  0.11163952  1
  O  O149  1  0.11243576  0.61872771  0.63211304  1
  O  O150  1  0.61129655  0.13026242  0.12377922  1
  O  O151  1  0.63704027  0.11648123  0.59833719  1
  O  O152  1  0.62567562  0.62050637  0.13472853  1
  O  O153  1  0.60604876  0.63332990  0.60774931  1
  O  O154  1  0.38444941  0.37207343  0.37805238  1
  O  O155  1  0.37132270  0.36597315  0.89187258  1
  O  O156  1  0.36981112  0.88773843  0.37463329  1
  O  O157  1  0.39328155  0.84890819  0.88550876  1
  O  O158  1  0.87948216  0.36684064  0.38751737  1
  O  O159  1  0.87772237  0.38954920  0.88305755  1
  O  O160  1  0.87266035  0.87681370  0.39288733  1
  O  O161  1  0.87701527  0.87854688  0.88198657  1
  O  O162  1  0.26066919  0.01271507  0.39119525  1
  O  O163  1  0.25736508  0.03253565  0.89609941  1
  O  O164  1  0.24770414  0.49412094  0.35798937  1
  O  O165  1  0.24429024  0.51186622  0.86813147  1
  O  O166  1  0.74815203  -0.00742853  0.35764546  1
  O  O167  1  0.76181977  -0.01356336  0.86318890  1
  O  O168  1  0.77760319  0.49675088  0.41206202  1
  O  O169  1  0.76385988  0.51233278  0.88230523  1
  O  O170  1  0.24424283  0.49200075  0.12769451  1
  O  O171  1  0.25264969  0.47555472  0.62926809  1
  O  O172  1  0.27080835  0.98206822  0.11268771  1
  O  O173  1  0.23570968  0.99540954  0.61691893  1
  O  O174  1  0.74872361  0.48580175  0.13787971  1
  O  O175  1  0.75384509  0.49064321  0.62021768  1
  O  O176  1  0.75100161  0.98014639  0.13666394  1
  O  O177  1  0.75373546  0.98511108  0.64105109  1
  O  O178  1  0.01943234  0.36163609  0.23553100  1
  O  O179  1  0.00316839  0.36727832  0.75012234  1
  O  O180  1  0.01966408  0.89147695  0.26404925  1
  O  O181  1  -0.00969236  0.86672521  0.75828329  1
  O  O182  1  0.50530131  0.37096883  0.25976376  1
  O  O183  1  0.50971057  0.41117802  0.74795006  1
  O  O184  1  0.51301888  0.87786023  0.23758079  1
  O  O185  1  0.51096510  0.85381964  0.74760711  1
  O  O186  1  0.50876660  0.14094535  0.24379845  1
  O  O187  1  0.55635901  0.14733641  0.72476089  1
  O  O188  1  0.48581634  0.61840314  0.24085837  1
  O  O189  1  0.47999857  0.62876423  0.73809700  1
  O  O190  1  1.00479664  0.13846326  0.23846805  1
  O  O191  1  0.99716002  0.13831159  0.74834302  1
  O  O192  1  0.98583537  0.64392255  0.26791984  1
  O  O193  1  1.00176918  0.64494260  0.74546005  1
  O  O194  1  0.36729076  0.26184905  0.01423346  1
  O  O195  1  0.37070283  0.26865975  0.50466282  1
  O  O196  1  0.37176676  0.75520539  0.00896876  1
  O  O197  1  0.35994884  0.75455473  0.51110736  1
  O  O198  1  0.88468690  0.26315036  0.00984864  1
  O  O199  1  0.85742636  0.24291691  0.51823434  1
  O  O200  1  0.87952746  0.75903704  0.00650087  1
  O  O201  1  0.86477839  0.76360328  0.50912584  1
  O  O202  1  0.11836205  0.24699990  0.48695344  1
  O  O203  1  0.13414894  0.25007242  1.01522618  1
  O  O204  1  0.14137498  0.73396845  0.51437837  1
  O  O205  1  0.13622046  0.73839406  1.00641940  1
  O  O206  1  0.63266002  0.24180424  0.50287324  1
  O  O207  1  0.62882481  0.26390219  0.98710688  1
  O  O208  1  0.62999442  0.74237568  0.48583891  1
  O  O209  1  0.62665460  0.74125049  0.99315918  1
  O  O210  1  0.49016806  0.24424389  0.13085014  1
  O  O211  1  0.48122977  0.25798796  0.62112353  1
  O  O212  1  0.49021136  0.74075694  0.13009989  1
  O  O213  1  0.48602302  0.73485572  0.63404804  1
  O  O214  1  0.99514178  0.24549151  0.12211793  1
  O  O215  1  0.98223189  0.24301106  0.63669249  1
  O  O216  1  0.98900930  0.76467377  0.12297135  1
  O  O217  1  0.98769251  0.74713593  0.63516812  1
  O  O218  1  0.00488197  0.24644287  0.35610469  1
  O  O219  1  -0.01647181  0.26253042  0.86109117  1
  O  O220  1  0.01588828  0.76528303  0.41187792  1
  O  O221  1  -0.00885054  0.75948678  0.85918626  1
  O  O222  1  0.49215813  0.25445606  0.35988697  1
  O  O223  1  0.52788687  0.25260160  0.88062636  1
  O  O224  1  0.50771744  0.75046692  0.37620095  1
  O  O225  1  0.51529744  0.72276457  0.86628470  1
  O  O226  1  0.23593270  0.13282652  0.51394544  1
  O  O227  1  0.25521255  0.14351108  1.00751499  1
  O  O228  1  0.23789614  0.63226648  0.50424932  1
  O  O229  1  0.24581344  0.62855073  0.99109548  1
  O  O230  1  0.74295619  0.13670471  0.49504076  1
  O  O231  1  0.71408839  0.08012041  0.99691771  1
  O  O232  1  0.73458079  0.63639946  0.50035357  1
  O  O233  1  0.74830284  0.62707539  1.02177171  1
  O  O234  1  0.25126862  0.36394353  0.00717512  1
  O  O235  1  0.24669317  0.37412943  0.50195264  1
  O  O236  1  0.26262898  0.86326306  -0.00457864  1
  O  O237  1  0.22995869  0.85660248  0.48933848  1
  O  O238  1  0.76615243  0.38352831  0.01543455  1
  O  O239  1  0.74631232  0.35510896  0.51932677  1
  O  O240  1  0.75493870  0.87871759  0.01563280  1
  O  O241  1  0.74367154  0.86852752  0.50988924  1
  O  O242  1  0.14017314  0.49157957  0.23903224  1
  O  O243  1  0.11574627  0.48463231  0.74913181  1
  O  O244  1  0.17634695  1.00229198  0.25123581  1
  O  O245  1  0.11560165  0.99814561  0.72590535  1
  O  O246  1  0.62619938  0.48459473  0.24771819  1
  O  O247  1  0.61993567  0.53122595  0.75307889  1
  O  O248  1  0.63292220  0.98097972  0.25225113  1
  O  O249  1  0.63937241  0.97630159  0.76184530  1
  O  O250  1  0.35523810  -0.00249609  0.26602398  1
  O  O251  1  0.35507289  -0.01941885  0.78513451  1
  O  O252  1  0.36306581  0.50853684  0.24349343  1
  O  O253  1  0.36412401  0.51538868  0.74036393  1
  O  O254  1  0.86333371  -0.00070388  0.24457235  1
  O  O255  1  0.86448438  -0.00430583  0.75979366  1
  O  O256  1  0.89342021  0.51203807  0.25370979  1
  O  O257  1  0.87317670  0.49762543  0.76462387  1
  O  O258  1  0.12553120  0.36349913  0.36315512  1
  O  O259  1  0.10709544  0.38091661  0.86747779  1
  O  O260  1  0.10191221  0.89512627  0.36670781  1
  O  O261  1  0.10452582  0.87403498  0.87697136  1
  O  O262  1  0.61369152  0.38056258  0.36792381  1
  O  O263  1  0.63105603  0.36671046  0.88734658  1
  O  O264  1  0.62371828  0.86196337  0.36260046  1
  O  O265  1  0.63410933  0.85252083  0.86631368  1
  O  O266  1  0.37628769  0.13951387  0.12068131  1
  O  O267  1  0.37030830  0.14442850  0.61897297  1
  O  O268  1  0.38581232  0.63179096  0.12192666  1
  O  O269  1  0.37691727  0.62954300  0.62437451  1
  O  O270  1  0.86377300  0.13862607  0.11166831  1
  O  O271  1  0.87934298  0.13171359  0.63256753  1
  O  O272  1  0.88039910  0.64304251  0.14541419  1
  O  O273  1  0.88101939  0.64206670  0.61181085  1
  O  O274  1  0.26049811  0.25861574  0.12257754  1
  O  O275  1  0.25606626  0.26748900  0.62843585  1
  O  O276  1  0.26143809  0.75357859  0.10863953  1
  O  O277  1  0.26438978  0.75152112  0.62732334  1
  O  O278  1  0.76826918  0.26192831  0.13509173  1
  O  O279  1  0.75279416  0.24193486  0.63414168  1
  O  O280  1  0.76747911  0.76395281  0.13361823  1
  O  O281  1  0.76007639  0.75571690  0.61499817  1
  O  O282  1  0.23835088  0.25609801  0.37543371  1
  O  O283  1  0.24701259  0.24035959  0.89299876  1
  O  O284  1  0.25199836  0.74558338  0.38377940  1
  O  O285  1  0.25473225  0.73389209  0.88552651  1
  O  O286  1  0.74236039  0.26535544  0.39108290  1
  O  O287  1  0.73765105  0.26569038  0.88104966  1
  O  O288  1  0.74610903  0.75257205  0.38704555  1
  O  O289  1  0.74661771  0.73507851  0.87303260  1
  O  O290  1  -0.00499301  0.10620152  -0.00796000  1
  O  O291  1  -0.00784361  0.13365625  0.51007189  1
  O  O292  1  0.01019578  0.61652276  -0.00785895  1
  O  O293  1  0.01322569  0.62975812  0.51883250  1
  O  O294  1  0.49291287  0.12868929  0.01517434  1
  O  O295  1  0.51035924  0.13437511  0.50572599  1
  O  O296  1  0.52347359  0.62958447  0.02271101  1
  O  O297  1  0.50628966  0.62716111  0.50360687  1
  O  O298  1  0.49241723  0.37420032  0.48223782  1
  O  O299  1  0.48402112  0.37455755  1.01037236  1
  O  O300  1  0.51206843  0.86780994  0.50643581  1
  O  O301  1  0.49589214  0.86954348  1.00331502  1
  O  O302  1  0.98680956  0.38675472  0.53533020  1
  O  O303  1  0.99403556  0.38676371  0.98986268  1
  O  O304  1  0.97862081  0.89177411  0.51391237  1
  O  O305  1  0.99089623  0.87946536  0.98471055  1
  O  O306  1  0.49559804  0.49011548  0.36821706  1
  O  O307  1  0.49305891  0.52134596  0.91030283  1
  O  O308  1  0.49234574  0.99285862  0.36640314  1
  O  O309  1  0.48917595  1.02010575  0.85618683  1
  O  O310  1  0.93968677  0.40795407  0.38955715  1
  O  O311  1  0.98655769  0.49763272  0.88179592  1
  O  O312  1  1.04482154  0.93272766  0.32817988  1
  O  O313  1  0.98621361  0.98685781  0.87399066  1
  O  O314  1  0.00748822  -0.01304091  0.10499744  1
  O  O315  1  -0.00247590  0.02144696  0.62844269  1
  O  O316  1  0.01536217  0.49255203  0.11357489  1
  O  O317  1  -0.01879397  0.52584096  0.64368328  1
  O  O318  1  0.48774494  0.01944535  0.13501990  1
  O  O319  1  0.49052108  0.01304563  0.65298490  1
  O  O320  1  0.51586768  0.50713098  0.13334788  1
  O  O321  1  0.49250418  0.51584242  0.61922706  1
  O  O322  1  0.24724508  0.38232214  0.24088773  1
  O  O323  1  0.22669820  0.37282610  0.76290519  1
  O  O324  1  0.25772381  0.86353570  0.22024277  1
  O  O325  1  0.24148923  0.89049870  0.79923892  1
  O  O326  1  0.73814563  0.36173637  0.25316210  1
  O  O327  1  0.74266626  0.38060560  0.73560761  1
  O  O328  1  0.74496444  0.88123098  0.24171220  1
  O  O329  1  0.74401915  0.87322336  0.74357479  1
  O  O330  1  0.26444140  0.13969366  0.26778818  1
  O  O331  1  0.24279524  0.13691022  0.76288956  1
  O  O332  1  0.25981028  0.61171658  0.24306324  1
  O  O333  1  0.25435639  0.62732497  0.75308858  1
  O  O334  1  0.73868978  0.10468074  0.24455926  1
  O  O335  1  0.74302109  0.10255450  0.74621028  1
  O  O336  1  0.77495356  0.62914106  0.25922699  1
  O  O337  1  0.75516964  0.62582862  0.75991391  1
  O  O338  1  0.38430451  0.10416605  0.38125771  1
  O  O339  1  0.37178990  0.12928449  0.87354098  1
  O  O340  1  0.37843736  0.62844331  0.35829379  1
  O  O341  1  0.36609828  0.62736641  0.85595633  1
  O  O342  1  0.85591977  0.15873282  0.35596774  1
  O  O343  1  0.87360693  0.10618125  0.87420815  1
  O  O344  1  0.87414866  0.62840048  0.37484794  1
  O  O345  1  0.86624286  0.61673450  0.87988497  1
  O  O346  1  0.13816660  0.38391231  0.13018314  1
  O  O347  1  0.13460363  0.36614794  0.63562822  1
  O  O348  1  0.14587710  0.88662329  0.10919458  1
  O  O349  1  0.11150151  0.88718953  0.60351866  1
  O  O350  1  0.63506400  0.38116505  0.13634334  1
  O  O351  1  0.63449032  0.37820941  0.61450274  1
  O  O352  1  0.63802365  0.85836582  0.13734350  1
  O  O353  1  0.63638344  0.85577873  0.64159023  1
  O  O354  1  0.12198823  0.25382334  0.25700630  1
  O  O355  1  0.10480148  0.26008855  0.74648052  1
  O  O356  1  0.12652385  0.75763407  0.24204358  1
  O  O357  1  0.11212395  0.75999712  0.74120330  1
  O  O358  1  0.61042266  0.26687644  0.24224921  1
  O  O359  1  0.63207003  0.26485268  0.77791041  1
  O  O360  1  0.62752124  0.75538324  0.26411192  1
  O  O361  1  0.61646976  0.74094429  0.76005243  1
  O  O362  1  0.38871249  0.25876313  0.23524148  1
  O  O363  1  0.37115456  0.26328481  0.73412146  1
  O  O364  1  0.36274871  0.73420605  0.23705033  1
  O  O365  1  0.37795036  0.74060356  0.74034122  1
  O  O366  1  0.89650103  0.25792912  0.22914066  1
  O  O367  1  0.87757283  0.24627825  0.74491513  1
  O  O368  1  0.88586976  0.76846985  0.24325957  1
  O  O369  1  0.87353491  0.75268787  0.73340843  1
  O  O370  1  0.36599509  0.47643990  0.50116699  1
  O  O371  1  0.36337786  0.48494944  1.00324936  1
  O  O372  1  0.39398491  0.99884844  0.49867111  1
  O  O373  1  0.38061582  0.97956323  0.97397734  1
  O  O374  1  0.83697424  0.50073317  0.46453062  1
  O  O375  1  0.88685275  0.49635456  1.00941507  1
  O  O376  1  0.85414815  0.99090023  0.50348468  1
  O  O377  1  0.87763915  0.98758067  0.98722289  1
  O  O378  1  0.10825072  -0.00824524  -0.01783250  1
  O  O379  1  0.11922418  0.02334154  0.51210291  1
  O  O380  1  0.11952892  0.50597885  0.00444493  1
  O  O381  1  0.12969071  0.51480831  0.50193372  1
  O  O382  1  0.65598347  0.03313008  -0.01539882  1
  O  O383  1  0.61155709  0.00651028  0.49440349  1
  O  O384  1  0.63738962  0.51074011  0.02349147  1
  O  O385  1  0.62855646  0.51760836  0.49165004  1
  O  O386  1  0.36673581  0.37084486  0.12120935  1
  O  O387  1  0.36227928  0.36712309  0.61007671  1
  O  O388  1  0.37465353  0.86440970  0.11269989  1
  O  O389  1  0.37917111  0.86088229  0.63173127  1
  O  O390  1  0.87445734  0.37175022  0.12064956  1
  O  O391  1  0.85482011  0.35763364  0.63429899  1
  O  O392  1  0.86906819  0.86875242  0.11710912  1
  O  O393  1  0.86294795  0.86701202  0.61916426  1
  O  O394  1  0.12742618  0.13979203  0.39138560  1
  O  O395  1  0.12938780  0.12350909  0.87161808  1
  O  O396  1  0.11746080  0.62742068  0.39015104  1
  O  O397  1  0.13144613  0.62085661  0.88458144  1
  O  O398  1  0.63162701  0.12165256  0.38828411  1
  O  O399  1  0.64214204  0.15815907  0.88744751  1
  O  O400  1  0.62570744  0.63490342  0.38057019  1
  O  O401  1  0.65092650  0.62632082  0.89473416  1
