# generated using pymatgen
data_V73Zn73O256
_symmetry_space_group_name_H-M   'P 1'
_cell_length_a   16.92552058
_cell_length_b   16.87542960
_cell_length_c   16.95297016
_cell_angle_alpha   89.82346942
_cell_angle_beta   90.43550161
_cell_angle_gamma   89.76089655
_symmetry_Int_Tables_number   1
_chemical_formula_structural   V73Zn73O256
_chemical_formula_sum   'V73 Zn73 O256'
_cell_volume   4841.99391298
_cell_formula_units_Z   1
loop_
 _symmetry_equiv_pos_site_id
 _symmetry_equiv_pos_as_xyz
  1  'x, y, z'
loop_
 _atom_site_type_symbol
 _atom_site_label
 _atom_site_symmetry_multiplicity
 _atom_site_fract_x
 _atom_site_fract_y
 _atom_site_fract_z
 _atom_site_occupancy
  V  V0  1  -0.00954527  0.87007267  0.86872258  1
  V  V1  1  0.74703679  0.75141408  -0.00993728  1
  V  V2  1  0.62427175  0.75292964  0.37310040  1
  V  V3  1  -0.01859035  0.64180986  0.63167981  1
  V  V4  1  -0.00435566  0.50199521  0.00014593  1
  V  V5  1  -0.00896849  0.88085453  0.36740309  1
  V  V6  1  0.12916184  0.00055460  0.12958033  1
  V  V7  1  0.13063273  0.25436227  0.87462180  1
  V  V8  1  0.50675244  0.48021702  0.00919342  1
  V  V9  1  0.62031297  0.62298839  0.00303294  1
  V  V10  1  0.12791240  0.87577622  0.74773103  1
  V  V11  1  0.13334883  0.12840321  0.49811570  1
  V  V12  1  0.36626753  -0.00741509  0.38778470  1
  V  V13  1  0.63042798  0.24965600  0.38029129  1
  V  V14  1  0.25641050  0.37540787  0.13541731  1
  V  V15  1  0.00221510  0.50085168  0.50748780  1
  V  V16  1  0.12259678  0.49686196  0.12967377  1
  V  V17  1  0.00441151  0.25594806  0.26129407  1
  V  V18  1  0.37761139  0.12043027  0.24296914  1
  V  V19  1  0.39716367  0.26579923  0.62742059  1
  V  V20  1  0.12370901  0.63091249  0.51053442  1
  V  V21  1  0.00724360  0.12905195  0.62650500  1
  V  V22  1  0.36122461  0.00958954  0.87457107  1
  V  V23  1  0.36521485  0.87637229  -0.00039171  1
  V  V24  1  0.26796800  0.86914189  0.62769660  1
  V  V25  1  0.62695303  0.37407695  0.23456017  1
  V  V26  1  -0.00338214  0.00368101  -0.01162060  1
  V  V27  1  0.01216685  0.25415409  0.74533280  1
  V  V28  1  0.49344417  0.87577984  0.38928293  1
  V  V29  1  0.13242685  0.74987653  0.87256946  1
  V  V30  1  0.12858816  -0.00434442  0.62381814  1
  V  V31  1  0.87320900  0.87948263  0.51133836  1
  V  V32  1  0.86680684  0.37466876  -0.00379070  1
  V  V33  1  0.75090683  0.62020671  0.36029740  1
  V  V34  1  0.75336651  0.88121155  0.13634629  1
  V  V35  1  0.65720702  0.14959219  -0.00219333  1
  V  V36  1  0.87816862  0.50715024  0.36597554  1
  V  V37  1  0.57463684  0.93323243  0.19296272  1
  V  V38  1  0.25259205  0.49120282  0.74360352  1
  V  V39  1  0.48997032  0.24940404  0.24733069  1
  V  V40  1  0.49564701  0.62395884  0.63708371  1
  V  V41  1  0.62190050  0.61207821  0.49800025  1
  V  V42  1  0.13336274  0.63451125  0.00093253  1
  V  V43  1  -0.00234686  0.63129063  0.13510783  1
  V  V44  1  0.49777516  0.37834870  0.39149637  1
  V  V45  1  0.36273535  0.73937406  0.12267884  1
  V  V46  1  0.87921637  0.75030255  0.14104167  1
  V  V47  1  0.63474899  0.49946274  0.64873880  1
  V  V48  1  0.11829661  0.37365340  0.26033271  1
  V  V49  1  0.25080688  0.13116307  0.37273184  1
  V  V50  1  0.87533206  0.38082651  0.49201524  1
  V  V51  1  0.87158315  0.12498766  0.26177317  1
  V  V52  1  0.50459097  0.74586369  0.76777288  1
  V  V53  1  0.87172318  0.88427022  -0.00086310  1
  V  V54  1  0.82554681  0.58118092  0.81866675  1
  V  V55  1  0.88775932  0.25350505  0.62023724  1
  V  V56  1  -0.00130859  0.12936067  0.12413061  1
  V  V57  1  0.62181955  0.10880933  0.49291176  1
  V  V58  1  0.37283746  0.37507772  -0.01963186  1
  V  V59  1  0.50135231  0.73320522  0.24624095  1
  V  V60  1  0.75458972  0.00410133  0.25968228  1
  V  V61  1  0.75354011  0.37573608  0.63655040  1
  V  V62  1  0.00092202  0.38174861  0.87064774  1
  V  V63  1  0.75848824  0.74659247  0.50804170  1
  V  V64  1  0.24962925  0.25067436  0.00651435  1
  V  V65  1  0.86387410  0.25679051  0.12117119  1
  V  V66  1  0.36901439  0.49587963  0.38594993  1
  V  V67  1  0.12592744  0.12679353  -0.00487717  1
  V  V68  1  0.12985805  0.87895572  0.25317151  1
  V  V69  1  0.25931550  0.75096311  0.50038303  1
  V  V70  1  0.35901852  0.61336487  0.25523954  1
  V  V71  1  0.11879749  0.74383950  0.36953815  1
  V  V72  1  0.50595781  0.87272695  0.88591474  1
  Zn  Zn73  1  0.24227692  0.86908654  0.12474019  1
  Zn  Zn74  1  0.75988002  0.24951361  0.48961852  1
  Zn  Zn75  1  0.69828474  0.52225833  0.17951846  1
  Zn  Zn76  1  0.26313637  0.26170332  0.50559901  1
  Zn  Zn77  1  0.62082566  0.26660510  0.88022681  1
  Zn  Zn78  1  0.49943715  0.10965156  0.61754553  1
  Zn  Zn79  1  0.60982660  0.97017144  0.66274347  1
  Zn  Zn80  1  -0.00550855  0.00302745  0.49782820  1
  Zn  Zn81  1  0.52964797  0.08291437  0.07639619  1
  Zn  Zn82  1  0.18755415  0.18900627  0.18869938  1
  Zn  Zn83  1  0.34721870  0.11808112  0.72935961  1
  Zn  Zn84  1  0.18366194  0.68338319  0.19333896  1
  Zn  Zn85  1  0.18323831  0.69235061  0.68832252  1
  Zn  Zn86  1  0.68324099  0.18891572  0.19147618  1
  Zn  Zn87  1  0.72571150  0.14950221  0.62655985  1
  Zn  Zn88  1  0.68640612  0.69546590  0.17801153  1
  Zn  Zn89  1  0.67709596  0.69677543  0.68601617  1
  Zn  Zn90  1  0.31163547  0.31400051  0.31631601  1
  Zn  Zn91  1  0.23985284  0.25306164  0.72217236  1
  Zn  Zn92  1  0.30821490  0.80314832  0.31531796  1
  Zn  Zn93  1  0.33889265  0.76166259  0.83762993  1
  Zn  Zn94  1  0.81336315  0.31939813  0.30572402  1
  Zn  Zn95  1  0.82211682  0.29330033  0.81096284  1
  Zn  Zn96  1  0.80772867  0.81243397  0.31816855  1
  Zn  Zn97  1  0.80059205  0.81125952  0.80847765  1
  Zn  Zn98  1  0.18214805  0.45453057  0.42726956  1
  Zn  Zn99  1  0.18458036  0.43861120  0.94422057  1
  Zn  Zn100  1  0.18742151  0.93356798  0.44012952  1
  Zn  Zn101  1  0.18587673  0.93194216  0.94122840  1
  Zn  Zn102  1  0.69301096  0.43243422  0.43005409  1
  Zn  Zn103  1  0.68852143  0.44840888  0.91735888  1
  Zn  Zn104  1  0.66527912  0.91385009  0.48470764  1
  Zn  Zn105  1  0.65689663  0.93708849  0.99771878  1
  Zn  Zn106  1  0.30946336  0.06030823  0.06091376  1
  Zn  Zn107  1  0.31411403  0.05461802  0.56344494  1
  Zn  Zn108  1  0.31362212  0.55553796  0.06645459  1
  Zn  Zn109  1  0.31577729  0.56839826  0.55778586  1
  Zn  Zn110  1  0.81211076  0.06467363  0.07298851  1
  Zn  Zn111  1  0.80475361  0.06337348  0.44062871  1
  Zn  Zn112  1  0.80570084  0.57237400  0.05489261  1
  Zn  Zn113  1  0.81025274  0.56272301  0.55978998  1
  Zn  Zn114  1  0.44788325  0.43953003  0.18945218  1
  Zn  Zn115  1  0.45826041  0.43726229  0.71578260  1
  Zn  Zn116  1  0.40965023  0.93113833  0.19811395  1
  Zn  Zn117  1  0.43742042  0.93789048  0.70927204  1
  Zn  Zn118  1  0.89762105  0.46471348  0.16303556  1
  Zn  Zn119  1  0.93112819  0.44797674  0.68992696  1
  Zn  Zn120  1  0.94070793  0.94219121  0.18822343  1
  Zn  Zn121  1  0.94358256  0.93942025  0.68471236  1
  Zn  Zn122  1  0.06073797  0.06251995  0.31363386  1
  Zn  Zn123  1  0.18254182  0.06834568  0.80751006  1
  Zn  Zn124  1  0.05854520  0.55887990  0.31556295  1
  Zn  Zn125  1  0.01410394  0.59420837  0.83352550  1
  Zn  Zn126  1  0.55848043  0.06138853  0.32542905  1
  Zn  Zn127  1  0.57362353  0.04782563  0.87400155  1
  Zn  Zn128  1  0.56050174  0.55495029  0.31444805  1
  Zn  Zn129  1  0.55364706  0.55179106  0.82968590  1
  Zn  Zn130  1  0.43877794  0.19060919  0.44276844  1
  Zn  Zn131  1  0.43092145  0.19114397  0.94183082  1
  Zn  Zn132  1  0.44219959  0.68006912  0.43516747  1
  Zn  Zn133  1  0.44347287  0.65787355  0.94117592  1
  Zn  Zn134  1  0.94559429  0.18936375  0.43901653  1
  Zn  Zn135  1  0.92790868  0.19108555  0.92773565  1
  Zn  Zn136  1  0.93853249  0.68791590  0.43461843  1
  Zn  Zn137  1  0.93773594  0.69670828  0.95313707  1
  Zn  Zn138  1  0.05811326  0.31490767  0.06507315  1
  Zn  Zn139  1  0.06727719  0.31334646  0.54536748  1
  Zn  Zn140  1  0.05952594  0.81536567  0.06255393  1
  Zn  Zn141  1  0.05639268  0.81134247  0.55883372  1
  Zn  Zn142  1  0.55444268  0.28425793  0.05564129  1
  Zn  Zn143  1  0.56554784  0.30935822  0.57345057  1
  Zn  Zn144  1  0.54212158  0.78033088  0.04942412  1
  Zn  Zn145  1  0.56140989  0.80501229  0.56978003  1
  O  O146  1  0.11620578  0.12092128  0.11960192  1
  O  O147  1  0.12388414  0.11248933  0.60831125  1
  O  O148  1  0.11929308  0.62009326  0.11875818  1
  O  O149  1  0.11407375  0.63405150  0.61195343  1
  O  O150  1  0.63395837  0.13536858  0.10533927  1
  O  O151  1  0.62768938  0.09138692  0.59881040  1
  O  O152  1  0.66640492  0.60901088  0.10478440  1
  O  O153  1  0.63618078  0.61081130  0.61237429  1
  O  O154  1  0.38662810  0.38164514  0.37389032  1
  O  O155  1  0.37143665  0.37565047  0.88544450  1
  O  O156  1  0.38334286  0.88183059  0.36082331  1
  O  O157  1  0.37155898  0.86761326  0.89254715  1
  O  O158  1  0.86878025  0.38961561  0.38272087  1
  O  O159  1  0.89277198  0.36677366  0.88771593  1
  O  O160  1  0.88931592  0.86927750  0.37399189  1
  O  O161  1  0.88373035  0.87041614  0.87941839  1
  O  O162  1  0.26087687  0.00180394  0.37743294  1
  O  O163  1  0.25324361  0.00259747  0.88203622  1
  O  O164  1  0.26920125  0.48844300  0.36829174  1
  O  O165  1  0.23429919  0.49047321  0.84619678  1
  O  O166  1  0.75628059  -0.00445692  0.35900393  1
  O  O167  1  0.71353004  -0.04991419  0.80579154  1
  O  O168  1  0.76484959  0.50851763  0.37841389  1
  O  O169  1  0.76542040  0.52522205  0.87608683  1
  O  O170  1  0.23503246  0.48526832  0.12411113  1
  O  O171  1  0.27397965  0.49531100  0.64120679  1
  O  O172  1  0.23182754  0.99690714  0.12010216  1
  O  O173  1  0.24043157  0.97789912  0.61586270  1
  O  O174  1  0.79181037  0.49400977  0.13045913  1
  O  O175  1  0.74721336  0.48531402  0.61932388  1
  O  O176  1  0.75286848  0.99009344  0.13679577  1
  O  O177  1  0.81718537  1.03342912  0.69492407  1
  O  O178  1  0.00849344  0.36122208  0.24467357  1
  O  O179  1  -0.00194177  0.37758200  0.76451730  1
  O  O180  1  0.00789907  0.87827443  0.26127428  1
  O  O181  1  0.00474495  0.87939536  0.76495472  1
  O  O182  1  0.50323658  0.36276256  0.25995347  1
  O  O183  1  0.51901711  0.44437143  0.80782021  1
  O  O184  1  0.50984848  0.87350805  0.25031376  1
  O  O185  1  0.49981031  0.86488455  0.77789609  1
  O  O186  1  0.48745353  0.13395124  0.26134029  1
  O  O187  1  0.50034669  0.18100691  0.79036774  1
  O  O188  1  0.49506329  0.63187457  0.25115435  1
  O  O189  1  0.50968760  0.63044571  0.74697303  1
  O  O190  1  0.99404012  0.13389566  0.24445834  1
  O  O191  1  1.01717126  0.14581865  0.73164689  1
  O  O192  1  1.00728598  0.62327135  0.23400245  1
  O  O193  1  1.00618599  0.62060774  0.72767463  1
  O  O194  1  0.35840106  0.26155688  -0.00245572  1
  O  O195  1  0.37990750  0.25318732  0.51523771  1
  O  O196  1  0.37445050  0.74664148  0.02229094  1
  O  O197  1  0.35686580  0.73520691  0.49019478  1
  O  O198  1  0.87964949  0.26110788  0.01361576  1
  O  O199  1  0.88597393  0.26634113  0.50124575  1
  O  O200  1  0.86403063  0.76906130  0.00617000  1
  O  O201  1  0.86367602  0.75516358  0.49312504  1
  O  O202  1  0.13416145  0.23082508  0.50007584  1
  O  O203  1  0.12497178  0.24355476  0.99696560  1
  O  O204  1  0.12681490  0.74236550  0.49188516  1
  O  O205  1  0.12335114  0.74128933  0.99834006  1
  O  O206  1  0.62672745  0.24535743  0.48815527  1
  O  O207  1  0.65158091  0.25679386  0.99582845  1
  O  O208  1  0.63619370  0.73946650  0.48908805  1
  O  O209  1  0.64548012  0.74063231  1.02154041  1
  O  O210  1  0.49054089  0.25249995  0.14972135  1
  O  O211  1  0.50079800  0.22941781  0.62320438  1
  O  O212  1  0.48272621  0.75443915  0.14515027  1
  O  O213  1  0.50694996  0.72778387  0.62840286  1
  O  O214  1  0.99680815  0.23954394  0.13133358  1
  O  O215  1  1.00971901  0.25396910  0.62534830  1
  O  O216  1  0.98664303  0.74854462  0.12075593  1
  O  O217  1  0.99427701  0.74207041  0.62243465  1
  O  O218  1  0.00167463  0.24980695  0.36014188  1
  O  O219  1  0.00976816  0.25875116  0.86487674  1
  O  O220  1  0.01220639  0.76267738  0.38089969  1
  O  O221  1  0.00734840  0.76703636  0.88594488  1
  O  O222  1  0.50693671  0.26138476  0.37226983  1
  O  O223  1  0.49583494  0.23916460  0.83852810  1
  O  O224  1  0.50120502  0.75594266  0.36152222  1
  O  O225  1  0.50059175  0.75279289  0.87528766  1
  O  O226  1  0.24228323  0.11739066  0.49146468  1
  O  O227  1  0.23603403  0.13607875  1.01170278  1
  O  O228  1  0.23324012  0.63468140  0.50947149  1
  O  O229  1  0.23105191  0.61543922  1.00558253  1
  O  O230  1  0.74000088  0.13382806  0.50402123  1
  O  O231  1  0.75484862  0.12462329  0.99629276  1
  O  O232  1  0.74356917  0.63295438  0.48741981  1
  O  O233  1  0.76362520  0.64942948  0.98400052  1
  O  O234  1  0.25552157  0.37147452  0.01170928  1
  O  O235  1  0.21439684  0.37643606  0.51028000  1
  O  O236  1  0.25932289  0.86830542  0.00560424  1
  O  O237  1  0.24841473  0.86047022  0.51288824  1
  O  O238  1  0.77011516  0.38585123  -0.01600209  1
  O  O239  1  0.76283200  0.37298325  0.50522602  1
  O  O240  1  0.75438587  0.87728499  0.01686776  1
  O  O241  1  0.76487807  0.85807842  0.48682893  1
  O  O242  1  0.11322794  0.48585441  0.24173083  1
  O  O243  1  0.15129458  0.48212178  0.72081354  1
  O  O244  1  0.11667434  0.99396990  0.23919167  1
  O  O245  1  0.12986197  0.98795199  0.73893999  1
  O  O246  1  0.61412874  0.48268504  0.24378153  1
  O  O247  1  0.64927059  0.51581095  0.74301838  1
  O  O248  1  0.62971591  0.99856741  0.25129774  1
  O  O249  1  0.64778434  0.99097763  0.77837415  1
  O  O250  1  0.37765003  0.01539943  0.26551932  1
  O  O251  1  0.36281491  0.00484081  0.77139147  1
  O  O252  1  0.37978097  0.51163711  0.25030572  1
  O  O253  1  0.35693437  0.49584501  0.75948243  1
  O  O254  1  0.87054024  0.01545239  0.24391618  1
  O  O255  1  0.87394917  0.01170030  0.74702334  1
  O  O256  1  0.89125908  0.49718313  0.26963372  1
  O  O257  1  0.86844080  0.51795841  0.75391709  1
  O  O258  1  0.12467783  0.38064940  0.35888155  1
  O  O259  1  0.11098658  0.36321668  0.89159020  1
  O  O260  1  0.11572254  0.86904506  0.37055040  1
  O  O261  1  0.11598010  0.86803733  0.87041091  1
  O  O262  1  0.61418572  0.36828162  0.36824153  1
  O  O263  1  0.62849632  0.37505166  0.85712798  1
  O  O264  1  0.60920964  0.85989554  0.38495428  1
  O  O265  1  0.60262491  0.88229342  0.90851552  1
  O  O266  1  0.37113603  0.11563139  0.14303781  1
  O  O267  1  0.38365468  0.11774105  0.62170303  1
  O  O268  1  0.36706085  0.63138166  0.13859688  1
  O  O269  1  0.39838223  0.61171186  0.62303925  1
  O  O270  1  0.88288576  0.13850017  0.13268426  1
  O  O271  1  0.89967191  0.14729240  0.60580604  1
  O  O272  1  0.88206258  0.64512661  0.11829529  1
  O  O273  1  0.88198635  0.62653017  0.61842751  1
  O  O274  1  0.23822254  0.26431165  0.11617951  1
  O  O275  1  0.27951962  0.26804782  0.61795752  1
  O  O276  1  0.25940848  0.74970740  0.13660142  1
  O  O277  1  0.24679449  0.75731624  0.61439195  1
  O  O278  1  0.76680512  0.25236175  0.13316744  1
  O  O279  1  0.76992398  0.26134629  0.61602683  1
  O  O280  1  0.76468057  0.76297856  0.12296738  1
  O  O281  1  0.74696910  0.74404621  0.60591061  1
  O  O282  1  0.25898392  0.23468960  0.38778256  1
  O  O283  1  0.23166144  0.25896238  0.89197708  1
  O  O284  1  0.23242760  0.75767456  0.39115180  1
  O  O285  1  0.23023351  0.75698307  0.87834432  1
  O  O286  1  0.73469120  0.26061829  0.37197835  1
  O  O287  1  0.68385202  0.23622253  0.77293438  1
  O  O288  1  0.73933151  0.74026632  0.37494877  1
  O  O289  1  0.73533245  0.77851232  0.89587236  1
  O  O290  1  0.00118100  0.12356122  0.00260996  1
  O  O291  1  0.01723888  0.12324848  0.50100299  1
  O  O292  1  0.00872502  0.62017925  0.01257559  1
  O  O293  1  0.00503940  0.62306656  0.50875909  1
  O  O294  1  0.51457015  0.17482685  0.01208986  1
  O  O295  1  0.51790680  0.12058884  0.49153727  1
  O  O296  1  0.52472492  0.65557732  0.02395460  1
  O  O297  1  0.51844556  0.62757935  0.50921321  1
  O  O298  1  0.51034661  0.37303640  0.48915777  1
  O  O299  1  0.48659257  0.37273030  1.00058095  1
  O  O300  1  0.48765964  0.85614938  0.48530565  1
  O  O301  1  0.47853111  0.85977272  0.99739131  1
  O  O302  1  0.99574441  0.39294422  0.50183187  1
  O  O303  1  0.99559462  0.38322741  0.99340183  1
  O  O304  1  0.98557390  0.87473791  0.49014676  1
  O  O305  1  0.99056769  0.88339470  0.99414445  1
  O  O306  1  0.49170072  0.48453490  0.37274411  1
  O  O307  1  0.47889897  0.54272832  0.92981469  1
  O  O308  1  0.49113718  0.98183384  0.37692686  1
  O  O309  1  0.47721672  0.98039047  0.87997943  1
  O  O310  1  0.98602997  0.51374529  0.39153507  1
  O  O311  1  1.01133315  0.48745237  0.88407783  1
  O  O312  1  1.00352786  0.98590774  0.37910924  1
  O  O313  1  1.00171919  0.98692916  0.88790343  1
  O  O314  1  0.00503628  0.01301044  0.11581564  1
  O  O315  1  0.00914790  0.01243846  0.62207965  1
  O  O316  1  0.00315071  0.50909896  0.11806085  1
  O  O317  1  -0.00544977  0.50994852  0.60989817  1
  O  O318  1  0.50612408  -0.00919328  0.14073566  1
  O  O319  1  0.51155316  0.01779198  0.68450615  1
  O  O320  1  0.49269534  0.50447545  0.10594423  1
  O  O321  1  0.52696350  0.51008739  0.63992955  1
  O  O322  1  0.23214095  0.36095181  0.24140194  1
  O  O323  1  0.25697410  0.38645382  0.74245163  1
  O  O324  1  0.23396396  0.87185151  0.25181381  1
  O  O325  1  0.23434502  0.86185391  0.73078131  1
  O  O326  1  0.72768221  0.36909787  0.24757165  1
  O  O327  1  0.76961859  0.36690467  0.73481369  1
  O  O328  1  0.75293549  0.88278691  0.24334775  1
  O  O329  1  0.73826867  0.89552913  0.75133758  1
  O  O330  1  0.26066064  0.13423500  0.26394881  1
  O  O331  1  0.23871764  0.14136333  0.74803206  1
  O  O332  1  0.25964692  0.62225068  0.25687410  1
  O  O333  1  0.24130898  0.59647914  0.74088704  1
  O  O334  1  0.76109558  0.11905893  0.24514088  1
  O  O335  1  0.77469006  0.09633142  0.71981463  1
  O  O336  1  0.73390593  0.62106484  0.25959559  1
  O  O337  1  0.75360749  0.65259606  0.76746483  1
  O  O338  1  0.36503382  0.11164295  0.37742939  1
  O  O339  1  0.37455928  0.10812051  0.88982263  1
  O  O340  1  0.38382667  0.60939866  0.36365878  1
  O  O341  1  0.35556010  0.65593605  0.87642545  1
  O  O342  1  0.87481249  0.12982575  0.36778049  1
  O  O343  1  0.83541809  0.19923410  0.86689276  1
  O  O344  1  0.86489382  0.61798980  0.37581667  1
  O  O345  1  0.90665046  0.61561349  0.87903603  1
  O  O346  1  0.12648133  0.38303520  0.13098819  1
  O  O347  1  0.16048464  0.38041564  0.56851183  1
  O  O348  1  0.11964933  0.88227304  0.13417067  1
  O  O349  1  0.11352475  0.88091440  0.63318742  1
  O  O350  1  0.61123123  0.35865742  0.13761053  1
  O  O351  1  0.64164128  0.38384027  0.62834585  1
  O  O352  1  0.63104769  0.88064913  0.12311936  1
  O  O353  1  0.63043916  0.88986103  0.59002772  1
  O  O354  1  0.11297468  0.25707643  0.24640465  1
  O  O355  1  0.12628810  0.26277153  0.76728675  1
  O  O356  1  0.12632598  0.75635730  0.26469631  1
  O  O357  1  0.12221056  0.75505298  0.76491338  1
  O  O358  1  0.61144078  0.25399439  0.26100121  1
  O  O359  1  0.64363607  0.20861823  0.71548767  1
  O  O360  1  0.61020871  0.74301702  0.25495486  1
  O  O361  1  0.60613136  0.75912589  0.74359833  1
  O  O362  1  0.38274895  0.23678270  0.26368602  1
  O  O363  1  0.36923526  0.23857715  0.72734760  1
  O  O364  1  0.38144779  0.73547855  0.25129641  1
  O  O365  1  0.40269692  0.75349496  0.74412864  1
  O  O366  1  0.88586996  0.24887616  0.24189252  1
  O  O367  1  0.90108409  0.26299133  0.72740079  1
  O  O368  1  0.87378058  0.75408353  0.23914117  1
  O  O369  1  0.82593345  0.70120695  0.76951180  1
  O  O370  1  0.37359811  0.50555553  0.48490198  1
  O  O371  1  0.37169664  0.47626589  1.01029942  1
  O  O372  1  0.37551050  0.99137162  0.48625794  1
  O  O373  1  0.36969042  0.98347566  0.99798793  1
  O  O374  1  0.88459529  0.49727698  0.49345698  1
  O  O375  1  0.88921091  0.48888691  1.00432535  1
  O  O376  1  0.87078838  0.98345000  0.49494703  1
  O  O377  1  0.88127593  0.99189737  1.00762078  1
  O  O378  1  0.11511646  0.00831276  0.00651353  1
  O  O379  1  0.12211020  0.00113075  0.50864352  1
  O  O380  1  0.11555199  0.50871325  0.00949815  1
  O  O381  1  0.11166235  0.51976692  0.48986096  1
  O  O382  1  0.60791878  0.03641529  -0.00976305  1
  O  O383  1  0.63548898  0.01728904  0.45437288  1
  O  O384  1  0.61310015  0.50166550  0.00156586  1
  O  O385  1  0.63248864  0.51183469  0.49308116  1
  O  O386  1  0.35533066  0.37675775  0.14330692  1
  O  O387  1  0.42179361  0.36425193  0.63979525  1
  O  O388  1  0.36641967  0.86293773  0.12082590  1
  O  O389  1  0.36556619  0.87940673  0.63647353  1
  O  O390  1  0.88558217  0.36230256  0.11264209  1
  O  O391  1  0.87244240  0.37595422  0.61315404  1
  O  O392  1  0.87304923  0.86994877  0.12082523  1
  O  O393  1  0.87984773  0.87636869  0.61080120  1
  O  O394  1  0.14122529  0.11350654  0.38317752  1
  O  O395  1  0.12173316  0.13846347  0.88764906  1
  O  O396  1  0.11576402  0.63929927  0.38121046  1
  O  O397  1  0.11073502  0.63983643  0.88969069  1
  O  O398  1  0.62268797  0.14428427  0.37419064  1
  O  O399  1  0.62665938  0.14789889  0.89072053  1
  O  O400  1  0.62672103  0.62914352  0.38270004  1
  O  O401  1  0.62318140  0.61839108  0.90220231  1
