# generated using pymatgen
data_V73Zn73O256
_symmetry_space_group_name_H-M   'P 1'
_cell_length_a   16.86778907
_cell_length_b   16.85133855
_cell_length_c   16.86930247
_cell_angle_alpha   89.83630916
_cell_angle_beta   89.82784017
_cell_angle_gamma   90.02797921
_symmetry_Int_Tables_number   1
_chemical_formula_structural   V73Zn73O256
_chemical_formula_sum   'V73 Zn73 O256'
_cell_volume   4794.97010836
_cell_formula_units_Z   1
loop_
 _symmetry_equiv_pos_site_id
 _symmetry_equiv_pos_as_xyz
  1  'x, y, z'
loop_
 _atom_site_type_symbol
 _atom_site_label
 _atom_site_symmetry_multiplicity
 _atom_site_fract_x
 _atom_site_fract_y
 _atom_site_fract_z
 _atom_site_occupancy
  V  V0  1  0.87735590  0.49664166  0.37766997  1
  V  V1  1  0.49529009  0.13509456  0.64081919  1
  V  V2  1  0.13130377  -0.00717391  0.62965172  1
  V  V3  1  0.60917847  0.75477284  0.37483294  1
  V  V4  1  0.74191561  0.37034451  0.12897628  1
  V  V5  1  0.26300715  0.63437227  0.37680977  1
  V  V6  1  -0.00953425  0.24690570  0.74316767  1
  V  V7  1  0.63048638  0.38637202  0.74899792  1
  V  V8  1  0.25934343  0.25695419  0.50641817  1
  V  V9  1  0.77076013  0.36841171  0.60851210  1
  V  V10  1  0.37592459  0.25618740  0.10167790  1
  V  V11  1  0.87481147  0.13985478  0.24905800  1
  V  V12  1  0.26395051  0.13887383  0.84890667  1
  V  V13  1  0.62830161  -0.01457019  0.62750481  1
  V  V14  1  0.74471626  0.73656679  0.00114541  1
  V  V15  1  0.75221382  0.87267707  0.12463436  1
  V  V16  1  0.51060380  0.74923712  0.75028266  1
  V  V17  1  0.37148582  0.63132959  0.75174256  1
  V  V18  1  0.88419949  0.00356626  0.86642844  1
  V  V19  1  0.50003977  0.50765200  0.00590764  1
  V  V20  1  -0.01689273  0.87355224  0.38012918  1
  V  V21  1  0.88929600  0.62627117  0.24984742  1
  V  V22  1  0.49371987  0.00123687  -0.00571631  1
  V  V23  1  0.50191505  0.37516407  0.88236862  1
  V  V24  1  0.76286407  -0.00034824  0.25753482  1
  V  V25  1  -0.00104283  0.36540868  0.36481878  1
  V  V26  1  0.75372172  0.12786947  0.86208492  1
  V  V27  1  0.13204577  0.37663427  0.73537751  1
  V  V28  1  0.37525573  0.86249519  -0.01707921  1
  V  V29  1  0.62094083  0.51304929  0.12518896  1
  V  V30  1  0.13113388  0.12275187  0.00816980  1
  V  V31  1  0.37241950  0.88216995  0.49049159  1
  V  V32  1  0.62612501  0.25319484  0.87029116  1
  V  V33  1  0.74056524  0.50306490  0.25057304  1
  V  V34  1  0.24962813  0.49084729  0.73700942  1
  V  V35  1  0.62371528  0.12636996  0.50018121  1
  V  V36  1  0.88130214  0.87246570  -0.00610270  1
  V  V37  1  0.23230350  0.62079591  0.88012990  1
  V  V38  1  0.12353979  0.25229564  0.88120718  1
  V  V39  1  0.24739905  -0.00741971  0.26429463  1
  V  V40  1  0.62436870  0.00427660  0.12125939  1
  V  V41  1  0.37793574  0.47242588  0.37495037  1
  V  V42  1  0.49144155  0.24380668  0.24808953  1
  V  V43  1  0.75043565  -0.02825391  0.75171204  1
  V  V44  1  0.25253553  0.49261148  0.24456107  1
  V  V45  1  0.61460033  0.87448458  0.25545908  1
  V  V46  1  0.47894215  0.64138810  0.13789913  1
  V  V47  1  0.11843830  0.75184014  0.36791945  1
  V  V48  1  0.89073939  0.74455068  0.12985302  1
  V  V49  1  -0.01002320  0.13799427  0.12423105  1
  V  V50  1  0.11081784  0.87552847  0.23387049  1
  V  V51  1  0.62645816  0.26841278  0.36823841  1
  V  V52  1  0.00965632  0.49666297  0.50129259  1
  V  V53  1  0.29230441  0.86136783  0.15079600  1
  V  V54  1  0.00476975  -0.00613100  0.00604146  1
  V  V55  1  0.62356714  0.12718968  -0.00176509  1
  V  V56  1  0.13317709  0.24444477  0.36312723  1
  V  V57  1  0.87404325  0.37847556  0.00770458  1
  V  V58  1  0.13148247  0.11969947  0.49384397  1
  V  V59  1  0.75353336  0.60978794  0.86404978  1
  V  V60  1  0.88502663  0.75421982  0.62070890  1
  V  V61  1  0.23332145  0.75511918  -0.01721589  1
  V  V62  1  0.12434202  0.62633227  0.50589055  1
  V  V63  1  0.51041857  0.88095205  0.86425413  1
  V  V64  1  0.75064666  0.77083099  0.50448478  1
  V  V65  1  0.49297424  0.62498295  0.62527232  1
  V  V66  1  0.62290871  0.62580128  0.49826669  1
  V  V67  1  0.00893055  0.51217678  0.02560857  1
  V  V68  1  -0.00535408  0.39500835  0.87542618  1
  V  V69  1  0.01449155  0.77039850  0.79311670  1
  V  V70  1  -0.01987438  0.00031011  0.49485546  1
  V  V71  1  0.49414513  0.48218983  0.50075594  1
  V  V72  1  0.37357795  0.49435086  0.88563279  1
  Zn  Zn73  1  0.13106829  0.37409576  0.23629876  1
  Zn  Zn74  1  0.76008754  0.24166813  0.00496614  1
  Zn  Zn75  1  0.74806266  0.62832713  0.37498821  1
  Zn  Zn76  1  0.63300657  0.50193989  0.62413142  1
  Zn  Zn77  1  -0.00698920  0.12491233  0.62581006  1
  Zn  Zn78  1  0.76072441  0.13262461  0.39470209  1
  Zn  Zn79  1  0.26762334  0.79457073  0.60007058  1
  Zn  Zn80  1  0.62972993  0.74633265  0.87826752  1
  Zn  Zn81  1  0.78368873  0.49959904  0.74377831  1
  Zn  Zn82  1  0.19148265  0.17693779  0.18499062  1
  Zn  Zn83  1  0.17612972  0.18863960  0.67847835  1
  Zn  Zn84  1  0.27331162  0.68718343  0.18158860  1
  Zn  Zn85  1  0.13988807  0.66961035  0.70430607  1
  Zn  Zn86  1  0.68435303  0.18669347  0.19099234  1
  Zn  Zn87  1  0.68606257  0.19135010  0.68266362  1
  Zn  Zn88  1  0.68556039  0.68761387  0.19028986  1
  Zn  Zn89  1  0.69198783  0.68485116  0.68360859  1
  Zn  Zn90  1  0.31305590  0.30373021  0.30629818  1
  Zn  Zn91  1  0.32203993  0.30268977  0.81778243  1
  Zn  Zn92  1  0.31054330  0.81965010  0.32244978  1
  Zn  Zn93  1  0.20769843  0.81197015  0.78488543  1
  Zn  Zn94  1  0.80661600  0.31312639  0.31418361  1
  Zn  Zn95  1  0.81163526  0.31767339  0.81630538  1
  Zn  Zn96  1  0.80445704  0.80633873  0.31458638  1
  Zn  Zn97  1  0.83765941  0.79416353  0.81895895  1
  Zn  Zn98  1  0.18987110  0.43278840  0.43162621  1
  Zn  Zn99  1  0.17998232  0.43885738  0.94690493  1
  Zn  Zn100  1  0.18948944  0.93027746  0.44831705  1
  Zn  Zn101  1  0.20560590  0.95872625  0.91933572  1
  Zn  Zn102  1  0.68770995  0.44100550  0.44016353  1
  Zn  Zn103  1  0.68417079  0.44298492  0.94440904  1
  Zn  Zn104  1  0.68307571  0.94573969  0.43642059  1
  Zn  Zn105  1  0.69095529  0.93540016  0.93483159  1
  Zn  Zn106  1  0.31001480  0.05233301  0.08605693  1
  Zn  Zn107  1  0.31441449  0.06563374  0.56283923  1
  Zn  Zn108  1  0.30919770  0.56739517  0.06037509  1
  Zn  Zn109  1  0.31186351  0.56146986  0.55712271  1
  Zn  Zn110  1  0.81230425  0.06098613  0.05866043  1
  Zn  Zn111  1  0.80448707  0.05974499  0.56933353  1
  Zn  Zn112  1  0.81860395  0.55740985  0.06470809  1
  Zn  Zn113  1  0.81425052  0.56001960  0.56479640  1
  Zn  Zn114  1  0.43925171  0.42545048  0.18918208  1
  Zn  Zn115  1  0.44550734  0.44284611  0.69920881  1
  Zn  Zn116  1  0.44070446  0.94540463  0.18167132  1
  Zn  Zn117  1  0.45310882  0.92578873  0.64705219  1
  Zn  Zn118  1  0.93396751  0.43313597  0.19280671  1
  Zn  Zn119  1  0.94414554  0.43574261  0.68466111  1
  Zn  Zn120  1  0.94281895  0.93507983  0.18516049  1
  Zn  Zn121  1  0.94082005  0.92837839  0.67714129  1
  Zn  Zn122  1  0.05837517  0.05670073  0.30949247  1
  Zn  Zn123  1  0.06790723  0.06870170  0.81239082  1
  Zn  Zn124  1  0.07094832  0.56086737  0.31245678  1
  Zn  Zn125  1  -0.07263180  0.62090700  0.72093057  1
  Zn  Zn126  1  0.57408140  0.07504059  0.30284809  1
  Zn  Zn127  1  0.56864825  0.06349246  0.80542495  1
  Zn  Zn128  1  0.55246894  0.56425892  0.31463881  1
  Zn  Zn129  1  0.56894671  0.56725007  0.82159050  1
  Zn  Zn130  1  0.45590056  0.19746882  0.45287017  1
  Zn  Zn131  1  0.43724141  0.18727392  0.93022675  1
  Zn  Zn132  1  0.42557946  0.70897552  0.46219530  1
  Zn  Zn133  1  0.43815650  0.68241912  0.93303377  1
  Zn  Zn134  1  0.93897968  0.18100814  0.43464475  1
  Zn  Zn135  1  0.93812081  0.18977297  0.93544490  1
  Zn  Zn136  1  0.93685656  0.68485052  0.44474507  1
  Zn  Zn137  1  0.93583541  0.67279151  0.94373864  1
  Zn  Zn138  1  0.05279400  0.30918513  0.05656834  1
  Zn  Zn139  1  0.06228596  0.31224800  0.55292039  1
  Zn  Zn140  1  0.08450352  0.68321099  0.07977687  1
  Zn  Zn141  1  0.06623285  0.81634159  0.55630109  1
  Zn  Zn142  1  0.55850121  0.31185371  0.06714753  1
  Zn  Zn143  1  0.57514639  0.30510865  0.56516186  1
  Zn  Zn144  1  0.56087464  0.81525517  0.06317282  1
  Zn  Zn145  1  0.55838765  0.80945424  0.56073710  1
  O  O146  1  0.10612631  0.12832512  0.11440361  1
  O  O147  1  0.11275417  0.12157834  0.60490985  1
  O  O148  1  0.17556285  0.65160357  0.13369026  1
  O  O149  1  0.13131333  0.61401687  0.60405524  1
  O  O150  1  0.63834370  0.11403085  0.11106911  1
  O  O151  1  0.62242766  0.12177760  0.61841258  1
  O  O152  1  0.61450896  0.61688535  0.13067066  1
  O  O153  1  0.61366359  0.62057404  0.61732064  1
  O  O154  1  0.37544571  0.37473721  0.38159970  1
  O  O155  1  0.38790290  0.38400569  0.86880194  1
  O  O156  1  0.38624506  0.86220806  0.39181961  1
  O  O157  1  0.39964019  0.87743868  0.88196328  1
  O  O158  1  0.88753792  0.38222007  0.36253591  1
  O  O159  1  0.88844193  0.38014420  0.88479220  1
  O  O160  1  0.88455495  0.86662653  0.37180706  1
  O  O161  1  0.86607230  0.89403432  0.88640198  1
  O  O162  1  0.24556570  -0.00985355  0.36465032  1
  O  O163  1  0.27587049  0.04902856  0.89233258  1
  O  O164  1  0.27003763  0.50359848  0.37734609  1
  O  O165  1  0.25658154  0.50347864  0.88755927  1
  O  O166  1  0.75115864  0.00201704  0.35869771  1
  O  O167  1  0.75652780  0.00588510  0.86379624  1
  O  O168  1  0.75920152  0.49837874  0.36610487  1
  O  O169  1  0.74847682  0.50710909  0.87461113  1
  O  O170  1  0.26616426  0.50465940  0.14631866  1
  O  O171  1  0.26025834  0.49513712  0.63890066  1
  O  O172  1  0.25290230  0.95753714  0.12156316  1
  O  O173  1  0.22944673  1.01498164  0.62345209  1
  O  O174  1  0.74061263  0.49829176  0.13153186  1
  O  O175  1  0.74993940  0.48494323  0.62713545  1
  O  O176  1  0.74527139  0.98857432  0.12709405  1
  O  O177  1  0.74804293  0.99648036  0.64533649  1
  O  O178  1  0.01154241  0.37752071  0.25853692  1
  O  O179  1  0.01520698  0.37405252  0.76225244  1
  O  O180  1  0.00414626  0.88333118  0.26847314  1
  O  O181  1  -0.00085743  0.85819968  0.74359424  1
  O  O182  1  0.50510177  0.34874872  0.24368733  1
  O  O183  1  0.51706504  0.38330136  0.76888548  1
  O  O184  1  0.51706313  0.88364773  0.24477656  1
  O  O185  1  0.49876113  0.85976737  0.75599755  1
  O  O186  1  0.51649476  0.13930120  0.23533304  1
  O  O187  1  0.50828845  0.13433218  0.74352472  1
  O  O188  1  0.49439907  0.62387887  0.23658742  1
  O  O189  1  0.49419477  0.62601564  0.74649193  1
  O  O190  1  0.98544962  0.11605466  0.23532565  1
  O  O191  1  1.00048788  0.14189515  0.74693233  1
  O  O192  1  0.98806720  0.61958219  0.25102466  1
  O  O193  1  1.03125817  0.67582010  0.74116706  1
  O  O194  1  0.37929065  0.25653655  0.00093739  1
  O  O195  1  0.35736541  0.23611246  0.48689718  1
  O  O196  1  0.37177358  0.76035619  -0.01148956  1
  O  O197  1  0.36486488  0.77106357  0.53507360  1
  O  O198  1  0.87641203  0.27032820  -0.00487257  1
  O  O199  1  0.87486102  0.20863712  0.53275785  1
  O  O200  1  0.86587372  0.75359477  0.01749081  1
  O  O201  1  0.85366711  0.74473749  0.49872049  1
  O  O202  1  0.12645834  0.23736616  0.48802884  1
  O  O203  1  0.11284925  0.23475095  0.98938182  1
  O  O204  1  0.12251913  0.73291541  0.49377920  1
  O  O205  1  0.13560009  0.75465026  0.99126120  1
  O  O206  1  0.62092340  0.23638254  0.48309267  1
  O  O207  1  0.62883636  0.24079695  0.99521779  1
  O  O208  1  0.63065472  0.74668671  0.49502639  1
  O  O209  1  0.64327800  0.75584983  1.00545409  1
  O  O210  1  0.48666924  0.24668734  0.12895093  1
  O  O211  1  0.50426155  0.23514327  0.61878504  1
  O  O212  1  0.50222997  0.73848645  0.12275981  1
  O  O213  1  0.50402569  0.73786679  0.64163845  1
  O  O214  1  0.99399888  0.23799219  0.12356383  1
  O  O215  1  1.00781261  0.25671376  0.64011698  1
  O  O216  1  0.98866118  0.74450441  0.12278821  1
  O  O217  1  0.98347576  0.75041939  0.59724171  1
  O  O218  1  0.00058147  0.26117412  0.37693262  1
  O  O219  1  0.00948208  0.25260191  0.86528977  1
  O  O220  1  0.00582781  0.76184473  0.38634469  1
  O  O221  1  -0.05269257  0.76200673  0.87434650  1
  O  O222  1  0.51741632  0.23961344  0.36581613  1
  O  O223  1  0.51618344  0.26337165  0.88448326  1
  O  O224  1  0.51058658  0.75234816  0.39011013  1
  O  O225  1  0.50488598  0.75307156  0.86505565  1
  O  O226  1  0.23392425  0.12756064  0.49360599  1
  O  O227  1  0.22825933  0.11592835  1.02084861  1
  O  O228  1  0.23642787  0.61299535  0.48555262  1
  O  O229  1  0.25483496  0.64228821  0.98846742  1
  O  O230  1  0.73425893  0.12208806  0.50653939  1
  O  O231  1  0.74147905  0.12195170  0.98810136  1
  O  O232  1  0.72957482  0.61805809  0.49786169  1
  O  O233  1  0.75289327  0.63475869  1.00553896  1
  O  O234  1  0.20519235  0.37588977  0.05877718  1
  O  O235  1  0.24493957  0.35746828  0.49625027  1
  O  O236  1  0.26704205  0.86903565  -0.03108086  1
  O  O237  1  0.26280077  0.87060655  0.51134871  1
  O  O238  1  0.76161096  0.38316247  0.01052874  1
  O  O239  1  0.75098747  0.37695100  0.50884000  1
  O  O240  1  0.76149556  0.87103260  0.00889406  1
  O  O241  1  0.74707424  0.86980746  0.49592316  1
  O  O242  1  0.14622918  0.49531886  0.25781438  1
  O  O243  1  0.14152622  0.48445161  0.75009255  1
  O  O244  1  0.12806571  0.98392213  0.25199569  1
  O  O245  1  0.10618534  1.00734896  0.72724532  1
  O  O246  1  0.63352426  0.50429547  0.24620253  1
  O  O247  1  0.62527312  0.49164356  0.75111860  1
  O  O248  1  0.63757639  0.99267982  0.24095284  1
  O  O249  1  0.64522112  0.99437787  0.74860284  1
  O  O250  1  0.34709789  -0.04570716  0.24177683  1
  O  O251  1  0.36944099  -0.00572059  0.74704003  1
  O  O252  1  0.37468715  0.48860488  0.26937969  1
  O  O253  1  0.36430699  0.50143172  0.76196109  1
  O  O254  1  0.86409270  -0.00057609  0.24258506  1
  O  O255  1  0.86922304  -0.00637056  0.76128265  1
  O  O256  1  0.86722847  0.51203307  0.25374020  1
  O  O257  1  0.89622353  0.51567307  0.74670678  1
  O  O258  1  0.11587874  0.35829393  0.37068660  1
  O  O259  1  0.11326883  0.36463700  0.88423746  1
  O  O260  1  0.11930212  0.85876181  0.38432963  1
  O  O261  1  0.19556478  0.91643622  0.81743668  1
  O  O262  1  0.62525082  0.36781971  0.37640352  1
  O  O263  1  0.62416048  0.37260317  0.87217168  1
  O  O264  1  0.62613425  0.87507489  0.36200576  1
  O  O265  1  0.61479635  0.86665049  0.87942701  1
  O  O266  1  0.36828711  0.14168400  0.12186087  1
  O  O267  1  0.39750145  0.11197664  0.62451592  1
  O  O268  1  0.37457078  0.63673120  0.12855610  1
  O  O269  1  0.38340250  0.61592453  0.63522761  1
  O  O270  1  0.88185255  0.12206539  0.12882937  1
  O  O271  1  0.87860648  0.15467325  0.59301795  1
  O  O272  1  0.87100371  0.63509865  0.13732478  1
  O  O273  1  0.87193005  0.63967339  0.61653808  1
  O  O274  1  0.27379468  0.23435789  0.13352132  1
  O  O275  1  0.24569143  0.24149533  0.60612327  1
  O  O276  1  0.24893101  0.78700210  0.09177691  1
  O  O277  1  0.21722972  0.75180617  0.68983947  1
  O  O278  1  0.74174632  0.26665734  0.12332017  1
  O  O279  1  0.74491697  0.27226849  0.63136307  1
  O  O280  1  0.75352585  0.75825586  0.12053746  1
  O  O281  1  0.74529829  0.75071078  0.60725383  1
  O  O282  1  0.23490385  0.24797333  0.37928831  1
  O  O283  1  0.22967441  0.25165265  0.87608890  1
  O  O284  1  0.23595883  0.73974324  0.37135420  1
  O  O285  1  0.24913467  0.73266487  0.87458022  1
  O  O286  1  0.73430144  0.24538562  0.37017343  1
  O  O287  1  0.74519735  0.24503155  0.88189534  1
  O  O288  1  0.73549862  0.74803644  0.38770922  1
  O  O289  1  0.75542936  0.74732881  0.89353977  1
  O  O290  1  -0.00103851  0.11674339  0.00894255  1
  O  O291  1  0.00680743  0.10961160  0.49372471  1
  O  O292  1  0.00453500  0.61987531  0.01598826  1
  O  O293  1  0.01313012  0.60987374  0.48904537  1
  O  O294  1  0.51414109  0.11438481  -0.01794380  1
  O  O295  1  0.51669526  0.11779933  0.51243319  1
  O  O296  1  0.49048423  0.61478739  0.01492369  1
  O  O297  1  0.50426842  0.62902530  0.51199385  1
  O  O298  1  0.50466329  0.38452493  0.50940742  1
  O  O299  1  0.50849358  0.38920285  0.99106784  1
  O  O300  1  0.47147971  0.87896665  0.54099869  1
  O  O301  1  0.49826172  0.88006581  0.98733123  1
  O  O302  1  1.00756286  0.38609750  0.47975765  1
  O  O303  1  0.99197698  0.38470611  0.99469018  1
  O  O304  1  0.99703024  0.88878023  0.48954376  1
  O  O305  1  0.99126631  0.88974013  0.99872602  1
  O  O306  1  0.48771208  0.50052273  0.38842082  1
  O  O307  1  0.49448338  0.49891635  0.88628678  1
  O  O308  1  0.46509481  1.02036612  0.35780193  1
  O  O309  1  0.51218650  0.98745936  0.87637128  1
  O  O310  1  0.99362417  0.48949337  0.37277780  1
  O  O311  1  1.00539566  0.49101971  0.88322758  1
  O  O312  1  0.99894889  0.98804983  0.38473297  1
  O  O313  1  0.98753292  1.01015427  0.88070527  1
  O  O314  1  -0.00192657  0.00549205  0.10923417  1
  O  O315  1  -0.00025522  0.00206996  0.60762954  1
  O  O316  1  0.00371695  0.49639393  0.12492328  1
  O  O317  1  0.00531237  0.48860584  0.60004141  1
  O  O318  1  0.51638927  -0.00424334  0.11078081  1
  O  O319  1  0.52666187  0.01226830  0.64639144  1
  O  O320  1  0.50319203  0.50382155  0.12289355  1
  O  O321  1  0.49875981  0.50550072  0.61452859  1
  O  O322  1  0.25007946  0.38524477  0.25622662  1
  O  O323  1  0.24263720  0.37971333  0.75918527  1
  O  O324  1  0.22221992  0.87356406  0.24774855  1
  O  O325  1  0.31877307  0.94037026  0.73168893  1
  O  O326  1  0.75931324  0.38788728  0.23448726  1
  O  O327  1  0.74146088  0.38511831  0.75304080  1
  O  O328  1  0.74822620  0.88402650  0.24228536  1
  O  O329  1  0.75611465  0.87402507  0.76243799  1
  O  O330  1  0.24469828  0.08945777  0.23553183  1
  O  O331  1  0.23729327  0.12772106  0.75366076  1
  O  O332  1  0.25992018  0.60794358  0.27311893  1
  O  O333  1  0.25188485  0.60382771  0.76453489  1
  O  O334  1  0.76219132  0.11119403  0.23962860  1
  O  O335  1  0.75025105  0.12923861  0.76079014  1
  O  O336  1  0.75533171  0.61658254  0.25294704  1
  O  O337  1  0.74930250  0.61849336  0.75875566  1
  O  O338  1  0.41423607  0.07164105  0.37394337  1
  O  O339  1  0.35945099  0.18510010  0.84454279  1
  O  O340  1  0.36265295  0.64154082  0.39104887  1
  O  O341  1  0.37255130  0.60971703  0.86785773  1
  O  O342  1  0.87290386  0.12807837  0.35533194  1
  O  O343  1  0.86634119  0.11174728  0.88316553  1
  O  O344  1  0.87339372  0.61977633  0.36242005  1
  O  O345  1  0.85300324  0.62453091  0.88253421  1
  O  O346  1  0.14323016  0.36461538  0.10703822  1
  O  O347  1  0.12688181  0.36951383  0.63761072  1
  O  O348  1  0.10014136  0.86648043  0.13914822  1
  O  O349  1  0.12710547  0.89097195  0.61392912  1
  O  O350  1  0.63818487  0.38723922  0.11907738  1
  O  O351  1  0.62411354  0.37739999  0.64279019  1
  O  O352  1  0.63444638  0.88126235  0.13342054  1
  O  O353  1  0.62167077  0.88592563  0.62489754  1
  O  O354  1  0.13128682  0.24681697  0.25845334  1
  O  O355  1  0.11901584  0.26204336  0.76097631  1
  O  O356  1  0.11292851  0.76182686  0.26625012  1
  O  O357  1  0.10410202  0.78231508  0.83461754  1
  O  O358  1  0.62377722  0.24887602  0.26261430  1
  O  O359  1  0.63348711  0.26560677  0.76481466  1
  O  O360  1  0.63078710  0.76635373  0.25811434  1
  O  O361  1  0.61319234  0.74108696  0.75230780  1
  O  O362  1  0.39018004  0.23522743  0.26337228  1
  O  O363  1  0.37275418  0.28663303  0.70115035  1
  O  O364  1  0.33351645  0.78146677  0.21800296  1
  O  O365  1  0.38785158  0.73082979  0.75732300  1
  O  O366  1  0.86707906  0.23850358  0.24341492  1
  O  O367  1  0.89245750  0.26288035  0.75606110  1
  O  O368  1  0.87059684  0.73888879  0.24126692  1
  O  O369  1  0.88287784  0.73771546  0.72951377  1
  O  O370  1  0.38670139  0.49807807  0.49337678  1
  O  O371  1  0.38128295  0.50058647  0.99339203  1
  O  O372  1  0.36509777  0.98414316  0.50134741  1
  O  O373  1  0.39157176  0.99770422  1.00412981  1
  O  O374  1  0.88842449  0.50927947  0.48282056  1
  O  O375  1  0.89204563  0.49084540  1.00621959  1
  O  O376  1  0.88084710  1.00751607  0.49894146  1
  O  O377  1  0.88407084  0.99304978  0.99289445  1
  O  O378  1  0.11178861  0.01141536  -0.01608659  1
  O  O379  1  0.11943876  0.01037729  0.50058659  1
  O  O380  1  0.10764913  0.50026006  0.00745562  1
  O  O381  1  0.11577172  0.50726253  0.48124200  1
  O  O382  1  0.62262059  0.00509800  0.00325435  1
  O  O383  1  0.63295210  0.00476401  0.52075264  1
  O  O384  1  0.61365574  0.50397895  0.01278581  1
  O  O385  1  0.60741758  0.50860243  0.49705018  1
  O  O386  1  0.37286500  0.35607165  0.12769673  1
  O  O387  1  0.38038951  0.34573241  0.65435867  1
  O  O388  1  0.38594169  0.87469451  0.09758311  1
  O  O389  1  0.34495248  0.88674902  0.66896762  1
  O  O390  1  0.86459648  0.37867539  0.11550525  1
  O  O391  1  0.87066862  0.37365808  0.62229773  1
  O  O392  1  0.87236450  0.86337270  0.12096008  1
  O  O393  1  0.86852239  0.85618044  0.62362637  1
  O  O394  1  0.11168405  0.13577753  0.37972095  1
  O  O395  1  0.13465753  0.13547263  0.88366679  1
  O  O396  1  0.12934047  0.63778294  0.37725118  1
  O  O397  1  0.13702798  0.61391523  0.87769118  1
  O  O398  1  0.63102643  0.10786445  0.39347162  1
  O  O399  1  0.63484033  0.13348139  0.87858292  1
  O  O400  1  0.61983533  0.63480723  0.38212880  1
  O  O401  1  0.64409133  0.63022569  0.88042838  1
