# generated using pymatgen
data_V73Zn73O256
_symmetry_space_group_name_H-M   'P 1'
_cell_length_a   16.85651031
_cell_length_b   16.84721948
_cell_length_c   16.85192402
_cell_angle_alpha   89.86311485
_cell_angle_beta   90.00634974
_cell_angle_gamma   90.06026402
_symmetry_Int_Tables_number   1
_chemical_formula_structural   V73Zn73O256
_chemical_formula_sum   'V73 Zn73 O256'
_cell_volume   4785.68285062
_cell_formula_units_Z   1
loop_
 _symmetry_equiv_pos_site_id
 _symmetry_equiv_pos_as_xyz
  1  'x, y, z'
loop_
 _atom_site_type_symbol
 _atom_site_label
 _atom_site_symmetry_multiplicity
 _atom_site_fract_x
 _atom_site_fract_y
 _atom_site_fract_z
 _atom_site_occupancy
  V  V0  1  0.00026396  0.75018550  0.74034893  1
  V  V1  1  0.37151765  0.87527681  -0.00012130  1
  V  V2  1  0.00980378  0.37257198  0.37385421  1
  V  V3  1  0.13211609  0.74947426  0.38292027  1
  V  V4  1  0.36326333  0.00397340  0.86598530  1
  V  V5  1  0.25574759  0.49766016  0.24346130  1
  V  V6  1  0.75178699  0.75318149  0.00209928  1
  V  V7  1  0.72969205  0.88503488  0.62967104  1
  V  V8  1  0.74096945  0.73998052  0.48689251  1
  V  V9  1  0.74455915  0.11529971  0.88326092  1
  V  V10  1  0.86088156  0.61944524  0.24965588  1
  V  V11  1  0.49866923  0.37908345  0.38155741  1
  V  V12  1  0.37622208  0.11663121  0.25192548  1
  V  V13  1  0.00162721  0.87809387  0.37676463  1
  V  V14  1  0.37297006  0.25695722  0.62404592  1
  V  V15  1  0.74652424  0.35728471  0.61376014  1
  V  V16  1  0.62652337  0.75148452  0.86896886  1
  V  V17  1  0.63277914  0.40343272  0.24875261  1
  V  V18  1  0.51012190  0.25795079  0.74742815  1
  V  V19  1  0.24894553  0.12285306  0.37454336  1
  V  V20  1  0.25185974  0.39078658  0.62497605  1
  V  V21  1  0.63368967  -0.00623092  0.11854704  1
  V  V22  1  0.86588450  0.11750058  0.74834341  1
  V  V23  1  0.50610106  0.87780120  0.86909189  1
  V  V24  1  0.12112444  0.77580673  0.86286892  1
  V  V25  1  0.50784733  0.12384475  0.12299319  1
  V  V26  1  0.38018052  -0.00361094  0.39679863  1
  V  V27  1  0.35472260  0.49333338  0.88845579  1
  V  V28  1  -0.00504607  0.13984759  0.62017564  1
  V  V29  1  0.34845765  0.61763243  0.76318814  1
  V  V30  1  0.51075082  0.11336335  0.61726640  1
  V  V31  1  0.36321223  0.12775184  0.75174961  1
  V  V32  1  0.62239290  0.61911544  0.00913071  1
  V  V33  1  0.36685542  0.25747478  0.12027716  1
  V  V34  1  0.74918656  0.38393012  0.11889123  1
  V  V35  1  -0.00379932  0.01095213  -0.01930499  1
  V  V36  1  0.28895630  0.83849306  0.61268443  1
  V  V37  1  0.88215657  0.36787825  0.50451989  1
  V  V38  1  0.87440917  0.75819864  0.12541406  1
  V  V39  1  0.12599933  0.36972096  0.24897059  1
  V  V40  1  0.26058181  0.62705503  0.38460556  1
  V  V41  1  0.63003245  0.24874001  0.89289003  1
  V  V42  1  0.87350676  0.72941904  0.62756534  1
  V  V43  1  0.50305247  0.49677123  0.01710398  1
  V  V44  1  0.12218480  0.37369654  0.75903469  1
  V  V45  1  0.24763524  0.25698144  0.49560517  1
  V  V46  1  0.51591916  0.24680002  0.25651601  1
  V  V47  1  0.36955894  0.63275855  0.22766373  1
  V  V48  1  0.75055711  -0.00185502  0.26089969  1
  V  V49  1  0.49041441  0.73372920  0.75725533  1
  V  V50  1  0.88392763  0.87396444  -0.02056726  1
  V  V51  1  0.48823244  0.75358469  0.22807572  1
  V  V52  1  0.50233473  0.00601957  -0.00382031  1
  V  V53  1  0.10675978  0.50372629  0.62552498  1
  V  V54  1  0.13151092  0.88034192  0.24996161  1
  V  V55  1  0.62680541  0.86305456  0.24704207  1
  V  V56  1  0.25109561  0.74707394  -0.00742518  1
  V  V57  1  -0.00910405  0.25899199  0.76744209  1
  V  V58  1  0.12276724  0.50306330  0.12171259  1
  V  V59  1  0.12094577  0.62265389  -0.01349704  1
  V  V60  1  0.13112285  -0.00609171  0.64112268  1
  V  V61  1  0.49358771  0.86424955  0.38522736  1
  V  V62  1  -0.02532317  0.11791640  0.17093293  1
  V  V63  1  0.87664395  0.50773214  0.38244433  1
  V  V64  1  0.87712709  0.87299279  0.50812681  1
  V  V65  1  0.10800224  0.62100282  0.50281656  1
  V  V66  1  0.24643681  0.88190663  0.12392714  1
  V  V67  1  0.00457998  0.74442914  0.24897206  1
  V  V68  1  0.75619612  0.62007625  0.86287939  1
  V  V69  1  0.19602494  0.19077544  -0.06105099  1
  V  V70  1  0.50102996  0.37974327  0.87865786  1
  V  V71  1  0.74604600  0.49040874  0.73260840  1
  V  V72  1  0.00386105  -0.00018641  0.50307961  1
  Zn  Zn73  1  0.12261407  0.01335057  0.11812187  1
  Zn  Zn74  1  0.88685473  0.49478382  0.87515815  1
  Zn  Zn75  1  0.87782156  0.00908424  0.36684676  1
  Zn  Zn76  1  0.85932010  0.24297125  0.13497042  1
  Zn  Zn77  1  -0.00312233  0.62474951  0.11637131  1
  Zn  Zn78  1  0.88345319  0.37737756  -0.00362996  1
  Zn  Zn79  1  0.12531697  0.12843846  0.50046782  1
  Zn  Zn80  1  0.38065945  0.49368220  0.41576383  1
  Zn  Zn81  1  0.51513418  0.57388035  0.57104946  1
  Zn  Zn82  1  0.16435129  0.20200546  0.15137360  1
  Zn  Zn83  1  0.17978982  0.19167738  0.68658259  1
  Zn  Zn84  1  0.18982174  0.69229579  0.18126895  1
  Zn  Zn85  1  0.19073761  0.69351863  0.68117675  1
  Zn  Zn86  1  0.72617123  0.20724056  0.22739925  1
  Zn  Zn87  1  0.68814462  0.18907835  0.68205173  1
  Zn  Zn88  1  0.68676007  0.68707339  0.18668624  1
  Zn  Zn89  1  0.67850151  0.68324437  0.67523906  1
  Zn  Zn90  1  0.32249241  0.31020868  0.30815427  1
  Zn  Zn91  1  0.31063706  0.31895740  0.81459746  1
  Zn  Zn92  1  0.31460089  0.81426081  0.31251327  1
  Zn  Zn93  1  0.30807208  0.81675250  0.80442694  1
  Zn  Zn94  1  0.83338607  0.33591262  0.29309599  1
  Zn  Zn95  1  0.80831024  0.31280979  0.80891551  1
  Zn  Zn96  1  0.81639210  0.81326546  0.31104077  1
  Zn  Zn97  1  0.81068183  0.81116026  0.80233279  1
  Zn  Zn98  1  0.19117119  0.44449163  0.43791548  1
  Zn  Zn99  1  0.05568103  0.43381281  0.94310928  1
  Zn  Zn100  1  0.19369913  0.93679095  0.44905692  1
  Zn  Zn101  1  0.18204558  0.94909954  0.93941068  1
  Zn  Zn102  1  0.69670156  0.42737881  0.42626336  1
  Zn  Zn103  1  0.68995995  0.43434433  0.93583152  1
  Zn  Zn104  1  0.68405880  0.91224291  0.43584055  1
  Zn  Zn105  1  0.69380101  0.93530310  0.93224564  1
  Zn  Zn106  1  0.31600853  0.06566691  0.06383582  1
  Zn  Zn107  1  0.31344979  0.06803490  0.56775230  1
  Zn  Zn108  1  0.30787922  0.55742679  0.05318370  1
  Zn  Zn109  1  0.35311702  0.65154035  0.56302587  1
  Zn  Zn110  1  0.81590453  0.05525114  0.06167875  1
  Zn  Zn111  1  0.81587790  0.05701334  0.56198892  1
  Zn  Zn112  1  0.81228109  0.55987756  0.05957350  1
  Zn  Zn113  1  0.80907815  0.55779360  0.55349718  1
  Zn  Zn114  1  0.43684728  0.43293160  0.19319198  1
  Zn  Zn115  1  0.42433458  0.45537998  0.69943178  1
  Zn  Zn116  1  0.43469095  0.93809978  0.18398621  1
  Zn  Zn117  1  0.44693438  0.92945317  0.68014384  1
  Zn  Zn118  1  0.94223237  0.43638732  0.18008394  1
  Zn  Zn119  1  0.92860760  0.44259244  0.69505581  1
  Zn  Zn120  1  0.94001185  0.93517706  0.18584071  1
  Zn  Zn121  1  0.94466035  0.93721945  0.69331542  1
  Zn  Zn122  1  0.08224599  0.08425500  0.29160016  1
  Zn  Zn123  1  0.06538835  0.07677699  0.81331627  1
  Zn  Zn124  1  0.06406328  0.55934388  0.31556265  1
  Zn  Zn125  1  0.06183660  0.56599915  0.80392345  1
  Zn  Zn126  1  0.55868968  0.04751328  0.30771172  1
  Zn  Zn127  1  0.56361649  0.06869628  0.80325599  1
  Zn  Zn128  1  0.54057233  0.55735412  0.29221072  1
  Zn  Zn129  1  0.57315638  0.55754480  0.81532398  1
  Zn  Zn130  1  0.43678017  0.19283769  0.44039554  1
  Zn  Zn131  1  0.43291843  0.19120351  0.93637709  1
  Zn  Zn132  1  0.45295378  0.66866398  0.42101896  1
  Zn  Zn133  1  0.43629713  0.68093468  0.93539561  1
  Zn  Zn134  1  0.93973202  0.19182165  0.42537368  1
  Zn  Zn135  1  0.91622454  0.18916359  0.93883541  1
  Zn  Zn136  1  0.93402875  0.69179336  0.43540698  1
  Zn  Zn137  1  0.94145152  0.68838781  0.92890787  1
  Zn  Zn138  1  0.01111857  0.27577837  0.05278938  1
  Zn  Zn139  1  0.06635909  0.31962491  0.55603560  1
  Zn  Zn140  1  0.06410138  0.81428447  0.05983817  1
  Zn  Zn141  1  0.06676301  0.81169690  0.56717945  1
  Zn  Zn142  1  0.56766009  0.31304866  0.07075308  1
  Zn  Zn143  1  0.53621634  0.37769432  0.59107248  1
  Zn  Zn144  1  0.56310595  0.81420754  0.05480587  1
  Zn  Zn145  1  0.54947515  0.75405465  0.56026634  1
  O  O146  1  0.10161398  0.11218274  0.17524961  1
  O  O147  1  0.10821354  0.12031750  0.62324926  1
  O  O148  1  0.12806131  0.61930161  0.11520525  1
  O  O149  1  0.12853793  0.61604643  0.61274631  1
  O  O150  1  0.61236779  0.10255663  0.13090511  1
  O  O151  1  0.61016486  0.13142632  0.62703993  1
  O  O152  1  0.62766844  0.62863768  0.10847523  1
  O  O153  1  0.59391223  0.65088987  0.60883277  1
  O  O154  1  0.38911933  0.37986743  0.37332162  1
  O  O155  1  0.38609087  0.38357479  0.88048714  1
  O  O156  1  0.37762972  0.88634137  0.37613906  1
  O  O157  1  0.37918031  0.88900753  0.87988618  1
  O  O158  1  0.88967427  0.38696985  0.37787519  1
  O  O159  1  0.85739914  0.38005383  0.88255068  1
  O  O160  1  0.89092968  0.86761425  0.38548160  1
  O  O161  1  0.87852360  0.86441675  0.88068010  1
  O  O162  1  0.26454719  0.01285645  0.38721361  1
  O  O163  1  0.26448994  -0.00168732  0.87328354  1
  O  O164  1  0.25890870  0.51403071  0.36814142  1
  O  O165  1  0.26099117  0.48623752  0.90850275  1
  O  O166  1  0.75106425  -0.02262406  0.36307234  1
  O  O167  1  0.73530462  0.01606143  0.86492487  1
  O  O168  1  0.77718220  0.49324684  0.37076354  1
  O  O169  1  0.74609807  0.51617745  0.87459622  1
  O  O170  1  0.24469218  0.50435504  0.13630028  1
  O  O171  1  0.24823734  0.48837758  0.62298571  1
  O  O172  1  0.24252212  0.98779750  0.11461378  1
  O  O173  1  0.22989742  1.01313957  0.62115076  1
  O  O174  1  0.75260541  0.48690792  0.12701773  1
  O  O175  1  0.74925556  0.49708292  0.62946185  1
  O  O176  1  0.73638710  0.99602428  0.12979310  1
  O  O177  1  0.74203991  0.98665727  0.60823225  1
  O  O178  1  0.01756223  0.37994773  0.25616600  1
  O  O179  1  0.00570649  0.36616329  0.74240837  1
  O  O180  1  0.00846187  0.86460419  0.25817555  1
  O  O181  1  -0.00502960  0.85437347  0.74904501  1
  O  O182  1  0.51467934  0.36252012  0.25105594  1
  O  O183  1  0.49035117  0.36432424  0.76690890  1
  O  O184  1  0.49954565  0.86396214  0.24636370  1
  O  O185  1  0.48404077  0.86332067  0.76892232  1
  O  O186  1  0.49873735  0.12914690  0.24762259  1
  O  O187  1  0.49284607  0.14371556  0.74013364  1
  O  O188  1  0.48219893  0.64061471  0.24789993  1
  O  O189  1  0.50027845  0.63171038  0.76693473  1
  O  O190  1  0.96908142  0.10660102  0.27370533  1
  O  O191  1  0.99334568  0.14266106  0.73884153  1
  O  O192  1  1.00229173  0.63917902  0.25236474  1
  O  O193  1  1.00721542  0.64625405  0.74871592  1
  O  O194  1  0.38676015  0.24792445  0.02055198  1
  O  O195  1  0.36650114  0.25231406  0.51615472  1
  O  O196  1  0.35962073  0.76011670  -0.01582337  1
  O  O197  1  0.44614171  0.71032760  0.52405124  1
  O  O198  1  0.89411838  0.26164699  0.02146634  1
  O  O199  1  0.88198350  0.26929853  0.49223721  1
  O  O200  1  0.87360695  0.75632551  0.00457612  1
  O  O201  1  0.87501492  0.75482813  0.51122791  1
  O  O202  1  0.14268527  0.25002392  0.50077725  1
  O  O203  1  0.11850270  0.22564830  1.03593507  1
  O  O204  1  0.12159602  0.73570127  0.49372513  1
  O  O205  1  0.13028703  0.74660953  0.98425666  1
  O  O206  1  0.65092082  0.21521317  0.48046172  1
  O  O207  1  0.61927758  0.24475888  0.99193120  1
  O  O208  1  0.64279805  0.76226993  0.49243477  1
  O  O209  1  0.63270227  0.74308547  0.99385701  1
  O  O210  1  0.50127735  0.24051207  0.13854494  1
  O  O211  1  0.48955482  0.27060065  0.63977673  1
  O  O212  1  0.49349298  0.75500747  0.12823023  1
  O  O213  1  0.49197485  0.76099771  0.66277523  1
  O  O214  1  0.99249277  0.21924574  0.15213317  1
  O  O215  1  1.00208391  0.24017533  0.61366496  1
  O  O216  1  0.99535992  0.74909764  0.13359921  1
  O  O217  1  0.98902119  0.74917720  0.62880703  1
  O  O218  1  0.00144832  0.27052487  0.37028143  1
  O  O219  1  -0.00556445  0.25082336  0.86607578  1
  O  O220  1  0.01215698  0.75674906  0.37024394  1
  O  O221  1  0.01631408  0.75024989  0.86546894  1
  O  O222  1  0.49395914  0.25744948  0.36125469  1
  O  O223  1  0.50747312  0.25412170  0.86847809  1
  O  O224  1  0.48584363  0.76253193  0.35410524  1
  O  O225  1  0.50793769  0.75778860  0.87880599  1
  O  O226  1  0.25284020  0.13886062  0.49309821  1
  O  O227  1  0.24604368  0.12216980  0.99616720  1
  O  O228  1  0.25788087  0.62617613  0.48421996  1
  O  O229  1  0.24209812  0.64195261  1.00157994  1
  O  O230  1  0.79280477  0.12453323  0.46547160  1
  O  O231  1  0.75709044  0.11804505  0.98288105  1
  O  O232  1  0.75265377  0.63963913  0.49962713  1
  O  O233  1  0.74154307  0.63366041  0.99145010  1
  O  O234  1  0.16498981  0.28324423  -0.00759564  1
  O  O235  1  0.24861269  0.36855244  0.50985073  1
  O  O236  1  0.25378337  0.87189478  0.00087103  1
  O  O237  1  0.24466688  0.87140742  0.52451312  1
  O  O238  1  0.74777365  0.37573284  0.01583892  1
  O  O239  1  0.77029073  0.38098720  0.50303344  1
  O  O240  1  0.76395173  0.86217137  -0.00830470  1
  O  O241  1  0.76111305  0.86449506  0.50810776  1
  O  O242  1  0.14311426  0.50800292  0.24556588  1
  O  O243  1  0.12175328  0.48986863  0.73262136  1
  O  O244  1  0.12685314  0.97903114  0.26407970  1
  O  O245  1  0.11820241  1.00811089  0.74015965  1
  O  O246  1  0.62726205  0.50434225  0.24726165  1
  O  O247  1  0.64649937  0.49445042  0.75680033  1
  O  O248  1  0.62866029  0.98313595  0.23934288  1
  O  O249  1  0.60350388  0.98016608  0.75026070  1
  O  O250  1  0.37884030  0.01215027  0.25318178  1
  O  O251  1  0.38151381  0.01230888  0.75876063  1
  O  O252  1  0.36611177  0.51520218  0.24259156  1
  O  O253  1  0.35723755  0.50230761  0.77732419  1
  O  O254  1  0.85518949  -0.01986556  0.25140907  1
  O  O255  1  0.88513781  0.01912909  0.74931665  1
  O  O256  1  0.88131614  0.51829293  0.24914776  1
  O  O257  1  0.85307993  0.49888334  0.75877737  1
  O  O258  1  0.11908574  0.38752512  0.36558579  1
  O  O259  1  0.12528727  0.38307058  0.85666816  1
  O  O260  1  0.12443413  0.86527383  0.37505731  1
  O  O261  1  0.12286262  0.87432922  0.87074503  1
  O  O262  1  0.61489448  0.38051149  0.35732787  1
  O  O263  1  0.61534603  0.36017368  0.87999024  1
  O  O264  1  0.60539309  0.87815391  0.35510950  1
  O  O265  1  0.61687221  0.86430525  0.88389625  1
  O  O266  1  0.38977430  0.12591423  0.13337793  1
  O  O267  1  0.38393275  0.13525173  0.63756044  1
  O  O268  1  0.36606807  0.62857473  0.12892635  1
  O  O269  1  0.37940986  0.60605959  0.66731673  1
  O  O270  1  0.87449325  0.11813873  0.13579471  1
  O  O271  1  0.88708678  0.12334837  0.63109082  1
  O  O272  1  0.87791077  0.63427556  0.13555932  1
  O  O273  1  0.87397445  0.63123679  0.62078196  1
  O  O274  1  0.26889546  0.23647721  0.13134065  1
  O  O275  1  0.25474920  0.25416369  0.61497894  1
  O  O276  1  0.23996818  0.76525315  0.10217595  1
  O  O277  1  0.27636829  0.73194423  0.61150881  1
  O  O278  1  0.74122515  0.26822404  0.13102065  1
  O  O279  1  0.75803479  0.25775257  0.62103756  1
  O  O280  1  0.75991151  0.74354980  0.11177871  1
  O  O281  1  0.76368996  0.75375536  0.61761396  1
  O  O282  1  0.26660883  0.24262415  0.38961618  1
  O  O283  1  0.26270180  0.24026715  0.87970439  1
  O  O284  1  0.24104586  0.73939374  0.36782907  1
  O  O285  1  0.23456268  0.76194018  0.88240595  1
  O  O286  1  0.68952386  0.23824271  0.42315985  1
  O  O287  1  0.73300643  0.24412742  0.86932451  1
  O  O288  1  0.75858202  0.75377772  0.38702592  1
  O  O289  1  0.74429695  0.74340397  0.87860766  1
  O  O290  1  -0.01828016  0.10992807  -0.00203861  1
  O  O291  1  -0.00280872  0.12003805  0.50457308  1
  O  O292  1  0.01723345  0.63424701  -0.00050828  1
  O  O293  1  0.00999136  0.62217083  0.49447133  1
  O  O294  1  0.49591113  0.11337460  0.00643076  1
  O  O295  1  0.49441497  0.13648077  0.51946479  1
  O  O296  1  0.51390211  0.61499786  -0.00508435  1
  O  O297  1  0.56589588  0.62076119  0.45028732  1
  O  O298  1  0.51127435  0.36533646  0.47919172  1
  O  O299  1  0.50999251  0.38895939  0.99741255  1
  O  O300  1  0.50752615  0.85878682  0.48103889  1
  O  O301  1  0.48972910  0.88262178  0.99084035  1
  O  O302  1  0.99688899  0.38011765  0.48560679  1
  O  O303  1  1.00054538  0.38340102  1.02596700  1
  O  O304  1  0.99851312  0.87884105  0.49510239  1
  O  O305  1  0.98769833  0.87848748  0.99985683  1
  O  O306  1  0.49362120  0.48536012  0.36496870  1
  O  O307  1  0.50450006  0.48587680  0.88095301  1
  O  O308  1  0.48579339  0.98434308  0.37236468  1
  O  O309  1  0.49752427  0.99601115  0.88283780  1
  O  O310  1  0.99085955  0.48942387  0.36628985  1
  O  O311  1  1.00129616  0.49949190  0.86916446  1
  O  O312  1  1.00101140  0.98668618  0.38227039  1
  O  O313  1  1.00021354  1.00709676  0.88113372  1
  O  O314  1  -0.00431358  0.01520882  0.12793903  1
  O  O315  1  0.00543245  0.00992619  0.61703263  1
  O  O316  1  0.01985979  0.51066329  0.13868203  1
  O  O317  1  0.00840115  0.49884995  0.62423126  1
  O  O318  1  0.50346731  0.00318318  0.11434308  1
  O  O319  1  0.50026737  0.01374933  0.62778581  1
  O  O320  1  0.49892835  0.49704440  0.11639327  1
  O  O321  1  0.50788168  0.47742796  0.63164976  1
  O  O322  1  0.24618609  0.39359402  0.26324725  1
  O  O323  1  0.23184473  0.36545864  0.73544249  1
  O  O324  1  0.24390638  0.86298858  0.23488793  1
  O  O325  1  0.26228563  0.86239607  0.71084440  1
  O  O326  1  0.73317460  0.38182955  0.25438516  1
  O  O327  1  0.75475366  0.37902619  0.72562592  1
  O  O328  1  0.73040783  0.86760734  0.24915750  1
  O  O329  1  0.75218333  0.87242868  0.72941169  1
  O  O330  1  0.26431674  0.13317276  0.27206867  1
  O  O331  1  0.26446176  0.13226240  0.74415004  1
  O  O332  1  0.25831990  0.62225068  0.25172054  1
  O  O333  1  0.24963163  0.63015606  0.75944397  1
  O  O334  1  0.73503741  0.09631558  0.25959584  1
  O  O335  1  0.76291609  0.12768020  0.74356793  1
  O  O336  1  0.76183043  0.63102327  0.25156516  1
  O  O337  1  0.74134606  0.62164845  0.75805843  1
  O  O338  1  0.37708558  0.11276785  0.37356456  1
  O  O339  1  0.38185952  0.11532085  0.86326479  1
  O  O340  1  0.36300049  0.63208233  0.35733975  1
  O  O341  1  0.37283429  0.60428846  0.87771403  1
  O  O342  1  0.84590923  0.12181097  0.40437967  1
  O  O343  1  0.85580539  0.13301416  0.85934752  1
  O  O344  1  0.88379243  0.61865304  0.36166714  1
  O  O345  1  0.85798161  0.63011912  0.87664807  1
  O  O346  1  0.13045807  0.39736959  0.14351224  1
  O  O347  1  0.13123233  0.39018941  0.62197788  1
  O  O348  1  0.12814868  0.87852344  0.13419639  1
  O  O349  1  0.11717848  0.89315606  0.62694174  1
  O  O350  1  0.63155037  0.37755938  0.14181107  1
  O  O351  1  0.64853517  0.36627010  0.59936465  1
  O  O352  1  0.61568084  0.88329073  0.13407819  1
  O  O353  1  0.63425869  0.86316596  0.61722847  1
  O  O354  1  0.14109511  0.27252031  0.24525461  1
  O  O355  1  0.10777870  0.26413755  0.74261970  1
  O  O356  1  0.12141387  0.75523112  0.25916930  1
  O  O357  1  0.12111166  0.75395806  0.75560628  1
  O  O358  1  0.61540710  0.23640094  0.25750449  1
  O  O359  1  0.61123414  0.25416869  0.75030327  1
  O  O360  1  0.60792744  0.75621737  0.23963989  1
  O  O361  1  0.61359175  0.74322551  0.76570622  1
  O  O362  1  0.38916062  0.23644135  0.24351623  1
  O  O363  1  0.37884392  0.24243724  0.74632046  1
  O  O364  1  0.37655142  0.74454361  0.23911509  1
  O  O365  1  0.38141860  0.72782056  0.77995480  1
  O  O366  1  0.83521680  0.23309762  0.25582493  1
  O  O367  1  0.88708367  0.24646195  0.74791989  1
  O  O368  1  0.88377565  0.74290110  0.24474537  1
  O  O369  1  0.88265208  0.74602887  0.73498581  1
  O  O370  1  0.41486846  0.56152226  0.50089059  1
  O  O371  1  0.39431500  0.50559737  0.99634955  1
  O  O372  1  0.38109688  1.00412647  0.49528819  1
  O  O373  1  0.38244233  0.99636555  0.98681831  1
  O  O374  1  0.88339284  0.49896060  0.48670599  1
  O  O375  1  0.87860321  0.49702994  0.99464816  1
  O  O376  1  0.88891004  0.98867031  0.49425695  1
  O  O377  1  0.88070524  0.98085411  0.99875131  1
  O  O378  1  0.10137630  -0.00406810  0.00398601  1
  O  O379  1  0.11298797  0.00482454  0.50291150  1
  O  O380  1  0.12907372  0.51226505  0.01238063  1
  O  O381  1  0.12860219  0.51306925  0.50857789  1
  O  O382  1  0.61805604  -0.01260287  0.01161024  1
  O  O383  1  0.62679328  0.02496457  0.46544100  1
  O  O384  1  0.61806394  0.51107342  -0.00250519  1
  O  O385  1  0.63135502  0.50971845  0.48328581  1
  O  O386  1  0.37412407  0.35743147  0.13827031  1
  O  O387  1  0.35774783  0.37010933  0.63989146  1
  O  O388  1  0.36588645  0.88283818  0.10718941  1
  O  O389  1  0.38576119  0.86804003  0.60724975  1
  O  O390  1  0.85845286  0.36976025  0.14582285  1
  O  O391  1  0.87546468  0.38147210  0.60823008  1
  O  O392  1  0.87686034  0.86059486  0.12121834  1
  O  O393  1  0.87717939  0.87392613  0.61338747  1
  O  O394  1  0.14485026  0.12388498  0.37798044  1
  O  O395  1  0.12914114  0.14300862  0.87885712  1
  O  O396  1  0.13552118  0.62766260  0.38670949  1
  O  O397  1  0.13025665  0.62123373  0.88665707  1
  O  O398  1  0.62463724  0.07597818  0.40897747  1
  O  O399  1  0.63163634  0.13799387  0.86847338  1
  O  O400  1  0.62178894  0.56861931  0.42736891  1
  O  O401  1  0.63565393  0.63426241  0.88569830  1
