# generated using pymatgen
data_V73Zn73O256
_symmetry_space_group_name_H-M   'P 1'
_cell_length_a   16.85151279
_cell_length_b   16.88705388
_cell_length_c   16.83927242
_cell_angle_alpha   89.73305461
_cell_angle_beta   89.98848551
_cell_angle_gamma   90.00705855
_symmetry_Int_Tables_number   1
_chemical_formula_structural   V73Zn73O256
_chemical_formula_sum   'V73 Zn73 O256'
_cell_volume   4791.94009676
_cell_formula_units_Z   1
loop_
 _symmetry_equiv_pos_site_id
 _symmetry_equiv_pos_as_xyz
  1  'x, y, z'
loop_
 _atom_site_type_symbol
 _atom_site_label
 _atom_site_symmetry_multiplicity
 _atom_site_fract_x
 _atom_site_fract_y
 _atom_site_fract_z
 _atom_site_occupancy
  V  V0  1  0.76739157  0.36780891  0.62791477  1
  V  V1  1  0.61812689  0.37980556  0.75554315  1
  V  V2  1  0.76228203  0.73218921  0.50223633  1
  V  V3  1  0.50321816  0.35912985  0.37596442  1
  V  V4  1  0.13159201  0.02022902  0.60439210  1
  V  V5  1  0.74030752  0.24553069  0.49057252  1
  V  V6  1  0.38428383  0.11036254  0.76029717  1
  V  V7  1  0.62938218  0.25023451  0.87697716  1
  V  V8  1  0.24896750  0.10974732  0.37690029  1
  V  V9  1  0.48983697  0.87690921  0.39054885  1
  V  V10  1  0.25014413  0.12913747  0.87733448  1
  V  V11  1  0.22492255  -0.00133854  0.75868234  1
  V  V12  1  0.35749984  0.36721479  0.49926569  1
  V  V13  1  -0.02032845  0.00821940  0.49645410  1
  V  V14  1  0.13778032  -0.01880657  0.13035665  1
  V  V15  1  0.24528216  0.37020044  0.11609318  1
  V  V16  1  0.84779551  0.59229938  0.24877431  1
  V  V17  1  0.36578819  0.61228160  0.75093290  1
  V  V18  1  0.36722583  0.74829193  0.62271115  1
  V  V19  1  0.38636326  0.88384779  -0.01226894  1
  V  V20  1  0.38530758  0.49593253  0.88647398  1
  V  V21  1  0.76310225  0.00070941  0.25499964  1
  V  V22  1  0.11128127  0.25618049  0.87458737  1
  V  V23  1  0.75985036  0.87259696  0.61520554  1
  V  V24  1  0.88195707  0.36789913  0.46975370  1
  V  V25  1  0.88736779  0.38142095  0.00697809  1
  V  V26  1  0.00496060  0.74964323  0.73159767  1
  V  V27  1  0.63399717  0.87751447  0.73750201  1
  V  V28  1  0.89638645  0.50394142  0.88491419  1
  V  V29  1  0.27239170  0.90958350  0.60318863  1
  V  V30  1  0.38736786  0.24773938  0.13723871  1
  V  V31  1  0.38386008  0.62016214  0.22686980  1
  V  V32  1  0.24258223  0.49933435  0.25000787  1
  V  V33  1  -0.01473365  0.26761124  0.74724051  1
  V  V34  1  0.50203384  0.74617350  0.74855751  1
  V  V35  1  0.75684073  0.61979940  0.87610924  1
  V  V36  1  0.75777122  0.24654211  0.00826034  1
  V  V37  1  0.75102730  0.75451207  0.00309988  1
  V  V38  1  0.12525272  0.51087645  0.09950330  1
  V  V39  1  0.24543601  0.63093141  0.88195371  1
  V  V40  1  0.62409705  0.35962061  0.25436452  1
  V  V41  1  0.62741963  0.72200502  0.38669579  1
  V  V42  1  -0.00539736  -0.01068676  -0.00291670  1
  V  V43  1  0.24480343  0.73481308  0.49867761  1
  V  V44  1  0.60920385  0.01110732  0.13361802  1
  V  V45  1  0.61887816  0.87181970  0.25546867  1
  V  V46  1  0.50211190  0.74032276  0.24114361  1
  V  V47  1  0.38770916  0.36795321  -0.00064954  1
  V  V48  1  0.37253200  0.50956540  0.37703800  1
  V  V49  1  0.36600271  0.25781432  0.63054133  1
  V  V50  1  0.50134521  0.61360595  0.62289441  1
  V  V51  1  0.12791708  0.26196167  0.38128894  1
  V  V52  1  0.25685334  0.76304217  0.01220104  1
  V  V53  1  0.00216650  0.87840213  0.85951086  1
  V  V54  1  0.12713073  0.12878156  0.00968185  1
  V  V55  1  0.38038906  0.10490420  0.24848704  1
  V  V56  1  0.61064352  0.50088453  0.13247745  1
  V  V57  1  0.50528075  0.11260156  0.62046660  1
  V  V58  1  0.61856514  0.12532458  0.00222575  1
  V  V59  1  0.61132463  0.61442590  0.00261952  1
  V  V60  1  0.13181099  0.75694282  0.36446097  1
  V  V61  1  0.61985880  0.74476658  0.87446243  1
  V  V62  1  0.74891221  0.87250757  0.11913057  1
  V  V63  1  0.62805879  0.49689642  0.62026678  1
  V  V64  1  -0.01607622  0.12090743  0.13412084  1
  V  V65  1  0.09811147  0.61738803  0.50938276  1
  V  V66  1  -0.01232586  0.88191874  0.38309775  1
  V  V67  1  -0.00238254  0.25320804  0.25087379  1
  V  V68  1  0.50460386  0.49705644  0.50076335  1
  V  V69  1  0.49786607  0.25725880  0.75395468  1
  V  V70  1  0.15221818  0.43731940  0.68360655  1
  V  V71  1  0.75564630  0.38123443  0.13061974  1
  V  V72  1  -0.02144833  0.77180013  0.24126512  1
  Zn  Zn73  1  0.84661633  0.99691768  -0.10754077  1
  Zn  Zn74  1  0.13278975  0.76373056  0.86997904  1
  Zn  Zn75  1  -0.00539304  0.13381681  0.63097292  1
  Zn  Zn76  1  -0.01032511  0.62391376  0.11628763  1
  Zn  Zn77  1  0.48948146  0.01104335  -0.02467641  1
  Zn  Zn78  1  0.87962224  0.63835640  0.71822607  1
  Zn  Zn79  1  0.76523418  0.12084570  0.37614632  1
  Zn  Zn80  1  0.76402619  0.50013839  0.74737644  1
  Zn  Zn81  1  0.85768102  0.13581471  0.77133831  1
  Zn  Zn82  1  0.19261762  0.18735698  0.20002425  1
  Zn  Zn83  1  0.15767185  0.22891134  0.66394998  1
  Zn  Zn84  1  0.19618451  0.68528105  0.18566313  1
  Zn  Zn85  1  0.17689316  0.68226265  0.68836862  1
  Zn  Zn86  1  0.69274717  0.18516453  0.18937368  1
  Zn  Zn87  1  0.68510924  0.18850348  0.67788909  1
  Zn  Zn88  1  0.68623184  0.68364075  0.18850081  1
  Zn  Zn89  1  0.69484116  0.68310875  0.68486214  1
  Zn  Zn90  1  0.30378140  0.31390523  0.31104161  1
  Zn  Zn91  1  0.29908256  0.31710847  0.81712159  1
  Zn  Zn92  1  0.31996116  0.80653608  0.31243837  1
  Zn  Zn93  1  0.31644144  0.82022610  0.80730070  1
  Zn  Zn94  1  0.81375985  0.29854023  0.30329314  1
  Zn  Zn95  1  0.81258919  0.32244466  0.82365824  1
  Zn  Zn96  1  0.80378958  0.81768546  0.32252558  1
  Zn  Zn97  1  0.82126725  0.81688842  0.80858856  1
  Zn  Zn98  1  0.05882361  0.44473008  0.41786177  1
  Zn  Zn99  1  0.16889357  0.45860731  0.89289586  1
  Zn  Zn100  1  0.19832232  0.93042857  0.43440026  1
  Zn  Zn101  1  0.18428239  0.93740301  0.94493100  1
  Zn  Zn102  1  0.69291839  0.43374906  0.43785404  1
  Zn  Zn103  1  0.69016866  0.43742740  0.94282241  1
  Zn  Zn104  1  0.69024046  0.92744705  0.43865728  1
  Zn  Zn105  1  0.64737202  0.93602000  0.93255204  1
  Zn  Zn106  1  0.31789044  0.06405866  0.06073503  1
  Zn  Zn107  1  0.34570677  0.08181662  0.54812537  1
  Zn  Zn108  1  0.30800186  0.56038314  0.05634831  1
  Zn  Zn109  1  0.29678439  0.55282323  0.56105158  1
  Zn  Zn110  1  0.80610260  0.05548878  0.06672113  1
  Zn  Zn111  1  0.79877387  0.05836156  0.56998191  1
  Zn  Zn112  1  0.80871615  0.56403253  0.06780870  1
  Zn  Zn113  1  0.82194214  0.55670155  0.55767586  1
  Zn  Zn114  1  0.43737092  0.42922669  0.19053658  1
  Zn  Zn115  1  0.31875784  0.43454089  0.69100235  1
  Zn  Zn116  1  0.31469990  0.92351459  0.17565094  1
  Zn  Zn117  1  0.47319410  0.93532224  0.82001908  1
  Zn  Zn118  1  0.97184623  0.45898276  0.23077918  1
  Zn  Zn119  1  0.95083647  0.46494457  0.68108416  1
  Zn  Zn120  1  0.94684032  0.92739650  0.17848647  1
  Zn  Zn121  1  0.94426069  0.93263919  0.67301484  1
  Zn  Zn122  1  0.07153369  0.05919459  0.31244475  1
  Zn  Zn123  1  0.05138695  0.07724056  0.81429068  1
  Zn  Zn124  1  0.04054281  0.60089375  0.31330373  1
  Zn  Zn125  1  0.06310172  0.56996185  0.80439406  1
  Zn  Zn126  1  0.54834480  0.05490530  0.31550161  1
  Zn  Zn127  1  0.68476143  0.05712061  0.81226297  1
  Zn  Zn128  1  0.56120752  0.55174492  0.31137325  1
  Zn  Zn129  1  0.56242271  0.56044010  0.81069400  1
  Zn  Zn130  1  0.42911951  0.18081884  0.43530429  1
  Zn  Zn131  1  0.44000725  0.19663686  0.93889652  1
  Zn  Zn132  1  0.44069642  0.69213794  0.43824352  1
  Zn  Zn133  1  0.43324532  0.69126092  0.94092082  1
  Zn  Zn134  1  0.94094629  0.18693111  0.43288949  1
  Zn  Zn135  1  0.93470279  0.17926268  0.93955951  1
  Zn  Zn136  1  0.93518901  0.68606002  0.42241489  1
  Zn  Zn137  1  0.94056606  0.69765831  0.94090070  1
  Zn  Zn138  1  0.06602357  0.30865213  0.07623177  1
  Zn  Zn139  1  0.05284058  0.31966054  0.55858181  1
  Zn  Zn140  1  0.05816357  0.79362626  0.05342866  1
  Zn  Zn141  1  0.08004081  0.83223384  0.56350056  1
  Zn  Zn142  1  0.56437494  0.31280619  0.06581172  1
  Zn  Zn143  1  0.55993412  0.30939973  0.56705264  1
  Zn  Zn144  1  0.50412828  0.86260077  0.10620099  1
  Zn  Zn145  1  0.56355946  0.80153699  0.56182767  1
  O  O146  1  0.13564776  0.11962460  0.11310555  1
  O  O147  1  0.11966439  0.12191875  0.63076012  1
  O  O148  1  0.14355332  0.61072627  0.11572083  1
  O  O149  1  0.12042559  0.62445581  0.60970638  1
  O  O150  1  0.62338399  0.11913571  0.12182688  1
  O  O151  1  0.60358453  0.14070146  0.61601284  1
  O  O152  1  0.62694362  0.61112371  0.11454816  1
  O  O153  1  0.61417674  0.60765751  0.63451411  1
  O  O154  1  0.38738293  0.37601866  0.38338515  1
  O  O155  1  0.36582703  0.38551565  0.88797921  1
  O  O156  1  0.39298222  0.84517924  0.38772793  1
  O  O157  1  0.38751304  0.87875459  0.87492650  1
  O  O158  1  0.87845115  0.36830372  0.37077735  1
  O  O159  1  0.87314258  0.39012442  0.89803995  1
  O  O160  1  0.88796137  0.87352431  0.38281559  1
  O  O161  1  0.89166326  0.89234278  0.86279268  1
  O  O162  1  0.25259407  0.00772422  0.37378675  1
  O  O163  1  0.23686344  0.01162579  0.86606316  1
  O  O164  1  0.27130390  0.49329454  0.35919720  1
  O  O165  1  0.26684737  0.52345123  0.88463984  1
  O  O166  1  0.75311952  -0.01599946  0.35706638  1
  O  O167  1  0.73663785  -0.01744072  0.87968465  1
  O  O168  1  0.78725724  0.49778717  0.40934343  1
  O  O169  1  0.75438521  0.51165891  0.88002805  1
  O  O170  1  0.24457944  0.49395157  0.12942900  1
  O  O171  1  0.23083690  0.49235228  0.63279827  1
  O  O172  1  0.24243664  0.99537839  0.11512114  1
  O  O173  1  0.23931659  1.01780882  0.64468840  1
  O  O174  1  0.73406973  0.48402952  0.11780832  1
  O  O175  1  0.73993442  0.48505257  0.62138668  1
  O  O176  1  0.73441159  0.98857881  0.13376681  1
  O  O177  1  0.73636515  0.97164508  0.60749049  1
  O  O178  1  0.00083389  0.35038183  0.22652778  1
  O  O179  1  -0.01159074  0.36710729  0.75091229  1
  O  O180  1  0.00272141  0.88163988  0.27356493  1
  O  O181  1  0.00359219  0.87246291  0.75319417  1
  O  O182  1  0.50941060  0.37414476  0.26581441  1
  O  O183  1  0.51637193  0.37194076  0.75035544  1
  O  O184  1  0.50463102  0.85166313  0.26099845  1
  O  O185  1  0.51538499  0.85164512  0.74552119  1
  O  O186  1  0.48323215  0.12369037  0.25459091  1
  O  O187  1  0.48894934  0.14271001  0.74962580  1
  O  O188  1  0.49648027  0.62878703  0.25145894  1
  O  O189  1  0.49009778  0.62480594  0.74062323  1
  O  O190  1  1.00117244  0.11325869  0.23526751  1
  O  O191  1  0.98490309  0.14152333  0.75101517  1
  O  O192  1  1.01774023  0.67404214  0.22417256  1
  O  O193  1  1.00021140  0.64333193  0.74790237  1
  O  O194  1  0.37399971  0.26223681  0.00788997  1
  O  O195  1  0.38142581  0.26111991  0.51643279  1
  O  O196  1  0.36922776  0.76775130  -0.00981933  1
  O  O197  1  0.36539619  0.73446739  0.51587146  1
  O  O198  1  0.86226918  0.26134284  -0.00184793  1
  O  O199  1  0.87144677  0.26502785  0.49249143  1
  O  O200  1  0.84873214  0.75793542  -0.00837692  1
  O  O201  1  0.86040968  0.74449576  0.48522495  1
  O  O202  1  0.10666575  0.24985454  0.48198933  1
  O  O203  1  0.11795153  0.23292673  0.99660193  1
  O  O204  1  0.13750965  0.74376881  0.50547739  1
  O  O205  1  0.15367505  0.76436787  0.98836700  1
  O  O206  1  0.64092449  0.26073380  0.50130307  1
  O  O207  1  0.62942560  0.24357154  0.99850233  1
  O  O208  1  0.62556022  0.73270520  0.48991041  1
  O  O209  1  0.62815651  0.73359872  0.98150744  1
  O  O210  1  0.48700671  0.25141823  0.12471450  1
  O  O211  1  0.48916501  0.25099830  0.63839347  1
  O  O212  1  0.51040545  0.74927505  0.14252780  1
  O  O213  1  0.48859856  0.73250088  0.62720448  1
  O  O214  1  1.00835209  0.22570278  0.13334377  1
  O  O215  1  0.99702953  0.25317054  0.64142198  1
  O  O216  1  0.98758522  0.81115286  0.14637506  1
  O  O217  1  1.01100340  0.76876995  0.63307579  1
  O  O218  1  0.01162171  0.24253182  0.36050787  1
  O  O219  1  0.00555620  0.24907918  0.87690081  1
  O  O220  1  0.00867407  0.76693616  0.36231595  1
  O  O221  1  0.00096289  0.77078863  0.87006412  1
  O  O222  1  0.50087824  0.26123198  0.38658664  1
  O  O223  1  0.51592154  0.25073647  0.86725200  1
  O  O224  1  0.51709991  0.74698969  0.37234907  1
  O  O225  1  0.51246274  0.73410031  0.86360364  1
  O  O226  1  0.27286623  0.13024018  0.47653393  1
  O  O227  1  0.24132277  0.11870767  0.98567375  1
  O  O228  1  0.24325674  0.63181392  0.49854824  1
  O  O229  1  0.26836323  0.64624693  0.98757448  1
  O  O230  1  0.75787258  0.14306033  0.50657058  1
  O  O231  1  0.74231752  0.14179364  1.01576343  1
  O  O232  1  0.75238078  0.63072686  0.50763844  1
  O  O233  1  0.74086769  0.63576618  0.99772662  1
  O  O234  1  0.26654195  0.38151728  0.01679622  1
  O  O235  1  0.26293448  0.37089189  0.49011543  1
  O  O236  1  0.26747898  0.87112679  -0.01050872  1
  O  O237  1  0.25115037  0.85238124  0.51355391  1
  O  O238  1  0.74897024  0.36592692  0.01407541  1
  O  O239  1  0.76279927  0.36457947  0.50626674  1
  O  O240  1  0.72305688  0.86285068  0.01037039  1
  O  O241  1  0.73869239  0.85279387  0.50848922  1
  O  O242  1  0.14570120  0.50934832  0.25011338  1
  O  O243  1  0.13036151  0.48224878  0.78260335  1
  O  O244  1  0.12398256  0.99708879  0.22898596  1
  O  O245  1  0.12444368  1.00602362  0.74831582  1
  O  O246  1  0.62351736  0.49009442  0.23723678  1
  O  O247  1  0.62958069  0.48940816  0.74415654  1
  O  O248  1  0.62455961  0.99447504  0.24487225  1
  O  O249  1  0.62807623  0.97498388  0.74299011  1
  O  O250  1  0.37606759  0.00667947  0.23427091  1
  O  O251  1  0.39663380  0.01310735  0.76397314  1
  O  O252  1  0.38782648  0.50990202  0.26074351  1
  O  O253  1  0.37325683  0.50780744  0.76155627  1
  O  O254  1  0.86005856  -0.01214067  0.23605507  1
  O  O255  1  0.87827863  0.02273674  0.71026348  1
  O  O256  1  0.85993774  0.49187138  0.24438365  1
  O  O257  1  0.87982996  0.49332946  0.78174213  1
  O  O258  1  0.12499080  0.36227762  0.37174461  1
  O  O259  1  0.13257481  0.35104609  0.89489054  1
  O  O260  1  0.12094766  0.86020223  0.38744476  1
  O  O261  1  0.10918295  0.88307715  0.87420046  1
  O  O262  1  0.61791534  0.38127820  0.36412185  1
  O  O263  1  0.63456602  0.37167465  0.86195512  1
  O  O264  1  0.61677203  0.86978476  0.36470458  1
  O  O265  1  0.63167736  0.84633424  0.85571709  1
  O  O266  1  0.36596824  0.14108358  0.13373566  1
  O  O267  1  0.38110560  0.13813217  0.64883089  1
  O  O268  1  0.38650535  0.61401507  0.12848410  1
  O  O269  1  0.37788630  0.61680528  0.63718109  1
  O  O270  1  0.88502622  0.12018362  0.12262608  1
  O  O271  1  0.87968181  0.08544930  0.65033957  1
  O  O272  1  0.87423997  0.61842350  0.14559701  1
  O  O273  1  0.89486557  0.55944061  0.63982778  1
  O  O274  1  0.25502682  0.26749923  0.13253596  1
  O  O275  1  0.26922067  0.24029809  0.63541399  1
  O  O276  1  0.25592456  0.75214853  0.11172838  1
  O  O277  1  0.26073500  0.73598875  0.62199142  1
  O  O278  1  0.74199528  0.26338607  0.11665195  1
  O  O279  1  0.75259686  0.26467796  0.61668330  1
  O  O280  1  0.73601806  0.75888961  0.11361587  1
  O  O281  1  0.75141311  0.74844829  0.61079165  1
  O  O282  1  0.23503208  0.24650621  0.36841893  1
  O  O283  1  0.23481308  0.23266202  0.86448064  1
  O  O284  1  0.24401761  0.75208197  0.39203215  1
  O  O285  1  0.25590032  0.74099888  0.86725798  1
  O  O286  1  0.74806586  0.24340485  0.38412334  1
  O  O287  1  0.73959037  0.26084227  0.89535432  1
  O  O288  1  0.73333660  0.75038332  0.38523347  1
  O  O289  1  0.74230259  0.73780329  0.88000529  1
  O  O290  1  0.01147922  0.11636006  0.01121805  1
  O  O291  1  -0.00921691  0.11217312  0.51116124  1
  O  O292  1  0.00962159  0.68997834  0.02827998  1
  O  O293  1  -0.00211412  0.63293931  0.50193235  1
  O  O294  1  0.51395956  0.12745886  -0.00138890  1
  O  O295  1  0.46228772  0.11262567  0.52094091  1
  O  O296  1  0.51318128  0.62723972  -0.00397398  1
  O  O297  1  0.48979350  0.60888088  0.51199494  1
  O  O298  1  0.49933179  0.38127553  0.49075322  1
  O  O299  1  0.48806489  0.37296169  1.00016491  1
  O  O300  1  0.51290495  0.87052664  0.48967891  1
  O  O301  1  0.49399143  0.88121224  0.99069790  1
  O  O302  1  0.98221914  0.38963178  0.49604209  1
  O  O303  1  0.98446465  0.36758281  1.01711000  1
  O  O304  1  1.00734928  0.89049535  0.49209312  1
  O  O305  1  1.00259206  0.88744165  0.99194023  1
  O  O306  1  0.49163785  0.49083496  0.38477434  1
  O  O307  1  0.48448553  0.50189524  0.87225696  1
  O  O308  1  0.48944960  0.97610413  0.37236898  1
  O  O309  1  0.54966281  0.99059083  0.88159783  1
  O  O310  1  1.00809431  0.49728695  0.33254510  1
  O  O311  1  0.99462571  0.51510936  0.88855904  1
  O  O312  1  1.00620254  0.99490787  0.38851078  1
  O  O313  1  1.00453431  0.99744783  0.88816616  1
  O  O314  1  0.01070302  0.00549250  0.11491749  1
  O  O315  1  0.02102545  -0.00648125  0.60553793  1
  O  O316  1  0.02377848  0.50923563  0.13282792  1
  O  O317  1  0.06258248  0.47172238  0.64795102  1
  O  O318  1  0.51223567  -0.00169449  0.11971711  1
  O  O319  1  0.50271729  0.01885739  0.64316355  1
  O  O320  1  0.51150620  0.49209582  0.12486475  1
  O  O321  1  0.50829233  0.49934946  0.61603808  1
  O  O322  1  0.26594504  0.39465670  0.23393709  1
  O  O323  1  0.23597779  0.38057886  0.74882396  1
  O  O324  1  0.25514703  0.86312929  0.24558924  1
  O  O325  1  0.26317091  0.90215937  0.73745789  1
  O  O326  1  0.73807044  0.36632751  0.24017906  1
  O  O327  1  0.74601735  0.37616610  0.73949437  1
  O  O328  1  0.73707853  0.87630391  0.23908827  1
  O  O329  1  0.74087939  0.85698173  0.73399230  1
  O  O330  1  0.26643757  0.12532652  0.25948198  1
  O  O331  1  0.26667044  0.10780850  0.76361075  1
  O  O332  1  0.27407783  0.61010664  0.24085000  1
  O  O333  1  0.26281788  0.62847933  0.75759009  1
  O  O334  1  0.74329834  0.10606579  0.25492987  1
  O  O335  1  0.74378503  0.12844219  0.74924062  1
  O  O336  1  0.74906836  0.61652555  0.25471462  1
  O  O337  1  0.76250540  0.62098347  0.76035103  1
  O  O338  1  0.36848607  0.12648179  0.35703973  1
  O  O339  1  0.36524639  0.13879711  0.86841123  1
  O  O340  1  0.37970241  0.60964767  0.37996052  1
  O  O341  1  0.37645657  0.61852006  0.86393721  1
  O  O342  1  0.87794630  0.11344639  0.37627075  1
  O  O343  1  0.86946608  0.10864423  0.88267794  1
  O  O344  1  0.90232427  0.62523193  0.33151750  1
  O  O345  1  0.87021276  0.61484545  0.89325372  1
  O  O346  1  0.13953261  0.38729616  0.11754299  1
  O  O347  1  0.13930584  0.34286041  0.63352711  1
  O  O348  1  0.12439842  0.88458881  0.11137535  1
  O  O349  1  0.15638131  0.90556313  0.61500996  1
  O  O350  1  0.62614680  0.38102683  0.13709204  1
  O  O351  1  0.63081521  0.37996552  0.63674815  1
  O  O352  1  0.61938988  0.88710116  0.13995384  1
  O  O353  1  0.63026201  0.85480464  0.63581262  1
  O  O354  1  0.11189449  0.23953861  0.25939241  1
  O  O355  1  0.10474680  0.24804569  0.76796802  1
  O  O356  1  0.14557135  0.75193384  0.26508420  1
  O  O357  1  0.11304826  0.74991181  0.75487372  1
  O  O358  1  0.62360376  0.26079473  0.24841157  1
  O  O359  1  0.62073158  0.26198734  0.75650326  1
  O  O360  1  0.61914400  0.74916840  0.26068587  1
  O  O361  1  0.61766551  0.73191563  0.75818857  1
  O  O362  1  0.37767402  0.25918689  0.23794951  1
  O  O363  1  0.38251584  0.26520092  0.74557354  1
  O  O364  1  0.38968566  0.72753349  0.25420053  1
  O  O365  1  0.38321152  0.73504959  0.74099319  1
  O  O366  1  0.89444110  0.23606768  0.25564004  1
  O  O367  1  0.88060936  0.25351779  0.76534231  1
  O  O368  1  0.87863135  0.76437093  0.25166359  1
  O  O369  1  0.89419783  0.74918607  0.74955833  1
  O  O370  1  0.37695287  0.48738836  0.49261766  1
  O  O371  1  0.37943508  0.49275043  0.99257449  1
  O  O372  1  0.33120084  0.96932509  0.54773775  1
  O  O373  1  0.37643581  0.99526026  0.98933390  1
  O  O374  1  0.84715270  0.48500745  0.46489438  1
  O  O375  1  0.87458633  0.49026970  1.00215805  1
  O  O376  1  0.88190439  0.99714693  0.50411674  1
  O  O377  1  0.89095592  1.00097909  1.00752861  1
  O  O378  1  0.11625536  0.01016947  0.00795238  1
  O  O379  1  0.14227289  0.01584003  0.50506769  1
  O  O380  1  0.12928590  0.49952907  0.00042806  1
  O  O381  1  0.11313347  0.52035034  0.48541283  1
  O  O382  1  0.63245385  0.01776552  0.01919773  1
  O  O383  1  0.63066524  0.03389004  0.46392786  1
  O  O384  1  0.62348000  0.50854980  0.00662533  1
  O  O385  1  0.61642209  0.48933432  0.50785521  1
  O  O386  1  0.37371370  0.36832919  0.11647977  1
  O  O387  1  0.37155000  0.36889949  0.61291294  1
  O  O388  1  0.38672369  0.87968199  0.09901590  1
  O  O389  1  0.36467327  0.84958066  0.63425026  1
  O  O390  1  0.85774269  0.37893307  0.11824925  1
  O  O391  1  0.86563591  0.38503373  0.62593639  1
  O  O392  1  0.84613046  0.88058420  0.11765843  1
  O  O393  1  0.86007489  0.87213309  0.62377551  1
  O  O394  1  0.14320947  0.12623315  0.37152201  1
  O  O395  1  0.13075969  0.13214535  0.88586091  1
  O  O396  1  0.11171466  0.65324325  0.39004270  1
  O  O397  1  0.14419548  0.62707360  0.87445905  1
  O  O398  1  0.63202154  0.08543378  0.40442537  1
  O  O399  1  0.63527106  0.13682033  0.89534233  1
  O  O400  1  0.62524831  0.62325267  0.37408854  1
  O  O401  1  0.63450232  0.62136761  0.88250386  1
