# generated using pymatgen
data_V73Zn73O256
_symmetry_space_group_name_H-M   'P 1'
_cell_length_a   16.85602737
_cell_length_b   16.85256057
_cell_length_c   16.88178333
_cell_angle_alpha   90.03663062
_cell_angle_beta   90.20709533
_cell_angle_gamma   89.97490630
_symmetry_Int_Tables_number   1
_chemical_formula_structural   V73Zn73O256
_chemical_formula_sum   'V73 Zn73 O256'
_cell_volume   4795.52853757
_cell_formula_units_Z   1
loop_
 _symmetry_equiv_pos_site_id
 _symmetry_equiv_pos_as_xyz
  1  'x, y, z'
loop_
 _atom_site_type_symbol
 _atom_site_label
 _atom_site_symmetry_multiplicity
 _atom_site_fract_x
 _atom_site_fract_y
 _atom_site_fract_z
 _atom_site_occupancy
  V  V0  1  0.37032064  0.86799440  0.49589493  1
  V  V1  1  0.11833573  0.11686558  0.51582333  1
  V  V2  1  0.00850075  0.10894539  0.13544001  1
  V  V3  1  0.39665027  0.62768412  0.24363595  1
  V  V4  1  0.62900220  0.13765373  0.00064277  1
  V  V5  1  0.37735497  0.13045554  0.25141397  1
  V  V6  1  0.25156273  0.87746530  0.12231556  1
  V  V7  1  0.24989804  0.74562279  -0.00365703  1
  V  V8  1  0.74268234  -0.00572532  0.74796739  1
  V  V9  1  0.37589613  -0.00327778  0.37224692  1
  V  V10  1  0.61638003  0.36190094  0.26272739  1
  V  V11  1  0.37924857  0.50084498  0.36918426  1
  V  V12  1  0.87521020  0.50144065  0.87932353  1
  V  V13  1  0.50744321  0.00480954  0.50299347  1
  V  V14  1  0.74752993  0.62325672  0.87385211  1
  V  V15  1  0.37144533  0.24959729  0.12105130  1
  V  V16  1  0.74764871  0.50776512  0.24264602  1
  V  V17  1  0.62476652  0.35843947  0.75314648  1
  V  V18  1  0.25045143  0.88010025  0.62452019  1
  V  V19  1  0.12076571  0.12950252  0.00268105  1
  V  V20  1  0.49304360  0.50605910  -0.00351279  1
  V  V21  1  0.63658260  0.13377211  0.48919291  1
  V  V22  1  -0.00281567  0.87524605  0.38699147  1
  V  V23  1  0.00456167  0.37431059  0.88188106  1
  V  V24  1  0.24465321  -0.00062950  0.24413072  1
  V  V25  1  0.49636760  0.13272824  0.63089293  1
  V  V26  1  0.87121374  0.40585229  0.52909727  1
  V  V27  1  0.50245255  0.00014900  -0.00061249  1
  V  V28  1  0.63598726  -0.01330169  0.12755469  1
  V  V29  1  0.75521915  -0.00270995  0.27007674  1
  V  V30  1  0.01585412  0.61947628  0.11046285  1
  V  V31  1  0.74104129  0.13538602  0.88002858  1
  V  V32  1  0.50779582  0.36110242  0.87585097  1
  V  V33  1  0.37866996  0.87461219  -0.00198942  1
  V  V34  1  0.36711006  0.00796812  0.86599872  1
  V  V35  1  0.24886235  0.61093277  0.87449019  1
  V  V36  1  0.37299110  0.37127035  0.49645532  1
  V  V37  1  0.86629217  0.37008637  -0.00006226  1
  V  V38  1  0.12891494  0.87019291  0.24490449  1
  V  V39  1  0.12069903  0.39850723  0.74508476  1
  V  V40  1  0.24416176  0.15010739  0.87780535  1
  V  V41  1  0.49444256  0.61871493  0.62814284  1
  V  V42  1  0.00473215  0.24554053  0.74892420  1
  V  V43  1  0.37315390  0.59654827  0.75547146  1
  V  V44  1  0.74675115  0.49787239  0.74937921  1
  V  V45  1  0.12079640  0.36814464  0.26120703  1
  V  V46  1  0.50079279  0.87126671  0.86933647  1
  V  V47  1  0.85971486  0.23711741  0.63103613  1
  V  V48  1  0.24378892  0.37454283  0.12350861  1
  V  V49  1  0.49979821  0.12788701  0.12945659  1
  V  V50  1  0.87356322  0.12204757  0.76634959  1
  V  V51  1  0.50373572  0.49052961  0.49412705  1
  V  V52  1  0.11791308  0.74963899  0.87405111  1
  V  V53  1  0.88977728  0.24720429  0.13109559  1
  V  V54  1  0.75314381  0.25746851  0.48716331  1
  V  V55  1  0.23680305  0.12735145  0.37412958  1
  V  V56  1  0.13471568  0.73822681  0.37419347  1
  V  V57  1  0.61934973  0.87935052  0.73470913  1
  V  V58  1  0.74474258  0.36122798  0.12931683  1
  V  V59  1  0.24562385  0.51015414  0.24534827  1
  V  V60  1  0.62618408  0.75022952  0.87424360  1
  V  V61  1  0.74105815  0.62828378  0.38273581  1
  V  V62  1  0.39554362  0.74586533  0.12302425  1
  V  V63  1  0.37380588  0.37353323  -0.00626187  1
  V  V64  1  0.37599837  0.74771371  0.63572819  1
  V  V65  1  0.23762630  0.25313909  0.49723994  1
  V  V66  1  0.62041207  0.49186800  0.62645410  1
  V  V67  1  0.23757960  0.38665660  0.62448965  1
  V  V68  1  0.88265077  0.51015654  0.35860699  1
  V  V69  1  -0.01240722  0.74587029  0.23505083  1
  V  V70  1  0.51281838  0.86167775  0.36587429  1
  V  V71  1  0.12418273  0.87497883  0.75596801  1
  V  V72  1  0.62290743  0.62608515  0.00457849  1
  Zn  Zn73  1  0.61656585  0.64559008  0.49144004  1
  Zn  Zn74  1  0.36604926  0.23980100  0.63746755  1
  Zn  Zn75  1  0.08196215  -0.00961397  0.61834147  1
  Zn  Zn76  1  0.01193183  0.38744339  0.40240396  1
  Zn  Zn77  1  0.61821419  0.50230010  0.12605885  1
  Zn  Zn78  1  0.76620134  0.77273224  0.54342825  1
  Zn  Zn79  1  0.85681396  0.13196682  0.28070695  1
  Zn  Zn80  1  0.24591342  0.72871926  0.49701947  1
  Zn  Zn81  1  0.24662803  0.01529492  0.74061213  1
  Zn  Zn82  1  0.18284502  0.19074276  0.18844973  1
  Zn  Zn83  1  0.19078820  0.18972574  0.68752080  1
  Zn  Zn84  1  0.19223871  0.68877941  0.17766025  1
  Zn  Zn85  1  0.19825437  0.69010513  0.69360484  1
  Zn  Zn86  1  0.68602789  0.18329723  0.19368022  1
  Zn  Zn87  1  0.68204350  0.17266448  0.67833035  1
  Zn  Zn88  1  0.78534490  0.71194338  0.18945448  1
  Zn  Zn89  1  0.65607226  0.70677840  0.65662618  1
  Zn  Zn90  1  0.31244532  0.31257236  0.31291554  1
  Zn  Zn91  1  0.30805470  0.32066755  0.80795125  1
  Zn  Zn92  1  0.31604495  0.80453154  0.30904965  1
  Zn  Zn93  1  0.30863960  0.81339616  0.81236939  1
  Zn  Zn94  1  0.85681223  0.31357956  0.32977610  1
  Zn  Zn95  1  0.80725098  0.31206828  0.81616034  1
  Zn  Zn96  1  0.68649259  0.81120424  0.29662715  1
  Zn  Zn97  1  0.77348448  0.76548410  0.74853196  1
  Zn  Zn98  1  0.19559213  0.45348463  0.43404561  1
  Zn  Zn99  1  0.18609194  0.42805076  0.93952655  1
  Zn  Zn100  1  0.18116094  0.93794994  0.43343620  1
  Zn  Zn101  1  0.18112990  0.94151825  0.94147125  1
  Zn  Zn102  1  0.69579935  0.43592636  0.43637291  1
  Zn  Zn103  1  0.68397980  0.43573891  0.94025188  1
  Zn  Zn104  1  0.69143944  0.93653607  0.44368952  1
  Zn  Zn105  1  0.68943737  0.94403681  0.93023165  1
  Zn  Zn106  1  0.30864157  0.06441954  0.05565854  1
  Zn  Zn107  1  0.31481331  0.06418031  0.55701091  1
  Zn  Zn108  1  0.31359114  0.56149397  0.06409621  1
  Zn  Zn109  1  0.31873562  0.54994215  0.56814159  1
  Zn  Zn110  1  0.82006452  0.05958801  0.06623777  1
  Zn  Zn111  1  0.86601129  0.01168693  0.60213192  1
  Zn  Zn112  1  0.81188081  0.56056140  0.05702891  1
  Zn  Zn113  1  0.79698866  0.59909534  0.59166983  1
  Zn  Zn114  1  0.43912704  0.43842322  0.18216415  1
  Zn  Zn115  1  0.42344988  0.40053859  0.69905723  1
  Zn  Zn116  1  0.44158904  0.93595880  0.18688755  1
  Zn  Zn117  1  0.43522431  0.94119553  0.68362337  1
  Zn  Zn118  1  0.94228007  0.43859843  0.17751775  1
  Zn  Zn119  1  0.93039891  0.43216641  0.69603153  1
  Zn  Zn120  1  0.95370137  0.95548371  0.23766185  1
  Zn  Zn121  1  0.96147868  0.95640792  0.74800373  1
  Zn  Zn122  1  0.02300367  0.08827590  0.34454895  1
  Zn  Zn123  1  0.07091821  0.05531502  0.83286195  1
  Zn  Zn124  1  0.06252367  0.56310376  0.30103443  1
  Zn  Zn125  1  0.06312336  0.56226562  0.94018281  1
  Zn  Zn126  1  0.56760459  0.05962007  0.31200536  1
  Zn  Zn127  1  0.56133590  0.06432580  0.81425755  1
  Zn  Zn128  1  0.56703197  0.55683764  0.31079658  1
  Zn  Zn129  1  0.55864568  0.55401183  0.81522698  1
  Zn  Zn130  1  0.43210696  0.19118325  0.43812660  1
  Zn  Zn131  1  0.43459901  0.18664674  0.93769165  1
  Zn  Zn132  1  0.43486947  0.68189849  0.43667852  1
  Zn  Zn133  1  0.43657606  0.68848807  0.92882433  1
  Zn  Zn134  1  0.94376111  0.20429489  0.44189588  1
  Zn  Zn135  1  0.93997777  0.19002310  0.94270072  1
  Zn  Zn136  1  0.87756530  0.74146675  0.37786412  1
  Zn  Zn137  1  0.92598454  0.69803845  0.93876526  1
  Zn  Zn138  1  0.06954686  0.31278945  0.05729855  1
  Zn  Zn139  1  0.05135644  0.31015985  0.56954549  1
  Zn  Zn140  1  0.05922579  0.81478265  0.06095102  1
  Zn  Zn141  1  0.06906177  0.80786034  0.55976210  1
  Zn  Zn142  1  0.55703078  0.31494629  0.06971144  1
  Zn  Zn143  1  0.56373752  0.30929865  0.55938011  1
  Zn  Zn144  1  0.61168498  0.77226416  0.11509245  1
  Zn  Zn145  1  0.55556011  0.81162846  0.55370792  1
  O  O146  1  0.11831274  0.12714107  0.11801945  1
  O  O147  1  0.12966467  0.11530575  0.61894281  1
  O  O148  1  0.11727125  0.63310727  0.11229608  1
  O  O149  1  0.10032774  0.65756987  0.62938636  1
  O  O150  1  0.61725745  0.11626264  0.11458494  1
  O  O151  1  0.60804869  0.12807339  0.60149219  1
  O  O152  1  0.62349309  0.62745519  0.10410412  1
  O  O153  1  0.60756492  0.60649314  0.63013574  1
  O  O154  1  0.36780495  0.38622886  0.38473893  1
  O  O155  1  0.38357237  0.37089364  0.88848912  1
  O  O156  1  0.38005061  0.87879880  0.37892885  1
  O  O157  1  0.38122845  0.88163758  0.87929166  1
  O  O158  1  0.86395889  0.41838960  0.41030488  1
  O  O159  1  0.87697445  0.37973488  0.88195048  1
  O  O160  1  0.89845303  0.85874490  0.37295418  1
  O  O161  1  0.81960126  0.83856990  0.94646052  1
  O  O162  1  0.25763507  0.00438937  0.36637098  1
  O  O163  1  0.26423987  -0.00451323  0.87310618  1
  O  O164  1  0.26668716  0.50094868  0.35388629  1
  O  O165  1  0.24592595  0.51234636  0.88194617  1
  O  O166  1  0.74486993  0.00386107  0.37016929  1
  O  O167  1  0.74414724  0.01755544  0.86342486  1
  O  O168  1  0.75178952  0.51055283  0.36167750  1
  O  O169  1  0.75283930  0.50146311  0.87063783  1
  O  O170  1  0.26235753  0.48510493  0.13584616  1
  O  O171  1  0.24048406  0.48730301  0.62298740  1
  O  O172  1  0.26462000  0.98811562  0.13151414  1
  O  O173  1  0.26312002  0.98672475  0.62597681  1
  O  O174  1  0.75198313  0.49481194  0.13479815  1
  O  O175  1  0.73646070  0.50760925  0.64241294  1
  O  O176  1  0.73620912  0.99653929  0.11228292  1
  O  O177  1  0.75427358  1.01190286  0.64916656  1
  O  O178  1  0.02304853  0.38573430  0.24071869  1
  O  O179  1  0.00580565  0.36765048  0.75520425  1
  O  O180  1  0.01606333  0.85878130  0.22901588  1
  O  O181  1  0.02738491  0.85888904  0.74214915  1
  O  O182  1  0.51887401  0.38442387  0.24208235  1
  O  O183  1  0.51447020  0.38228558  0.76817522  1
  O  O184  1  0.49881644  0.87596228  0.26637956  1
  O  O185  1  0.50938019  0.88795486  0.75873466  1
  O  O186  1  0.48865360  0.11265584  0.24014539  1
  O  O187  1  0.51151483  0.12048875  0.72966368  1
  O  O188  1  0.49578782  0.61991109  0.24309445  1
  O  O189  1  0.48302291  0.61177177  0.74275903  1
  O  O190  1  1.01095472  0.13295403  0.23303527  1
  O  O191  1  0.98184503  0.13787135  0.76819379  1
  O  O192  1  1.01171371  0.64270455  0.23391418  1
  O  O193  1  0.94300368  0.60357409  0.67881419  1
  O  O194  1  0.37820752  0.25780421  0.01160877  1
  O  O195  1  0.35832993  0.25816054  0.50412841  1
  O  O196  1  0.37300237  0.75749407  0.00144442  1
  O  O197  1  0.36862894  0.75313377  0.50495145  1
  O  O198  1  0.87507264  0.26201250  0.01149221  1
  O  O199  1  0.86372791  0.24382477  0.52007132  1
  O  O200  1  0.85869180  0.78234011  -0.01178536  1
  O  O201  1  0.87359595  0.74653219  0.49825133  1
  O  O202  1  0.13160700  0.24295544  0.50800071  1
  O  O203  1  0.12994440  0.23461614  1.00292584  1
  O  O204  1  0.12833441  0.74883931  0.47969397  1
  O  O205  1  0.13992712  0.76381790  0.98712677  1
  O  O206  1  0.64192009  0.24914376  0.49866139  1
  O  O207  1  0.62107565  0.23569635  1.00994717  1
  O  O208  1  0.64773990  0.74689352  0.53961436  1
  O  O209  1  0.62344065  0.73561501  0.98782237  1
  O  O210  1  0.48958151  0.23585394  0.12386149  1
  O  O211  1  0.49331871  0.23601301  0.61332515  1
  O  O212  1  0.49431524  0.75521400  0.11633509  1
  O  O213  1  0.48864274  0.72993753  0.61500366  1
  O  O214  1  0.99002044  0.25898683  0.12625227  1
  O  O215  1  0.98121118  0.25078722  0.64341040  1
  O  O216  1  0.99843262  0.74270897  0.12708731  1
  O  O217  1  1.04565137  0.71226016  0.63266151  1
  O  O218  1  -0.03990275  0.29194620  0.37268023  1
  O  O219  1  -0.01316952  0.26652847  0.86197379  1
  O  O220  1  0.01573432  0.76201089  0.35005194  1
  O  O221  1  0.01837869  0.74456991  0.87973619  1
  O  O222  1  0.47958402  0.25939717  0.36623583  1
  O  O223  1  0.49873364  0.26107458  0.87995361  1
  O  O224  1  0.49808828  0.76289743  0.38335973  1
  O  O225  1  0.50829814  0.76181374  0.87338265  1
  O  O226  1  0.24035533  0.13151626  0.49381484  1
  O  O227  1  0.24618276  0.12798499  0.98577610  1
  O  O228  1  0.24003124  0.60353272  0.49691402  1
  O  O229  1  0.26431840  0.63365222  0.98691094  1
  O  O230  1  0.73837122  0.13816202  0.49592372  1
  O  O231  1  0.73866628  0.11916884  0.99298952  1
  O  O232  1  0.74338789  0.61995929  0.48672532  1
  O  O233  1  0.73087631  0.61222283  0.98493573  1
  O  O234  1  0.26036478  0.38003888  0.01475836  1
  O  O235  1  0.24683703  0.37134306  0.50221928  1
  O  O236  1  0.26278964  0.87111742  0.00305305  1
  O  O237  1  0.26130703  0.87850157  0.50399800  1
  O  O238  1  0.75478855  0.38102569  0.01598688  1
  O  O239  1  0.76209124  0.36627555  0.50767324  1
  O  O240  1  0.75983488  0.86925185  -0.00908094  1
  O  O241  1  0.76459481  0.89224943  0.52528791  1
  O  O242  1  0.14285478  0.49512972  0.24909980  1
  O  O243  1  0.11546777  0.49410707  0.74728266  1
  O  O244  1  0.14230893  0.98529252  0.24825332  1
  O  O245  1  0.12960690  0.98568446  0.74711789  1
  O  O246  1  0.63781522  0.49283327  0.24442802  1
  O  O247  1  0.62941966  0.48895383  0.74731455  1
  O  O248  1  0.63342706  1.00429868  0.23395069  1
  O  O249  1  0.63117724  0.99076047  0.75467704  1
  O  O250  1  0.36831210  0.00575360  0.25620533  1
  O  O251  1  0.37500397  -0.00131780  0.76384708  1
  O  O252  1  0.37557365  0.50974109  0.25023617  1
  O  O253  1  0.37106673  0.49829236  0.74839832  1
  O  O254  1  0.85882015  0.01098351  0.24489070  1
  O  O255  1  0.85858129  0.01670817  0.75958404  1
  O  O256  1  0.86389725  0.48547603  0.25700742  1
  O  O257  1  0.85447074  0.48852797  0.76194488  1
  O  O258  1  0.12380140  0.39086442  0.36785965  1
  O  O259  1  0.11062746  0.37682681  0.86154731  1
  O  O260  1  0.12389479  0.86541206  0.36102113  1
  O  O261  1  0.13554972  0.86579132  0.86590999  1
  O  O262  1  0.63194420  0.37790181  0.36154358  1
  O  O263  1  0.61722634  0.36847577  0.87092369  1
  O  O264  1  0.61961785  0.86689327  0.37834663  1
  O  O265  1  0.61723893  0.86845369  0.87163543  1
  O  O266  1  0.37861565  0.12901783  0.12959797  1
  O  O267  1  0.38723396  0.12392736  0.62214293  1
  O  O268  1  0.37798410  0.63121748  0.13304223  1
  O  O269  1  0.37384178  0.62465750  0.63835130  1
  O  O270  1  0.89270245  0.13774534  0.11437901  1
  O  O271  1  0.86892443  0.13202587  0.64699088  1
  O  O272  1  0.89288480  0.61464759  0.13012670  1
  O  O273  1  0.91203691  0.67291285  0.53787412  1
  O  O274  1  0.26014438  0.26291706  0.13149056  1
  O  O275  1  0.24798135  0.26128323  0.61568182  1
  O  O276  1  0.26529827  0.75729319  0.11247425  1
  O  O277  1  0.25830527  0.75687148  0.61688227  1
  O  O278  1  0.75618285  0.25938228  0.12557482  1
  O  O279  1  0.75675799  0.24529031  0.62274633  1
  O  O280  1  0.84212586  0.67614902  0.09537513  1
  O  O281  1  0.77319710  0.70625656  0.64306315  1
  O  O282  1  0.25393796  0.23803820  0.38374239  1
  O  O283  1  0.25360285  0.24910566  0.87808726  1
  O  O284  1  0.24189254  0.74865953  0.37494244  1
  O  O285  1  0.25186654  0.74242544  0.88380471  1
  O  O286  1  0.76974661  0.25985269  0.38924883  1
  O  O287  1  0.74308018  0.23600792  0.87491407  1
  O  O288  1  0.75530196  0.73128736  0.36408667  1
  O  O289  1  0.73881976  0.73546144  0.85632076  1
  O  O290  1  0.01157447  0.12874345  0.00880377  1
  O  O291  1  0.02074525  0.13655747  0.50102459  1
  O  O292  1  -0.00520691  0.63146260  0.00429979  1
  O  O293  1  -0.02853242  0.64597944  0.50055926  1
  O  O294  1  0.50676957  0.11809187  0.00577443  1
  O  O295  1  0.49629781  0.11216766  0.49923430  1
  O  O296  1  0.50521254  0.61347132  -0.01263975  1
  O  O297  1  0.50155424  0.61179971  0.50640134  1
  O  O298  1  0.48827062  0.38193806  0.50587568  1
  O  O299  1  0.49560694  0.37914569  0.99256029  1
  O  O300  1  0.49133477  0.88454001  0.49076665  1
  O  O301  1  0.49018511  0.88470699  0.98765104  1
  O  O302  1  0.97788312  0.38579075  0.51680435  1
  O  O303  1  0.99266292  0.36806618  0.98519532  1
  O  O304  1  1.01189418  0.87539705  0.48724844  1
  O  O305  1  0.99188540  0.89421934  1.00028222  1
  O  O306  1  0.49422113  0.50185710  0.38377956  1
  O  O307  1  0.50234324  0.48383129  0.88952130  1
  O  O308  1  0.49298301  0.99037602  0.38120200  1
  O  O309  1  0.49004702  0.99718552  0.88184860  1
  O  O310  1  0.98657392  0.50422055  0.36509724  1
  O  O311  1  0.98537099  0.48666189  0.86974822  1
  O  O312  1  1.00701811  0.97233242  0.34694964  1
  O  O313  1  0.99021837  0.98456206  0.85153056  1
  O  O314  1  -0.00016119  0.01022861  0.14004873  1
  O  O315  1  -0.02912567  -0.01389378  0.63861938  1
  O  O316  1  0.00334331  0.52071067  0.13048163  1
  O  O317  1  -0.01573917  0.54379262  0.66065300  1
  O  O318  1  0.50266836  0.00793303  0.11592649  1
  O  O319  1  0.49311952  0.00559637  0.60710593  1
  O  O320  1  0.50342974  0.49398635  0.10323289  1
  O  O321  1  0.50046753  0.50343902  0.61486045  1
  O  O322  1  0.24667716  0.38336289  0.24163219  1
  O  O323  1  0.22630903  0.37351654  0.74250743  1
  O  O324  1  0.25211228  0.87917940  0.24067782  1
  O  O325  1  0.24706011  0.87539086  0.73716008  1
  O  O326  1  0.74381835  0.38174120  0.23699471  1
  O  O327  1  0.73276813  0.38384377  0.76115645  1
  O  O328  1  0.75025602  0.89715026  0.25223897  1
  O  O329  1  0.73621630  0.88461797  0.74996696  1
  O  O330  1  0.25512351  0.11802018  0.25419756  1
  O  O331  1  0.24563883  0.12865219  0.76976354  1
  O  O332  1  0.25778410  0.61203489  0.23652662  1
  O  O333  1  0.26169421  0.62156873  0.76127562  1
  O  O334  1  0.74937517  0.10985469  0.24502807  1
  O  O335  1  0.74886118  0.12267442  0.76307339  1
  O  O336  1  0.75391421  0.60929181  0.25217450  1
  O  O337  1  0.73955726  0.60381544  0.76505865  1
  O  O338  1  0.36489298  0.11402793  0.36894896  1
  O  O339  1  0.36360914  0.11446410  0.88130293  1
  O  O340  1  0.38136260  0.61705349  0.35560256  1
  O  O341  1  0.36864799  0.62210360  0.86103336  1
  O  O342  1  0.91731945  0.11950818  0.37294648  1
  O  O343  1  0.85968965  0.13396699  0.87332824  1
  O  O344  1  0.86161863  0.61208143  0.37631736  1
  O  O345  1  0.86132250  0.61534317  0.88395284  1
  O  O346  1  0.14102668  0.37046844  0.13200447  1
  O  O347  1  0.12123951  0.37517971  0.63625204  1
  O  O348  1  0.14485442  0.86623003  0.12687310  1
  O  O349  1  0.13601199  0.87586616  0.63004295  1
  O  O350  1  0.63725586  0.37646212  0.12623891  1
  O  O351  1  0.61212331  0.38210086  0.64136381  1
  O  O352  1  0.61615610  0.88960197  0.11547735  1
  O  O353  1  0.61102053  0.87880442  0.63640461  1
  O  O354  1  0.13367917  0.26812322  0.25750492  1
  O  O355  1  0.10466343  0.24424124  0.74612376  1
  O  O356  1  0.13557593  0.75957066  0.25153851  1
  O  O357  1  0.14033305  0.75779278  0.76759770  1
  O  O358  1  0.62500262  0.26218218  0.24507862  1
  O  O359  1  0.62932913  0.26047366  0.74164965  1
  O  O360  1  0.68094985  0.75062609  0.20106847  1
  O  O361  1  0.62715981  0.76861153  0.75274005  1
  O  O362  1  0.36953239  0.23648446  0.24185293  1
  O  O363  1  0.38426949  0.29577888  0.73288204  1
  O  O364  1  0.37696438  0.73552154  0.23936178  1
  O  O365  1  0.37379318  0.74907371  0.73769197  1
  O  O366  1  0.86833011  0.24688372  0.23279020  1
  O  O367  1  0.87073794  0.24293430  0.74628437  1
  O  O368  1  0.88656251  0.74598145  0.24931445  1
  O  O369  1  0.89090387  0.79027924  0.73089603  1
  O  O370  1  0.38287961  0.49595560  0.48773287  1
  O  O371  1  0.38539236  0.49058162  1.00302469  1
  O  O372  1  0.38103224  0.99077148  0.48745535  1
  O  O373  1  0.38230672  0.99331208  0.99196943  1
  O  O374  1  0.86399166  0.50370038  0.54867955  1
  O  O375  1  0.87153695  0.48601915  0.98982116  1
  O  O376  1  0.83815885  0.93039651  0.51938964  1
  O  O377  1  0.89514122  0.98576790  1.00181032  1
  O  O378  1  0.13139612  0.02269900  -0.00249895  1
  O  O379  1  0.12556435  0.01057663  0.50521759  1
  O  O380  1  0.11208756  0.48298059  -0.00108512  1
  O  O381  1  0.17243492  0.55827658  0.48961377  1
  O  O382  1  0.61491788  0.00576961  0.00476521  1
  O  O383  1  0.61219192  0.00864056  0.49524595  1
  O  O384  1  0.61385012  0.50900884  -0.00148017  1
  O  O385  1  0.61805530  0.48865909  0.51089520  1
  O  O386  1  0.37179522  0.36539256  0.11910461  1
  O  O387  1  0.35794264  0.38675835  0.60333349  1
  O  O388  1  0.37371411  0.86767133  0.11614228  1
  O  O389  1  0.37425164  0.86550664  0.61550978  1
  O  O390  1  0.86735259  0.36772111  0.12051430  1
  O  O391  1  0.86805782  0.36213305  0.62750859  1
  O  O392  1  0.93061704  0.92626999  0.04099831  1
  O  O393  1  0.89312017  0.83288281  0.66835630  1
  O  O394  1  0.13378032  0.11640374  0.38124671  1
  O  O395  1  0.13574743  0.13279639  0.88312412  1
  O  O396  1  0.12268290  0.63993960  0.36154743  1
  O  O397  1  0.14048716  0.63691472  0.87769248  1
  O  O398  1  0.61355179  0.12856211  0.39047592  1
  O  O399  1  0.62668380  0.12531752  0.89029146  1
  O  O400  1  0.63480358  0.62490522  0.37458897  1
  O  O401  1  0.62474661  0.63274764  0.87488491  1
