# generated using pymatgen
data_V73Zn73O256
_symmetry_space_group_name_H-M   'P 1'
_cell_length_a   16.79872635
_cell_length_b   16.83508070
_cell_length_c   16.80451317
_cell_angle_alpha   90.05007192
_cell_angle_beta   90.01678711
_cell_angle_gamma   90.01083349
_symmetry_Int_Tables_number   1
_chemical_formula_structural   V73Zn73O256
_chemical_formula_sum   'V73 Zn73 O256'
_cell_volume   4752.44720608
_cell_formula_units_Z   1
loop_
 _symmetry_equiv_pos_site_id
 _symmetry_equiv_pos_as_xyz
  1  'x, y, z'
loop_
 _atom_site_type_symbol
 _atom_site_label
 _atom_site_symmetry_multiplicity
 _atom_site_fract_x
 _atom_site_fract_y
 _atom_site_fract_z
 _atom_site_occupancy
  V  V0  1  0.62257664  0.37518232  0.26941691  1
  V  V1  1  0.12827988  0.38793867  0.75062141  1
  V  V2  1  0.61034534  0.77837755  0.36932274  1
  V  V3  1  -0.00702266  0.49858242  0.00635752  1
  V  V4  1  0.38044872  0.37490054  0.49903164  1
  V  V5  1  0.89059433  0.86895425  -0.00507690  1
  V  V6  1  0.37363364  0.49388340  0.88066015  1
  V  V7  1  0.50243418  0.64016249  0.62116873  1
  V  V8  1  0.37095403  0.11155756  0.24421510  1
  V  V9  1  0.88166663  0.37500348  0.50780948  1
  V  V10  1  -0.00477503  0.14343062  0.62344437  1
  V  V11  1  0.11748505  -0.00348426  0.62032648  1
  V  V12  1  0.13547090  0.25638671  0.36899143  1
  V  V13  1  0.38261540  0.63447041  0.25362805  1
  V  V14  1  0.49019184  -0.00326379  0.50499530  1
  V  V15  1  0.75173663  0.24508435  0.50847741  1
  V  V16  1  0.25468882  0.27105972  0.00397556  1
  V  V17  1  0.36955869  0.24586543  0.61768929  1
  V  V18  1  0.62033765  0.11819979  0.51638097  1
  V  V19  1  0.24023355  0.61619114  0.86058402  1
  V  V20  1  0.00353801  0.38421206  0.36923587  1
  V  V21  1  0.37381276  0.49373964  0.37004244  1
  V  V22  1  0.75021067  0.13188921  0.36772803  1
  V  V23  1  0.12353905  0.50041258  0.61006775  1
  V  V24  1  0.00896653  0.74511966  0.24913225  1
  V  V25  1  0.24739070  0.63654911  0.37270447  1
  V  V26  1  0.87403358  0.24718346  0.12596691  1
  V  V27  1  0.75605870  -0.00988729  0.24868849  1
  V  V28  1  0.12658818  0.76343556  0.87300059  1
  V  V29  1  0.01009307  0.11325344  0.11436454  1
  V  V30  1  0.50775991  0.12907862  0.11846351  1
  V  V31  1  0.74600384  0.23773764  0.00086493  1
  V  V32  1  0.12617658  0.12929413  0.49879623  1
  V  V33  1  0.50231753  0.37973937  0.88942987  1
  V  V34  1  0.74652317  0.00142675  0.75269185  1
  V  V35  1  0.63886075  0.63123626  0.48818430  1
  V  V36  1  0.25159748  0.37920257  0.62438520  1
  V  V37  1  -0.00643635  0.24093045  0.25254581  1
  V  V38  1  0.74048155  0.37909612  0.63185929  1
  V  V39  1  0.88022532  0.13167852  0.75805626  1
  V  V40  1  0.85788033  0.49929482  0.36945633  1
  V  V41  1  0.13855170  0.48335109  0.13628235  1
  V  V42  1  0.50526999  0.26062325  0.74299997  1
  V  V43  1  0.25132789  0.12670036  0.88015969  1
  V  V44  1  0.00105702  0.87231612  0.38458270  1
  V  V45  1  -0.00720562  0.63006732  0.62629467  1
  V  V46  1  0.49891416  0.62765182  0.11400869  1
  V  V47  1  -0.00733017  0.76476949  0.75173883  1
  V  V48  1  0.62226745  0.49379756  0.11954150  1
  V  V49  1  0.13218581  0.64967831  0.49797595  1
  V  V50  1  0.38608213  0.62708154  0.74411455  1
  V  V51  1  0.49865060  0.24994601  0.26247432  1
  V  V52  1  0.63687809  0.63047588  -0.00685408  1
  V  V53  1  -0.00690615  0.37870765  0.87110373  1
  V  V54  1  0.13275360  0.62575075  0.00696080  1
  V  V55  1  0.62791103  0.75955175  0.87733152  1
  V  V56  1  0.25359658  0.10679722  0.37216233  1
  V  V57  1  0.49564129  -0.00802585  -0.00439602  1
  V  V58  1  0.61622069  0.87418303  0.73816676  1
  V  V59  1  0.12682685  0.89186732  0.24317585  1
  V  V60  1  0.75670163  0.52743768  0.77661439  1
  V  V61  1  0.24685398  -0.00069815  0.74887904  1
  V  V62  1  0.36642754  0.75509071  0.11050257  1
  V  V63  1  0.75569482  0.85291022  0.11735205  1
  V  V64  1  0.86089420  0.62930997  0.25437619  1
  V  V65  1  0.62713419  -0.00885996  0.12862748  1
  V  V66  1  0.62530465  0.23933045  0.87946644  1
  V  V67  1  0.12191082  0.25217487  0.87294843  1
  V  V68  1  0.88115506  0.00039144  0.38939972  1
  V  V69  1  0.37298985  0.86800571  0.48539923  1
  V  V70  1  0.38177116  0.12161393  0.74885961  1
  V  V71  1  0.25805733  0.86779975  0.62104854  1
  V  V72  1  0.77221784  0.86542011  0.61743709  1
  Zn  Zn73  1  0.86419083  0.38138108  -0.00172311  1
  Zn  Zn74  1  0.49075597  0.87265822  0.87523532  1
  Zn  Zn75  1  0.62328164  0.50275242  0.63312780  1
  Zn  Zn76  1  -0.00481292  0.62473518  0.12730138  1
  Zn  Zn77  1  0.50368265  0.49756506  0.50302752  1
  Zn  Zn78  1  0.75178201  0.38020751  0.12978660  1
  Zn  Zn79  1  0.36948842  0.25349083  0.12063549  1
  Zn  Zn80  1  0.86848297  -0.00132394  0.88387384  1
  Zn  Zn81  1  0.24651829  -0.12194970  0.12693815  1
  Zn  Zn82  1  0.18556687  0.18782996  0.18602203  1
  Zn  Zn83  1  0.18644951  0.19132822  0.69055230  1
  Zn  Zn84  1  0.19088949  0.68647271  0.19137875  1
  Zn  Zn85  1  0.17891606  0.68659295  0.69096309  1
  Zn  Zn86  1  0.68432240  0.19018681  0.19193049  1
  Zn  Zn87  1  0.69623576  0.19243445  0.69323367  1
  Zn  Zn88  1  0.67995909  0.68682417  0.19977899  1
  Zn  Zn89  1  0.68965510  0.69109404  0.68998367  1
  Zn  Zn90  1  0.31945999  0.31162594  0.30502305  1
  Zn  Zn91  1  0.31317920  0.31318700  0.80845748  1
  Zn  Zn92  1  0.31115216  0.81568618  0.30833072  1
  Zn  Zn93  1  0.29639592  0.80006828  0.80118210  1
  Zn  Zn94  1  0.81037598  0.31571276  0.31298156  1
  Zn  Zn95  1  0.80932437  0.31475640  0.81389027  1
  Zn  Zn96  1  0.82429034  0.79062844  0.36314824  1
  Zn  Zn97  1  0.80793398  0.81333597  0.81680487  1
  Zn  Zn98  1  0.19695116  0.43841903  0.43685663  1
  Zn  Zn99  1  0.18358080  0.44249942  0.94132627  1
  Zn  Zn100  1  0.18274482  0.93167095  0.43880616  1
  Zn  Zn101  1  0.20996496  0.93953512  0.95018586  1
  Zn  Zn102  1  0.68625491  0.44059670  0.44899806  1
  Zn  Zn103  1  0.68516892  0.43451157  0.94001482  1
  Zn  Zn104  1  0.69152374  0.94563509  0.44571162  1
  Zn  Zn105  1  0.68648274  0.94223713  0.94308896  1
  Zn  Zn106  1  0.30711073  0.05349549  0.06409557  1
  Zn  Zn107  1  0.30908182  0.06221736  0.55940172  1
  Zn  Zn108  1  0.31396448  0.56012761  0.06134389  1
  Zn  Zn109  1  0.31117310  0.56283734  0.56073122  1
  Zn  Zn110  1  0.82103451  0.05959819  0.06428559  1
  Zn  Zn111  1  0.81424538  0.05554314  0.57262144  1
  Zn  Zn112  1  0.80853400  0.56797992  0.07255005  1
  Zn  Zn113  1  0.81413310  0.55883589  0.55819593  1
  Zn  Zn114  1  0.44434499  0.44395443  0.19446479  1
  Zn  Zn115  1  0.43757491  0.44631744  0.69078277  1
  Zn  Zn116  1  0.43696925  0.93265165  0.18155809  1
  Zn  Zn117  1  0.44128770  0.94142289  0.67866973  1
  Zn  Zn118  1  0.94003650  0.43593486  0.18888406  1
  Zn  Zn119  1  0.93620101  0.44837069  0.69180950  1
  Zn  Zn120  1  0.93406724  0.93188285  0.18845308  1
  Zn  Zn121  1  0.93450478  0.94152287  0.69114042  1
  Zn  Zn122  1  0.06186232  0.06318116  0.31022072  1
  Zn  Zn123  1  0.06792681  0.07184396  0.80355564  1
  Zn  Zn124  1  0.06712735  0.56395074  0.31395850  1
  Zn  Zn125  1  0.02165588  0.58329411  0.83053812  1
  Zn  Zn126  1  0.55091307  -0.04152836  0.31890505  1
  Zn  Zn127  1  0.56300500  0.05845227  0.81052208  1
  Zn  Zn128  1  0.55983915  0.55748686  0.31423858  1
  Zn  Zn129  1  0.56837770  0.55771543  0.80998726  1
  Zn  Zn130  1  0.44054648  0.17056159  0.43458942  1
  Zn  Zn131  1  0.43527892  0.18814841  0.93709053  1
  Zn  Zn132  1  0.44052455  0.69096779  0.43775010  1
  Zn  Zn133  1  0.43747211  0.68714765  0.92873943  1
  Zn  Zn134  1  0.93495077  0.18667018  0.43858167  1
  Zn  Zn135  1  0.93602334  0.18907825  0.94163326  1
  Zn  Zn136  1  0.94067641  0.68319267  0.44160316  1
  Zn  Zn137  1  0.92854769  0.69278254  0.93350413  1
  Zn  Zn138  1  0.06644188  0.30954042  0.06180189  1
  Zn  Zn139  1  0.06557699  0.31279786  0.55655295  1
  Zn  Zn140  1  0.05957263  0.80665542  0.06539233  1
  Zn  Zn141  1  0.05798649  0.81604851  0.56875587  1
  Zn  Zn142  1  0.55893928  0.30941760  0.06019805  1
  Zn  Zn143  1  0.56457791  0.30483987  0.55462142  1
  Zn  Zn144  1  0.55980422  0.80953447  0.06868768  1
  Zn  Zn145  1  0.56152121  0.81072625  0.55368563  1
  O  O146  1  0.11020643  0.12344137  0.13166296  1
  O  O147  1  0.11861177  0.12456150  0.61923693  1
  O  O148  1  0.12448140  0.62442694  0.11378209  1
  O  O149  1  0.13048792  0.61626214  0.61086707  1
  O  O150  1  0.61031757  0.12203238  0.13049470  1
  O  O151  1  0.63789604  0.13225533  0.61511536  1
  O  O152  1  0.61260464  0.62273684  0.12239233  1
  O  O153  1  0.61412333  0.63303487  0.61755811  1
  O  O154  1  0.36417625  0.38578715  0.38180488  1
  O  O155  1  0.38150865  0.38635061  0.86792071  1
  O  O156  1  0.36540121  0.87996743  0.38566108  1
  O  O157  1  0.36377557  0.86856462  0.87577873  1
  O  O158  1  0.88520852  0.38284196  0.37701469  1
  O  O159  1  0.89011572  0.36830506  0.87711087  1
  O  O160  1  0.88813812  0.88945243  0.36700346  1
  O  O161  1  0.87427908  0.87761443  0.88798239  1
  O  O162  1  0.24374848  0.00901445  0.37082808  1
  O  O163  1  0.23951127  0.01569400  0.86013786  1
  O  O164  1  0.26472893  0.51382580  0.38255686  1
  O  O165  1  0.25884250  0.50694966  0.87588384  1
  O  O166  1  0.76063835  0.00254371  0.36518890  1
  O  O167  1  0.74749995  -0.00372000  0.85989516  1
  O  O168  1  0.75873259  0.49098318  0.37097782  1
  O  O169  1  0.74936608  0.50340984  0.87637846  1
  O  O170  1  0.23737724  0.50384193  0.12079381  1
  O  O171  1  0.23561677  0.49262255  0.62096219  1
  O  O172  1  0.23453860  0.96697196  0.05642326  1
  O  O173  1  0.24309535  0.99875231  0.63338871  1
  O  O174  1  0.72720712  0.50192017  0.12964082  1
  O  O175  1  0.74993936  0.48430110  0.62110966  1
  O  O176  1  0.73828097  1.01202780  0.13510042  1
  O  O177  1  0.75745779  0.98553350  0.64271716  1
  O  O178  1  0.00083693  0.36510594  0.26484209  1
  O  O179  1  0.00599258  0.38357851  0.76512940  1
  O  O180  1  0.00792173  0.86509852  0.25306876  1
  O  O181  1  0.00599029  0.86457510  0.74179865  1
  O  O182  1  0.50416669  0.35993109  0.24848220  1
  O  O183  1  0.49499084  0.36219975  0.75751298  1
  O  O184  1  0.50544753  0.88258916  0.25098247  1
  O  O185  1  0.51184538  0.89148503  0.75582312  1
  O  O186  1  0.48472384  0.13413903  0.23633835  1
  O  O187  1  0.48623748  0.13260218  0.75654071  1
  O  O188  1  0.48647373  0.62356743  0.24588575  1
  O  O189  1  0.49400358  0.62401531  0.74117753  1
  O  O190  1  0.99771636  0.13828695  0.24646890  1
  O  O191  1  0.99298737  0.12357384  0.73654690  1
  O  O192  1  0.99731511  0.63601713  0.25722227  1
  O  O193  1  1.01423954  0.63746234  0.73105541  1
  O  O194  1  0.35982578  0.24977578  -0.00072451  1
  O  O195  1  0.38298050  0.25097830  0.51407973  1
  O  O196  1  0.37312719  0.73884850  0.01164717  1
  O  O197  1  0.37757800  0.76828885  0.49785800  1
  O  O198  1  0.86135700  0.25538228  0.00403717  1
  O  O199  1  0.86630254  0.26442592  0.49400666  1
  O  O200  1  0.87790857  0.76491456  -0.00042125  1
  O  O201  1  0.85315183  0.74810912  0.46528588  1
  O  O202  1  0.12250794  0.23977126  0.48400758  1
  O  O203  1  0.13991700  0.25810082  0.98305298  1
  O  O204  1  0.13297594  0.74809092  0.50336741  1
  O  O205  1  0.11359309  0.73103900  0.98880399  1
  O  O206  1  0.64445815  0.24240924  0.49792932  1
  O  O207  1  0.63248087  0.24861542  0.99191265  1
  O  O208  1  0.62136479  0.74080812  0.48439208  1
  O  O209  1  0.62182701  0.73877065  0.99642741  1
  O  O210  1  0.49359672  0.23835365  0.12419473  1
  O  O211  1  0.49203685  0.25491813  0.63758206  1
  O  O212  1  0.48692571  0.73599223  0.12596535  1
  O  O213  1  0.49599756  0.73972194  0.62347030  1
  O  O214  1  0.99699471  0.24873393  0.13758587  1
  O  O215  1  1.00335329  0.24291128  0.62682499  1
  O  O216  1  0.99602925  0.74548519  0.14429217  1
  O  O217  1  1.00680769  0.74207887  0.63661076  1
  O  O218  1  0.00386404  0.25274054  0.36539734  1
  O  O219  1  0.01498038  0.26362098  0.88423416  1
  O  O220  1  -0.00358247  0.76575582  0.36794191  1
  O  O221  1  0.01680609  0.74901632  0.86432047  1
  O  O222  1  0.49500635  0.24210959  0.36158809  1
  O  O223  1  0.50496723  0.25785112  0.86898896  1
  O  O224  1  0.51021374  0.75412842  0.37625560  1
  O  O225  1  0.51185992  0.75744686  0.88132603  1
  O  O226  1  0.24448069  0.12532706  0.48221584  1
  O  O227  1  0.25392078  0.12555516  0.98063314  1
  O  O228  1  0.24064943  0.62653418  0.49331729  1
  O  O229  1  0.23598229  0.61945540  0.98984124  1
  O  O230  1  0.75907564  0.13733131  0.50597333  1
  O  O231  1  0.75516767  0.13864831  0.99946171  1
  O  O232  1  0.73811170  0.62558340  0.50441491  1
  O  O233  1  0.73623815  0.62547036  1.00443882  1
  O  O234  1  0.25481662  0.37067434  -0.00288153  1
  O  O235  1  0.26212264  0.37384732  0.51292069  1
  O  O236  1  0.32639816  0.88130626  -0.05611878  1
  O  O237  1  0.25965560  0.88282653  0.51066730  1
  O  O238  1  0.74779823  0.36497998  0.00811007  1
  O  O239  1  0.75974548  0.36511189  0.50554160  1
  O  O240  1  0.74746752  0.87240549  0.01534290  1
  O  O241  1  0.74708256  0.88193868  0.51949204  1
  O  O242  1  0.12232699  0.50466533  0.23517094  1
  O  O243  1  0.12479271  0.48881716  0.73917814  1
  O  O244  1  0.12028632  0.99190681  0.24174044  1
  O  O245  1  0.13802170  1.00935363  0.73470867  1
  O  O246  1  0.61107752  0.48118751  0.24226514  1
  O  O247  1  0.65029535  0.50680402  0.74761642  1
  O  O248  1  0.63466032  1.00184515  0.23928858  1
  O  O249  1  0.63610107  0.99158059  0.75120532  1
  O  O250  1  0.37400654  0.01225317  0.24294819  1
  O  O251  1  0.36544434  0.01553981  0.74210196  1
  O  O252  1  0.37584406  0.51087910  0.26418434  1
  O  O253  1  0.37675463  0.51373873  0.76408542  1
  O  O254  1  0.85931164  0.00392218  0.25026735  1
  O  O255  1  0.86840107  0.00609147  0.75976150  1
  O  O256  1  0.87975677  0.50310562  0.26332488  1
  O  O257  1  0.85120680  0.49504856  0.74752693  1
  O  O258  1  0.11601463  0.36426399  0.38551736  1
  O  O259  1  0.12279551  0.37119877  0.86802656  1
  O  O260  1  0.10999749  0.88611011  0.36182958  1
  O  O261  1  0.14726748  0.85978994  0.89312592  1
  O  O262  1  0.62342349  0.37924485  0.36875245  1
  O  O263  1  0.60786507  0.36693398  0.88021561  1
  O  O264  1  0.61735416  0.88216526  0.38406057  1
  O  O265  1  0.62270095  0.86813834  0.87412159  1
  O  O266  1  0.37138113  0.12418485  0.13327336  1
  O  O267  1  0.36707756  0.13860957  0.63381710  1
  O  O268  1  0.38030516  0.62729711  0.13464904  1
  O  O269  1  0.38270906  0.61730591  0.63574764  1
  O  O270  1  0.88454523  0.14209642  0.12185567  1
  O  O271  1  0.89097705  0.12146138  0.63278700  1
  O  O272  1  0.87928646  0.61518809  0.14897271  1
  O  O273  1  0.89456024  0.61945847  0.61401105  1
  O  O274  1  0.24486110  0.24699841  0.10653087  1
  O  O275  1  0.26333023  0.25772782  0.62778696  1
  O  O276  1  0.26132989  0.74947444  0.12504141  1
  O  O277  1  0.24016518  0.77065647  0.63666991  1
  O  O278  1  0.75288297  0.24749116  0.11542289  1
  O  O279  1  0.75602531  0.26083749  0.61495761  1
  O  O280  1  0.74407528  0.75488428  0.12930045  1
  O  O281  1  0.75197518  0.76653641  0.63329544  1
  O  O282  1  0.23712837  0.25607575  0.36531448  1
  O  O283  1  0.24587250  0.24616039  0.88068117  1
  O  O284  1  0.25397659  0.73599150  0.37602139  1
  O  O285  1  0.23670521  0.72881653  0.87352340  1
  O  O286  1  0.75995794  0.23745096  0.38411047  1
  O  O287  1  0.73441366  0.25657859  0.88426902  1
  O  O288  1  0.71842760  0.75412488  0.35990218  1
  O  O289  1  0.72929429  0.75165197  0.87654435  1
  O  O290  1  0.00223748  0.13217998  0.01380415  1
  O  O291  1  0.00802510  0.12937596  0.51279518  1
  O  O292  1  0.00914584  0.60936424  0.00188259  1
  O  O293  1  0.02024133  0.63554210  0.51142680  1
  O  O294  1  0.49548927  0.12112037  0.01344780  1
  O  O295  1  0.51660031  0.13206906  0.50910654  1
  O  O296  1  0.50261812  0.62418713  0.01159439  1
  O  O297  1  0.49995486  0.62435976  0.51309418  1
  O  O298  1  0.48595911  0.37227526  0.50306314  1
  O  O299  1  0.48945175  0.36891401  0.98849536  1
  O  O300  1  0.48621962  0.88674883  0.50488412  1
  O  O301  1  0.50286075  0.88757098  1.00461701  1
  O  O302  1  0.98815290  0.36579110  0.48700176  1
  O  O303  1  1.00003888  0.38369325  0.99364948  1
  O  O304  1  1.00753104  0.87464806  0.48444463  1
  O  O305  1  0.99126849  0.87578645  1.00713155  1
  O  O306  1  0.47895601  0.50630421  0.38329429  1
  O  O307  1  0.49364953  0.48682781  0.87084928  1
  O  O308  1  0.50457925  1.01917378  0.40214308  1
  O  O309  1  0.50740376  0.99747643  0.89077577  1
  O  O310  1  1.00465281  0.48478466  0.37484914  1
  O  O311  1  1.01055679  0.48426858  0.89192527  1
  O  O312  1  0.98766020  0.99682762  0.37030249  1
  O  O313  1  1.03474001  0.99721581  0.89317655  1
  O  O314  1  -0.01184912  0.01583219  0.13056863  1
  O  O315  1  0.01585717  0.00491607  0.62901823  1
  O  O316  1  0.01159897  0.49750131  0.11682750  1
  O  O317  1  0.01530387  0.51349108  0.63025226  1
  O  O318  1  0.51005336  0.00938247  0.12189604  1
  O  O319  1  0.49752672  0.01104939  0.60898833  1
  O  O320  1  0.50593955  0.51558909  0.12921462  1
  O  O321  1  0.50530147  0.51046915  0.62508317  1
  O  O322  1  0.29190296  0.37748989  0.20794591  1
  O  O323  1  0.24459932  0.37352972  0.73527649  1
  O  O324  1  0.23209348  0.87412838  0.25037942  1
  O  O325  1  0.25619482  0.89302593  0.74172480  1
  O  O326  1  0.72705730  0.36104386  0.24570878  1
  O  O327  1  0.75044000  0.36607760  0.73226201  1
  O  O328  1  0.75285600  0.88975170  0.23208324  1
  O  O329  1  0.74066411  0.88219063  0.74325334  1
  O  O330  1  0.25911544  0.13056737  0.25880000  1
  O  O331  1  0.25846106  0.12076017  0.75378792  1
  O  O332  1  0.25905624  0.62428409  0.26462293  1
  O  O333  1  0.25069080  0.61878325  0.75738603  1
  O  O334  1  0.74371021  0.12235013  0.26401818  1
  O  O335  1  0.76488503  0.11241985  0.74329629  1
  O  O336  1  0.76095731  0.62495220  0.25416620  1
  O  O337  1  0.75497324  0.62802083  0.75983839  1
  O  O338  1  0.36104823  0.12655555  0.36419606  1
  O  O339  1  0.36238037  0.13367551  0.85932382  1
  O  O340  1  0.36832063  0.62298364  0.36888766  1
  O  O341  1  0.36437175  0.61680902  0.86651850  1
  O  O342  1  0.86552625  0.11180964  0.37992558  1
  O  O343  1  0.89397289  0.11619020  0.86297281  1
  O  O344  1  0.88233057  0.60428163  0.37143693  1
  O  O345  1  0.91478715  0.60833589  0.86508044  1
  O  O346  1  0.12767372  0.38289990  0.12566737  1
  O  O347  1  0.12838527  0.38251702  0.62651951  1
  O  O348  1  0.12456425  0.86472352  0.13984864  1
  O  O349  1  0.13595451  0.89275850  0.61416036  1
  O  O350  1  0.61593314  0.38874727  0.12106754  1
  O  O351  1  0.63761668  0.37387592  0.61587058  1
  O  O352  1  0.63574374  0.88533378  0.12519706  1
  O  O353  1  0.62015225  0.86910405  0.63750805  1
  O  O354  1  0.11368525  0.24883603  0.26294660  1
  O  O355  1  0.13067973  0.26499331  0.76316692  1
  O  O356  1  0.11250342  0.74813077  0.25552875  1
  O  O357  1  0.12417386  0.75495088  0.76616482  1
  O  O358  1  0.60802660  0.25952185  0.24536780  1
  O  O359  1  0.61241493  0.24572355  0.75970955  1
  O  O360  1  0.61995754  0.75519525  0.26582176  1
  O  O361  1  0.62303654  0.76614831  0.76152621  1
  O  O362  1  0.38547063  0.24249741  0.24215403  1
  O  O363  1  0.38438065  0.24342666  0.74080221  1
  O  O364  1  0.37196059  0.73726881  0.24349709  1
  O  O365  1  0.37000938  0.72710780  0.75544111  1
  O  O366  1  0.88614167  0.25445063  0.24512512  1
  O  O367  1  0.86754713  0.23083860  0.75760364  1
  O  O368  1  0.88057071  0.73277197  0.26823056  1
  O  O369  1  0.89321284  0.75389111  0.76310038  1
  O  O370  1  0.37581442  0.48978046  0.49478176  1
  O  O371  1  0.37769393  0.50835234  0.98091596  1
  O  O372  1  0.38192128  0.99565771  0.50203110  1
  O  O373  1  0.39639716  1.00508809  1.00640562  1
  O  O374  1  0.87153593  0.48398000  0.48470130  1
  O  O375  1  0.88878253  0.50072482  1.01346812  1
  O  O376  1  0.87204922  0.99776354  0.48844668  1
  O  O377  1  0.86892490  0.98387821  0.99810974  1
  O  O378  1  0.07836642  -0.00078508  -0.04499775  1
  O  O379  1  0.13130672  0.01540450  0.51127724  1
  O  O380  1  0.11769459  0.50762622  0.01152491  1
  O  O381  1  0.12177283  0.49590322  0.50886488  1
  O  O382  1  0.61818337  0.00316395  0.01911241  1
  O  O383  1  0.62000556  0.01291394  0.51043471  1
  O  O384  1  0.62084577  0.51378948  0.01220862  1
  O  O385  1  0.62224815  0.51495022  0.50752503  1
  O  O386  1  0.35133189  0.37689241  0.15364769  1
  O  O387  1  0.37049002  0.36748051  0.62175228  1
  O  O388  1  0.36921829  0.85980709  0.12558864  1
  O  O389  1  0.36186768  0.87766257  0.62157403  1
  O  O390  1  0.87309629  0.36246432  0.12573869  1
  O  O391  1  0.87602424  0.38206357  0.61063320  1
  O  O392  1  0.86153451  0.87409735  0.11620033  1
  O  O393  1  0.87386192  0.87305183  0.62270858  1
  O  O394  1  0.13485847  0.13322783  0.37646503  1
  O  O395  1  0.13690740  0.14356705  0.86448312  1
  O  O396  1  0.13524277  0.62275844  0.38879685  1
  O  O397  1  0.13148044  0.61674110  0.87987052  1
  O  O398  1  0.65452802  0.11856781  0.40133104  1
  O  O399  1  0.61833677  0.14028304  0.87484871  1
  O  O400  1  0.62203150  0.61920162  0.38733339  1
  O  O401  1  0.61559149  0.63320246  0.88895755  1
