# generated using pymatgen
data_V73Zn73O256
_symmetry_space_group_name_H-M   'P 1'
_cell_length_a   16.87969088
_cell_length_b   16.93743488
_cell_length_c   16.93884502
_cell_angle_alpha   89.88410459
_cell_angle_beta   90.05564951
_cell_angle_gamma   90.21661775
_symmetry_Int_Tables_number   1
_chemical_formula_structural   V73Zn73O256
_chemical_formula_sum   'V73 Zn73 O256'
_cell_volume   4842.74641014
_cell_formula_units_Z   1
loop_
 _symmetry_equiv_pos_site_id
 _symmetry_equiv_pos_as_xyz
  1  'x, y, z'
loop_
 _atom_site_type_symbol
 _atom_site_label
 _atom_site_symmetry_multiplicity
 _atom_site_fract_x
 _atom_site_fract_y
 _atom_site_fract_z
 _atom_site_occupancy
  V  V0  1  0.38065631  0.75341111  0.63457577  1
  V  V1  1  0.87440821  0.36349827  0.00475671  1
  V  V2  1  0.24271208  0.75254635  0.50377117  1
  V  V3  1  0.37273581  -0.00679158  0.37772169  1
  V  V4  1  0.12476393  0.14635351  -0.00022904  1
  V  V5  1  0.11959326  0.75672652  0.37604372  1
  V  V6  1  0.25044227  0.25525101  0.49897999  1
  V  V7  1  0.50010855  0.25708019  0.24203808  1
  V  V8  1  0.73773149  0.13289670  0.85183106  1
  V  V9  1  0.75719211  -0.00753061  0.74290275  1
  V  V10  1  0.62907418  0.64658676  -0.01220949  1
  V  V11  1  0.00534668  0.13031768  0.64109755  1
  V  V12  1  0.62073612  0.39091727  0.25378663  1
  V  V13  1  0.10956773  0.00837993  0.10822755  1
  V  V14  1  0.37887538  0.38291530  -0.00180002  1
  V  V15  1  0.49033444  0.12428114  0.62203721  1
  V  V16  1  0.87329023  0.01569545  0.38075325  1
  V  V17  1  0.76130646  0.85835257  0.14130453  1
  V  V18  1  0.38761208  0.00236748  0.86481764  1
  V  V19  1  0.37452652  0.87300084  0.00534151  1
  V  V20  1  0.00255023  0.60770051  0.62268552  1
  V  V21  1  0.24884372  -0.00516631  0.23273289  1
  V  V22  1  0.62655438  0.49679699  0.62098257  1
  V  V23  1  0.87285581  0.76317029  0.61985789  1
  V  V24  1  0.36583167  0.61298177  0.75374229  1
  V  V25  1  0.37407492  0.13087037  0.24935712  1
  V  V26  1  0.00536939  0.35522768  0.88182654  1
  V  V27  1  0.88092777  0.24627276  0.64616413  1
  V  V28  1  0.75477545  0.01217562  0.25221302  1
  V  V29  1  0.50331222  0.62684604  0.63182686  1
  V  V30  1  0.12587880  0.12466468  0.50565016  1
  V  V31  1  0.50474910  0.85029923  0.86935154  1
  V  V32  1  0.48926107  0.37220717  0.37898369  1
  V  V33  1  0.61743719  0.85937353  0.26866218  1
  V  V34  1  0.23862077  0.51429835  0.25142061  1
  V  V35  1  0.37609326  0.49787854  0.88183212  1
  V  V36  1  0.02802049  0.36827006  0.36344948  1
  V  V37  1  0.62333062  -0.00470293  0.63192178  1
  V  V38  1  0.72129861  0.25679998  -0.00567935  1
  V  V39  1  0.87906820  0.62280400  0.74814109  1
  V  V40  1  0.25988069  0.74029201  -0.03285228  1
  V  V41  1  0.24102719  0.88437272  0.63414016  1
  V  V42  1  0.36493411  0.25257656  0.11841087  1
  V  V43  1  0.00739566  0.22953102  0.24931911  1
  V  V44  1  0.87861991  0.50415630  0.87858121  1
  V  V45  1  0.24837309  0.13084161  0.37921652  1
  V  V46  1  0.36866431  0.51113329  0.36281978  1
  V  V47  1  0.11318776  0.51106630  0.12910906  1
  V  V48  1  0.75218943  0.38362515  0.13354987  1
  V  V49  1  0.25349681  0.13707303  0.87956939  1
  V  V50  1  0.00373212  0.51228070  0.00011212  1
  V  V51  1  0.49695685  0.25225267  0.75819722  1
  V  V52  1  0.11949433  0.37452816  0.75887429  1
  V  V53  1  -0.01185154  0.92262938  0.89650028  1
  V  V54  1  0.75733933  0.37106327  0.61756450  1
  V  V55  1  0.75175061  0.50059320  0.75464088  1
  V  V56  1  0.24317455  0.38815224  0.62980687  1
  V  V57  1  0.37696344  0.26073312  0.61339709  1
  V  V58  1  0.75125462  0.76668973  0.49615740  1
  V  V59  1  0.89742482  0.37717427  0.49483576  1
  V  V60  1  0.02052253  0.75561672  0.74701014  1
  V  V61  1  0.23894654  0.37748286  0.12768895  1
  V  V62  1  0.63609774  0.62406634  0.48905753  1
  V  V63  1  0.87608878  0.64074643  0.22448911  1
  V  V64  1  0.49152090  0.64835684  0.13230908  1
  V  V65  1  0.23337598  0.00544322  0.75438741  1
  V  V66  1  0.50150939  -0.00752640  0.49334077  1
  V  V67  1  0.49219291  0.49998546  0.49881434  1
  V  V68  1  0.60838289  0.50455981  0.10915281  1
  V  V69  1  0.00064336  -0.00379957  0.51379273  1
  V  V70  1  0.12048178  0.61541054  0.50206920  1
  V  V71  1  -0.00031563  0.88194281  0.36827616  1
  V  V72  1  0.62267071  0.36941667  0.75832689  1
  Zn  Zn73  1  0.11990855  0.85050329  0.21108609  1
  Zn  Zn74  1  0.62628777  0.85299994  0.75158613  1
  Zn  Zn75  1  0.53272145  0.04610248  0.01211322  1
  Zn  Zn76  1  0.76011021  0.23481986  0.48697190  1
  Zn  Zn77  1  0.61801294  -0.00360314  0.13526335  1
  Zn  Zn78  1  0.78808788  0.55371156  0.33744472  1
  Zn  Zn79  1  0.37793560  0.86948442  0.49948988  1
  Zn  Zn80  1  0.89874056  0.18437665  0.12313010  1
  Zn  Zn81  1  0.63844704  0.12964592  0.48355734  1
  Zn  Zn82  1  0.18575272  0.18523580  0.18783730  1
  Zn  Zn83  1  0.18923022  0.19217823  0.69374358  1
  Zn  Zn84  1  0.05550606  0.68496650  0.19064608  1
  Zn  Zn85  1  0.19097453  0.68497926  0.67878887  1
  Zn  Zn86  1  0.68993715  0.18184455  0.15797714  1
  Zn  Zn87  1  0.67671636  0.19276306  0.65774907  1
  Zn  Zn88  1  0.68512033  0.68157636  0.19372402  1
  Zn  Zn89  1  0.69493490  0.68569369  0.68423402  1
  Zn  Zn90  1  0.30762853  0.32001878  0.31066284  1
  Zn  Zn91  1  0.31754891  0.31684985  0.80642473  1
  Zn  Zn92  1  0.29856569  0.81797236  0.31306934  1
  Zn  Zn93  1  0.31524908  0.81662453  0.81130401  1
  Zn  Zn94  1  0.81858817  0.20021143  0.30838515  1
  Zn  Zn95  1  0.81203917  0.31321087  0.81838566  1
  Zn  Zn96  1  0.81839992  0.80896058  0.31455500  1
  Zn  Zn97  1  0.83126643  0.82424727  0.79900266  1
  Zn  Zn98  1  0.18597997  0.43337266  0.43409187  1
  Zn  Zn99  1  0.18984900  0.43956688  0.94265974  1
  Zn  Zn100  1  0.18757536  0.93979380  0.44592465  1
  Zn  Zn101  1  0.18536879  0.93443531  0.94062585  1
  Zn  Zn102  1  0.76199354  0.37209786  0.36955692  1
  Zn  Zn103  1  0.68684468  0.44229320  0.93880896  1
  Zn  Zn104  1  0.68512230  0.93929156  0.43416805  1
  Zn  Zn105  1  0.66986651  0.95502066  0.92377884  1
  Zn  Zn106  1  0.34491412  0.07136703  0.04513785  1
  Zn  Zn107  1  0.31553021  0.06531552  0.56649381  1
  Zn  Zn108  1  0.31135849  0.56804277  0.06807735  1
  Zn  Zn109  1  0.31277972  0.56764697  0.55974359  1
  Zn  Zn110  1  0.76298884  0.05234977  0.04222780  1
  Zn  Zn111  1  0.81748413  0.06364796  0.56780857  1
  Zn  Zn112  1  0.80680469  0.56476807  0.06234903  1
  Zn  Zn113  1  0.81757385  0.55503090  0.55687368  1
  Zn  Zn114  1  0.42946976  0.44382164  0.18552675  1
  Zn  Zn115  1  0.43643071  0.43642001  0.68759636  1
  Zn  Zn116  1  0.44322237  0.93431902  0.18527108  1
  Zn  Zn117  1  0.43900963  0.93434059  0.69327003  1
  Zn  Zn118  1  0.93478122  0.43768577  0.19973608  1
  Zn  Zn119  1  0.94207580  0.43274964  0.69295660  1
  Zn  Zn120  1  0.93510257  0.94908531  0.18847383  1
  Zn  Zn121  1  0.94361828  0.93669410  0.70523763  1
  Zn  Zn122  1  0.07031275  0.05828665  0.31410439  1
  Zn  Zn123  1  0.06555147  0.07076811  0.82735302  1
  Zn  Zn124  1  -0.03830012  0.54843273  0.33742793  1
  Zn  Zn125  1  0.18970400  0.55776533  0.81111978  1
  Zn  Zn126  1  0.59856298  0.09542093  0.28476764  1
  Zn  Zn127  1  0.56529024  0.07446836  0.80901612  1
  Zn  Zn128  1  0.55837087  0.56671916  0.31047189  1
  Zn  Zn129  1  0.55892955  0.56074949  0.81589859  1
  Zn  Zn130  1  0.47432196  0.16199463  0.40941023  1
  Zn  Zn131  1  0.43124726  0.19051310  0.93422446  1
  Zn  Zn132  1  0.43043978  0.68149769  0.44659952  1
  Zn  Zn133  1  0.44465809  0.68146868  0.94655957  1
  Zn  Zn134  1  0.94487516  0.19771082  0.44656953  1
  Zn  Zn135  1  0.92096415  0.09573864  0.96766838  1
  Zn  Zn136  1  0.93445969  0.69160550  0.43842972  1
  Zn  Zn137  1  1.05352874  0.68018320  0.91003665  1
  Zn  Zn138  1  0.06051910  0.30688924  0.06773534  1
  Zn  Zn139  1  0.06935137  0.30895204  0.56728556  1
  Zn  Zn140  1  0.02860776  0.83051680  0.05541797  1
  Zn  Zn141  1  0.05603374  0.81623349  0.57775577  1
  Zn  Zn142  1  0.55506877  0.32076592  0.06721933  1
  Zn  Zn143  1  0.57013035  0.31208607  0.55428923  1
  Zn  Zn144  1  0.56811593  0.82338904  0.06709595  1
  Zn  Zn145  1  0.56838974  0.80962400  0.56112007  1
  O  O146  1  0.14486143  0.11681675  0.10715849  1
  O  O147  1  0.11455693  0.13193741  0.62079973  1
  O  O148  1  0.11730249  0.60970640  0.12619368  1
  O  O149  1  0.11267188  0.62820155  0.61459171  1
  O  O150  1  0.61052312  0.10701728  0.17205582  1
  O  O151  1  0.60455534  0.10787010  0.62088896  1
  O  O152  1  0.62014371  0.61327105  0.11863753  1
  O  O153  1  0.61943064  0.61177345  0.62132215  1
  O  O154  1  0.38386491  0.38971817  0.37159648  1
  O  O155  1  0.36622223  0.38244215  0.88951085  1
  O  O156  1  0.36547356  0.89109986  0.37710855  1
  O  O157  1  0.39033209  0.88325151  0.87058348  1
  O  O158  1  0.88139757  0.37715031  0.39555453  1
  O  O159  1  0.88520680  0.37938293  0.88437205  1
  O  O160  1  0.89610657  0.88424671  0.37560944  1
  O  O161  1  0.91646169  0.89459566  0.82470732  1
  O  O162  1  0.25954468  0.00973169  0.37570266  1
  O  O163  1  0.25456686  -0.00186752  0.86067858  1
  O  O164  1  0.25936926  0.49094411  0.36336703  1
  O  O165  1  0.26584799  0.49689541  0.87480565  1
  O  O166  1  0.77065914  -0.00332827  0.37968603  1
  O  O167  1  0.73436053  0.01274104  0.84354992  1
  O  O168  1  0.72976919  0.47526021  0.38433679  1
  O  O169  1  0.76292636  0.48890032  0.86317987  1
  O  O170  1  0.24046306  0.49887218  0.13244671  1
  O  O171  1  0.25661081  0.48551302  0.61460355  1
  O  O172  1  0.27143515  1.00726055  0.13783914  1
  O  O173  1  0.25993593  0.99268877  0.63870163  1
  O  O174  1  0.73079006  0.48652953  0.11738408  1
  O  O175  1  0.74503822  0.49025528  0.63317037  1
  O  O176  1  0.75272368  0.99401892  0.15010551  1
  O  O177  1  0.73084785  1.00702488  0.63091918  1
  O  O178  1  0.00071636  0.36541104  0.26100271  1
  O  O179  1  0.00969204  0.37619051  0.76789929  1
  O  O180  1  0.01553384  0.89697128  0.26870609  1
  O  O181  1  0.02045614  0.85336347  0.71403479  1
  O  O182  1  0.49731194  0.37363749  0.25405845  1
  O  O183  1  0.51322329  0.36689969  0.74075762  1
  O  O184  1  0.51885624  0.88401820  0.25252410  1
  O  O185  1  0.50312284  0.87494712  0.76503652  1
  O  O186  1  0.48155279  0.14822487  0.25809462  1
  O  O187  1  0.50695080  0.14462169  0.73453989  1
  O  O188  1  0.51001074  0.62870683  0.23227486  1
  O  O189  1  0.48884070  0.61635129  0.73555121  1
  O  O190  1  1.00226155  0.12841120  0.25909900  1
  O  O191  1  1.00946743  0.11891359  0.73861398  1
  O  O192  1  0.98411246  0.62298124  0.24895375  1
  O  O193  1  0.99207815  0.63622075  0.73178359  1
  O  O194  1  0.36965897  0.26401808  0.01358990  1
  O  O195  1  0.36655940  0.24937366  0.51119229  1
  O  O196  1  0.36771545  0.76085154  -0.01482339  1
  O  O197  1  0.36129830  0.74845295  0.51182286  1
  O  O198  1  0.86306447  0.26463974  0.01155509  1
  O  O199  1  0.87644893  0.26164937  0.51545545  1
  O  O200  1  0.82581692  0.75635969  -0.04007961  1
  O  O201  1  0.86764163  0.75242118  0.51157230  1
  O  O202  1  0.13936230  0.23610278  0.50653372  1
  O  O203  1  0.14160974  0.24509082  1.01073673  1
  O  O204  1  0.13520161  0.75513724  0.50865320  1
  O  O205  1  0.09924432  0.76952499  0.97866322  1
  O  O206  1  0.64807111  0.23502823  0.53918388  1
  O  O207  1  0.62322517  0.27645775  0.98920650  1
  O  O208  1  0.63930658  0.73390720  0.51059799  1
  O  O209  1  0.62983669  0.74683110  1.00024633  1
  O  O210  1  0.47933881  0.26118021  0.13565534  1
  O  O211  1  0.48974145  0.24350431  0.61686823  1
  O  O212  1  0.49994700  0.74892307  0.12598288  1
  O  O213  1  0.48572043  0.74197095  0.61513041  1
  O  O214  1  0.99971557  0.24458449  0.13809859  1
  O  O215  1  0.99524136  0.24013439  0.62926302  1
  O  O216  1  1.03901657  0.78675863  0.15378734  1
  O  O217  1  0.98491098  0.73748801  0.62487728  1
  O  O218  1  -0.00657565  0.25639229  0.36037492  1
  O  O219  1  -0.00323465  0.26041285  0.87988637  1
  O  O220  1  0.00971381  0.77069536  0.38905543  1
  O  O221  1  -0.00603740  0.75293319  0.84588037  1
  O  O222  1  0.48344788  0.26908742  0.36123416  1
  O  O223  1  0.49146827  0.24708509  0.85711810  1
  O  O224  1  0.45061382  0.75332178  0.34528181  1
  O  O225  1  0.49507028  0.75191152  0.86789793  1
  O  O226  1  0.24698105  0.13114491  0.49829672  1
  O  O227  1  0.25451507  0.12196284  0.98305184  1
  O  O228  1  0.23641420  0.64409254  0.51514947  1
  O  O229  1  0.27003248  0.64301661  0.99524287  1
  O  O230  1  0.75096907  0.12003890  0.49914289  1
  O  O231  1  0.72213569  0.16239038  1.03160489  1
  O  O232  1  0.73746146  0.61564974  0.50087580  1
  O  O233  1  0.72745473  0.61675954  1.00115497  1
  O  O234  1  0.26019000  0.38651818  0.01986707  1
  O  O235  1  0.23973225  0.36196297  0.51306431  1
  O  O236  1  0.26237027  0.85754750  -0.01618724  1
  O  O237  1  0.25662781  0.87097177  0.51559895  1
  O  O238  1  0.75453879  0.37177796  0.00450738  1
  O  O239  1  0.76573773  0.37169800  0.51709681  1
  O  O240  1  0.75314081  0.87361536  0.02497300  1
  O  O241  1  0.74027483  0.86467139  0.50648808  1
  O  O242  1  0.13290145  0.49706188  0.23525109  1
  O  O243  1  0.13791268  0.47488849  0.75254800  1
  O  O244  1  0.14368233  1.01601499  0.23140864  1
  O  O245  1  0.13443674  1.00213288  0.75491879  1
  O  O246  1  0.61762980  0.49289471  0.24068826  1
  O  O247  1  0.63021522  0.49189049  0.74150605  1
  O  O248  1  0.65266915  0.98910342  0.27515362  1
  O  O249  1  0.62089766  1.00038937  0.73610501  1
  O  O250  1  0.36891014  0.00680034  0.26119171  1
  O  O251  1  0.37117617  -0.00218004  0.76204230  1
  O  O252  1  0.36553522  0.50598699  0.25820629  1
  O  O253  1  0.37287282  0.50821906  0.75262508  1
  O  O254  1  0.86824696  0.00063811  0.27044673  1
  O  O255  1  0.85496048  0.00689929  0.72861321  1
  O  O256  1  0.87655997  0.51717412  0.25520322  1
  O  O257  1  0.87110828  0.50019065  0.75643403  1
  O  O258  1  0.12845325  0.35604169  0.37312574  1
  O  O259  1  0.11474089  0.37520186  0.87488135  1
  O  O260  1  0.11755570  0.86923116  0.38646916  1
  O  O261  1  0.08688281  0.90446261  0.88061101  1
  O  O262  1  0.60221531  0.37881426  0.35470432  1
  O  O263  1  0.62861860  0.38066261  0.85599702  1
  O  O264  1  0.62597312  0.86769762  0.37067481  1
  O  O265  1  0.60912454  0.87427607  0.87516704  1
  O  O266  1  0.35779859  0.14656182  0.13762748  1
  O  O267  1  0.38384220  0.13758863  0.62826809  1
  O  O268  1  0.39290634  0.62450067  0.12210976  1
  O  O269  1  0.38122803  0.63234095  0.63130118  1
  O  O270  1  0.86951390  0.09160964  0.06903736  1
  O  O271  1  0.89000713  0.13846091  0.62596215  1
  O  O272  1  0.87505066  0.63189455  0.12351519  1
  O  O273  1  0.88673964  0.61883079  0.62908816  1
  O  O274  1  0.25712305  0.26722321  0.13474367  1
  O  O275  1  0.26364328  0.25185937  0.61962440  1
  O  O276  1  0.16106291  0.73999172  0.02465080  1
  O  O277  1  0.25938496  0.76340066  0.62205197  1
  O  O278  1  0.73157189  0.27880237  0.11444778  1
  O  O279  1  0.77119576  0.25818450  0.63547145  1
  O  O280  1  0.74981660  0.76033104  0.13236133  1
  O  O281  1  0.76683115  0.73914463  0.61239646  1
  O  O282  1  0.26311292  0.24175189  0.38680756  1
  O  O283  1  0.26909872  0.23471162  0.86822073  1
  O  O284  1  0.23842260  0.76285654  0.39695997  1
  O  O285  1  0.24656627  0.74337105  0.86764512  1
  O  O286  1  0.75477569  0.26187566  0.37530010  1
  O  O287  1  0.74641360  0.24576384  0.88739634  1
  O  O288  1  0.76157433  0.75203491  0.39780265  1
  O  O289  1  0.78392098  0.76211600  0.89956313  1
  O  O290  1  0.02496176  0.14405887  -0.00407443  1
  O  O291  1  0.01113022  0.12059396  0.50831201  1
  O  O292  1  -0.00330412  0.60992130  -0.00343870  1
  O  O293  1  0.00903775  0.62526425  0.51220328  1
  O  O294  1  0.45087335  0.11886077  0.01444281  1
  O  O295  1  0.49051084  0.11006140  0.51352388  1
  O  O296  1  0.51701479  0.63088590  0.01735384  1
  O  O297  1  0.50726353  0.62028211  0.51032238  1
  O  O298  1  0.50779908  0.38269340  0.48466089  1
  O  O299  1  0.47778482  0.37671930  1.00444051  1
  O  O300  1  0.49521821  0.88829909  0.50599864  1
  O  O301  1  0.48656909  0.86738377  0.98314544  1
  O  O302  1  1.00253840  0.35816830  0.48847281  1
  O  O303  1  0.99304240  0.37236259  0.99501464  1
  O  O304  1  1.00802843  0.89438095  0.50458894  1
  O  O305  1  0.96244150  0.88834702  0.98837109  1
  O  O306  1  0.48762454  0.49489084  0.37778797  1
  O  O307  1  0.47672530  0.49560655  0.86574534  1
  O  O308  1  0.48368288  1.00292587  0.38964160  1
  O  O309  1  0.49051761  1.01178155  0.87525061  1
  O  O310  1  1.02253523  0.46875186  0.37998843  1
  O  O311  1  0.99123436  0.48764126  0.89435587  1
  O  O312  1  0.99840593  0.99642270  0.38931087  1
  O  O313  1  0.98105973  1.02759403  0.89311458  1
  O  O314  1  0.01060426  0.00888668  0.12623699  1
  O  O315  1  -0.00843726  0.01407619  0.61828894  1
  O  O316  1  0.00697564  0.48923629  0.11571551  1
  O  O317  1  0.00466060  0.50939207  0.63324918  1
  O  O318  1  0.50487858  -0.01165611  0.10981645  1
  O  O319  1  0.49576662  0.00814992  0.61979750  1
  O  O320  1  0.50712400  0.50256681  0.12553011  1
  O  O321  1  0.50498246  0.50377791  0.61805308  1
  O  O322  1  0.25776821  0.38958602  0.23352486  1
  O  O323  1  0.25330197  0.37474908  0.73322476  1
  O  O324  1  0.23863769  0.89024849  0.24905382  1
  O  O325  1  0.25260283  0.88500169  0.74046727  1
  O  O326  1  0.72962824  0.37498178  0.23897066  1
  O  O327  1  0.74139632  0.37983356  0.74255618  1
  O  O328  1  0.74718837  0.87710367  0.25270431  1
  O  O329  1  0.74547419  0.88832219  0.75254412  1
  O  O330  1  0.25853042  0.12033327  0.26119157  1
  O  O331  1  0.24518473  0.11301178  0.75950100  1
  O  O332  1  0.24499069  0.60980279  0.25192017  1
  O  O333  1  0.26212552  0.61869881  0.73947947  1
  O  O334  1  0.75182898  0.11598843  0.25232602  1
  O  O335  1  0.74121436  0.13041803  0.74827200  1
  O  O336  1  0.76836750  0.62627018  0.24942492  1
  O  O337  1  0.76291861  0.60735661  0.73945870  1
  O  O338  1  0.36864969  0.11729243  0.36871405  1
  O  O339  1  0.36340769  0.10846225  0.87324711  1
  O  O340  1  0.37201717  0.60942619  0.37962361  1
  O  O341  1  0.37945823  0.61617441  0.85924986  1
  O  O342  1  0.88105460  0.11708279  0.38087504  1
  O  O343  1  0.82301218  0.11232218  0.90530568  1
  O  O344  1  0.87954679  0.61422469  0.38113384  1
  O  O345  1  0.88436973  0.60834024  0.85792092  1
  O  O346  1  0.13673552  0.38158970  0.12180092  1
  O  O347  1  0.13575336  0.37351838  0.63548010  1
  O  O348  1  0.13423998  0.90853974  0.11190994  1
  O  O349  1  0.14382780  0.87892229  0.62190355  1
  O  O350  1  0.61993946  0.38930724  0.13440085  1
  O  O351  1  0.63438617  0.38469137  0.62756947  1
  O  O352  1  0.64072980  0.88070145  0.14274462  1
  O  O353  1  0.61135853  0.89225164  0.62754364  1
  O  O354  1  0.11068401  0.24254960  0.24742720  1
  O  O355  1  0.13727041  0.27189847  0.75307921  1
  O  O356  1  0.13289041  0.74990864  0.27638514  1
  O  O357  1  0.11866273  0.73635375  0.74733454  1
  O  O358  1  0.60120769  0.26557352  0.23776167  1
  O  O359  1  0.61580973  0.26383317  0.73948930  1
  O  O360  1  0.62693477  0.75976923  0.25405870  1
  O  O361  1  0.61954406  0.74392419  0.73432170  1
  O  O362  1  0.37478117  0.25074151  0.24158554  1
  O  O363  1  0.39305668  0.26149802  0.73431626  1
  O  O364  1  0.39655212  0.74915974  0.29127386  1
  O  O365  1  0.37072332  0.73676604  0.73698737  1
  O  O366  1  0.88829380  0.23108100  0.22781303  1
  O  O367  1  0.88027800  0.25345479  0.74576593  1
  O  O368  1  0.88042777  0.74033296  0.24949722  1
  O  O369  1  0.87065520  0.73660873  0.73429337  1
  O  O370  1  0.38697058  0.50566846  0.49314293  1
  O  O371  1  0.37336415  0.49519099  0.99132145  1
  O  O372  1  0.37848044  0.99918185  0.49180368  1
  O  O373  1  0.36361681  0.97905021  0.97700646  1
  O  O374  1  0.88790348  0.47551933  0.51885499  1
  O  O375  1  0.88134369  0.49162480  0.99659556  1
  O  O376  1  0.89182749  1.00513677  0.49339356  1
  O  O377  1  0.78076560  0.93631415  0.98535746  1
  O  O378  1  0.12766437  0.01581935  0.00460740  1
  O  O379  1  0.11508329  0.01281675  0.50302624  1
  O  O380  1  0.11158619  0.49418843  0.01309536  1
  O  O381  1  0.13719895  0.51911249  0.49219564  1
  O  O382  1  0.64390022  0.01682245  0.01448702  1
  O  O383  1  0.60945686  -0.00048034  0.50619763  1
  O  O384  1  0.61384025  0.49444230  0.00817828  1
  O  O385  1  0.61116193  0.51099452  0.51053998  1
  O  O386  1  0.36641852  0.37243599  0.11755280  1
  O  O387  1  0.36780319  0.36594072  0.62182618  1
  O  O388  1  0.37653556  0.87777471  0.10438856  1
  O  O389  1  0.37310850  0.86077408  0.62805991  1
  O  O390  1  0.85710981  0.38681949  0.12206532  1
  O  O391  1  0.87808686  0.36243127  0.62749184  1
  O  O392  1  0.86180667  0.87841249  0.13968210  1
  O  O393  1  0.87708721  0.86066612  0.63210047  1
  O  O394  1  0.14173875  0.11835531  0.38724104  1
  O  O395  1  0.14279317  0.12988385  0.88686993  1
  O  O396  1  0.11606064  0.65178153  0.40079482  1
  O  O397  1  0.12747903  0.60415301  0.88731766  1
  O  O398  1  0.58420273  0.13600535  0.38564414  1
  O  O399  1  0.63853224  0.12632078  0.88005684  1
  O  O400  1  0.61838274  0.62121664  0.39132187  1
  O  O401  1  0.61463694  0.62395089  0.88863973  1
