# generated using pymatgen
data_V73Zn73O256
_symmetry_space_group_name_H-M   'P 1'
_cell_length_a   16.92878166
_cell_length_b   16.84905215
_cell_length_c   16.91394663
_cell_angle_alpha   89.80318717
_cell_angle_beta   90.14481847
_cell_angle_gamma   89.90362944
_symmetry_Int_Tables_number   1
_chemical_formula_structural   V73Zn73O256
_chemical_formula_sum   'V73 Zn73 O256'
_cell_volume   4824.38061672
_cell_formula_units_Z   1
loop_
 _symmetry_equiv_pos_site_id
 _symmetry_equiv_pos_as_xyz
  1  'x, y, z'
loop_
 _atom_site_type_symbol
 _atom_site_label
 _atom_site_symmetry_multiplicity
 _atom_site_fract_x
 _atom_site_fract_y
 _atom_site_fract_z
 _atom_site_occupancy
  V  V0  1  0.50068485  0.26352818  0.25732342  1
  V  V1  1  0.75871347  0.01800787  0.25441218  1
  V  V2  1  0.01115940  0.37888138  0.36891338  1
  V  V3  1  0.01007842  0.10363978  0.63345000  1
  V  V4  1  0.02435296  0.86885106  0.87436849  1
  V  V5  1  0.24390169  0.37993727  0.13305009  1
  V  V6  1  -0.06811352  0.70295258  0.69927173  1
  V  V7  1  -0.01220020  -0.01176975  0.48714178  1
  V  V8  1  0.87968369  0.50496286  0.37884038  1
  V  V9  1  0.00448866  0.00855306  -0.00462653  1
  V  V10  1  0.87365429  0.50944825  0.86155705  1
  V  V11  1  0.49497726  0.00269203  0.49159870  1
  V  V12  1  0.49864017  0.12203149  0.12651020  1
  V  V13  1  0.87692444  0.62610520  0.24735701  1
  V  V14  1  0.52114504  0.49765441  0.00005430  1
  V  V15  1  0.26574747  0.62939977  0.87364301  1
  V  V16  1  0.37679614  0.00157301  0.88353356  1
  V  V17  1  0.11867586  0.62288579  -0.01454652  1
  V  V18  1  0.12444253  0.49905890  0.13732248  1
  V  V19  1  0.48875645  0.36850214  0.86295323  1
  V  V20  1  0.00693407  0.76648244  0.25317727  1
  V  V21  1  0.62926305  0.12948607  0.49248109  1
  V  V22  1  0.62292315  0.26802733  0.38021299  1
  V  V23  1  0.62293365  -0.00955558  0.12903708  1
  V  V24  1  0.74451572  0.73967984  -0.00339360  1
  V  V25  1  0.28254685  0.87298801  0.61157993  1
  V  V26  1  0.24618376  0.36966746  0.62070289  1
  V  V27  1  0.13170927  0.77548137  0.37843253  1
  V  V28  1  0.88208912  0.38153832  0.00221206  1
  V  V29  1  0.61639440  0.85022335  0.75393180  1
  V  V30  1  0.11966854  0.52284645  0.61738749  1
  V  V31  1  0.37363131  0.87991909  0.00384272  1
  V  V32  1  0.37373495  0.24613436  0.12902282  1
  V  V33  1  0.36784840  0.38239325  -0.00941328  1
  V  V34  1  0.74255925  0.25736252  -0.00534454  1
  V  V35  1  0.75017546  0.86641086  0.62039768  1
  V  V36  1  0.38301376  0.63622055  0.74353904  1
  V  V37  1  0.63015832  0.50528960  0.62633040  1
  V  V38  1  0.75783226  0.37881338  0.62447152  1
  V  V39  1  0.87072789  0.24877888  0.12777920  1
  V  V40  1  0.73595218  0.49239345  0.23856754  1
  V  V41  1  0.75785185  0.11482296  0.86692837  1
  V  V42  1  0.88011802  0.75597335  0.12147379  1
  V  V43  1  0.37655927  0.25140933  0.62678268  1
  V  V44  1  0.62021629  0.11892104  -0.00247423  1
  V  V45  1  0.37150636  0.12603907  0.75494587  1
  V  V46  1  0.01200960  0.25326652  0.25068411  1
  V  V47  1  0.50429521  0.13221220  0.63482934  1
  V  V48  1  0.38200317  0.37821453  0.49361267  1
  V  V49  1  0.24697003  -0.00973091  0.74411608  1
  V  V50  1  0.72785139  0.75765922  0.49023761  1
  V  V51  1  0.13074441  0.12480403  0.49253899  1
  V  V52  1  0.63949523  0.36969304  0.75244963  1
  V  V53  1  0.23607567  0.86951099  0.13516336  1
  V  V54  1  0.87143168  0.88350596  -0.01041188  1
  V  V55  1  -0.00001426  0.12587788  0.12772870  1
  V  V56  1  0.73222589  0.62509429  0.86384558  1
  V  V57  1  0.88627468  0.24568917  0.64390634  1
  V  V58  1  0.25247795  0.13517397  0.35269143  1
  V  V59  1  0.25754487  0.49833942  0.75430138  1
  V  V60  1  0.00691260  0.38323393  0.87015425  1
  V  V61  1  0.87986187  0.38276474  0.49984324  1
  V  V62  1  0.37987669  0.74320462  0.12662847  1
  V  V63  1  0.12057134  0.23238072  0.87587492  1
  V  V64  1  0.23914016  0.60692640  0.37989650  1
  V  V65  1  0.62805357  -0.00060262  0.63552087  1
  V  V66  1  0.73472699  0.62903437  0.37464676  1
  V  V67  1  0.00309917  0.61982314  0.12071255  1
  V  V68  1  0.80234637  0.19643356  0.44839879  1
  V  V69  1  0.50231538  0.63379932  0.61894143  1
  V  V70  1  0.12488912  -0.00076058  0.13761995  1
  V  V71  1  0.24392506  0.23220523  -0.00317419  1
  V  V72  1  0.60723769  0.76664685  0.34909705  1
  Zn  Zn73  1  0.50785683  0.49138066  0.49883987  1
  Zn  Zn74  1  0.35374942  0.58678472  0.25005009  1
  Zn  Zn75  1  0.89666421  0.06841886  0.78045013  1
  Zn  Zn76  1  0.12201383  0.37257564  0.74730974  1
  Zn  Zn77  1  0.73734461  0.86990261  0.12744863  1
  Zn  Zn78  1  0.23831307  0.76362389  -0.01100296  1
  Zn  Zn79  1  0.38263794  0.02923601  0.35303469  1
  Zn  Zn80  1  0.61551790  0.23965466  0.86095136  1
  Zn  Zn81  1  0.49901786  0.86165193  0.86708154  1
  Zn  Zn82  1  0.18061686  0.19030031  0.18013719  1
  Zn  Zn83  1  0.18567501  0.18581794  0.69269345  1
  Zn  Zn84  1  0.18894196  0.68707869  0.19563389  1
  Zn  Zn85  1  0.19582331  0.70248890  0.54890653  1
  Zn  Zn86  1  0.67722519  0.20534838  0.18202143  1
  Zn  Zn87  1  0.69553917  0.19224494  0.68271022  1
  Zn  Zn88  1  0.69349403  0.69213846  0.18938278  1
  Zn  Zn89  1  0.75118023  0.64788665  0.65353482  1
  Zn  Zn90  1  0.30908049  0.30678971  0.31620159  1
  Zn  Zn91  1  0.30260201  0.30531693  0.81174710  1
  Zn  Zn92  1  0.34295411  0.74371319  0.33532417  1
  Zn  Zn93  1  0.31088937  0.81350858  0.80980104  1
  Zn  Zn94  1  0.81371308  0.31698410  0.30946139  1
  Zn  Zn95  1  0.81772672  0.30975072  0.81990340  1
  Zn  Zn96  1  0.79918765  0.82632531  0.30908941  1
  Zn  Zn97  1  0.79860962  0.81835636  0.81338258  1
  Zn  Zn98  1  0.18832124  0.43510121  0.44328742  1
  Zn  Zn99  1  0.18563906  0.44571349  0.94389871  1
  Zn  Zn100  1  0.19320380  0.95568910  0.43617419  1
  Zn  Zn101  1  0.19524217  0.95574340  0.94312744  1
  Zn  Zn102  1  0.69534019  0.44680336  0.44085481  1
  Zn  Zn103  1  0.69161011  0.43854402  0.92831712  1
  Zn  Zn104  1  0.67896242  0.94154945  0.42785064  1
  Zn  Zn105  1  0.68823990  0.93439647  0.93547440  1
  Zn  Zn106  1  0.31563566  0.05437576  0.17933926  1
  Zn  Zn107  1  0.30988286  0.06360551  0.56228156  1
  Zn  Zn108  1  0.30868578  0.56456619  0.06057987  1
  Zn  Zn109  1  0.31454188  0.56205874  0.56139916  1
  Zn  Zn110  1  0.80806195  0.06728435  0.06376565  1
  Zn  Zn111  1  0.84008379  0.03046138  0.61066689  1
  Zn  Zn112  1  0.81056818  0.56081786  0.06001840  1
  Zn  Zn113  1  0.93804913  0.57941319  0.56497673  1
  Zn  Zn114  1  0.43219795  0.43566193  0.16740211  1
  Zn  Zn115  1  0.43846069  0.44284623  0.68216661  1
  Zn  Zn116  1  0.38322308  0.89065367  0.23277196  1
  Zn  Zn117  1  0.44195185  0.94070880  0.68618573  1
  Zn  Zn118  1  0.93310830  0.43829385  0.18827271  1
  Zn  Zn119  1  0.94354153  0.44001111  0.68861967  1
  Zn  Zn120  1  0.92690633  0.94547149  0.18820374  1
  Zn  Zn121  1  0.94649194  0.90241295  0.68255312  1
  Zn  Zn122  1  0.05654837  0.06319623  0.31784351  1
  Zn  Zn123  1  0.06647259  0.04917013  0.81021307  1
  Zn  Zn124  1  0.06470424  0.56699875  0.31209777  1
  Zn  Zn125  1  0.06100417  0.56414512  0.79865767  1
  Zn  Zn126  1  0.56951944  0.06876935  0.30692941  1
  Zn  Zn127  1  0.55738277  0.05309804  0.81863248  1
  Zn  Zn128  1  0.53191055  0.47635671  0.29567012  1
  Zn  Zn129  1  0.55735730  0.54992630  0.81162891  1
  Zn  Zn130  1  0.43660986  0.19140003  0.44320300  1
  Zn  Zn131  1  0.43399278  0.19191036  0.94020864  1
  Zn  Zn132  1  0.47112103  0.62884293  0.39849724  1
  Zn  Zn133  1  0.44293439  0.68547769  0.94783635  1
  Zn  Zn134  1  0.97291067  0.20052870  0.45308128  1
  Zn  Zn135  1  0.93652905  0.19238599  0.93514329  1
  Zn  Zn136  1  0.93049536  0.70087569  0.42588437  1
  Zn  Zn137  1  0.93816301  0.69334169  0.93051180  1
  Zn  Zn138  1  0.06199433  0.31274769  0.05737521  1
  Zn  Zn139  1  0.06567919  0.31085588  0.55797156  1
  Zn  Zn140  1  0.06182530  0.81090251  0.05533993  1
  Zn  Zn141  1  0.01951493  0.77983912  0.54231142  1
  Zn  Zn142  1  0.55478151  0.33772383  0.07692985  1
  Zn  Zn143  1  0.56390089  0.31199832  0.56869527  1
  Zn  Zn144  1  0.54990807  0.80389916  0.03624322  1
  Zn  Zn145  1  0.55655176  0.81524460  0.55514694  1
  O  O146  1  0.11032625  0.11519436  0.12409523  1
  O  O147  1  0.11074181  0.13464067  0.62238893  1
  O  O148  1  0.11979988  0.61423122  0.12593740  1
  O  O149  1  0.13802605  0.62080969  0.61602172  1
  O  O150  1  0.61794962  0.12483377  0.10988763  1
  O  O151  1  0.62416931  0.12151307  0.61961343  1
  O  O152  1  0.60695339  0.62117332  0.12969447  1
  O  O153  1  0.62690146  0.60913039  0.63529086  1
  O  O154  1  0.36611302  0.36555583  0.39534777  1
  O  O155  1  0.37712862  0.36749278  0.88105190  1
  O  O156  1  0.39175879  0.87904046  0.40592056  1
  O  O157  1  0.37226596  0.87804425  0.88847977  1
  O  O158  1  0.87602825  0.38815582  0.38157102  1
  O  O159  1  0.88459755  0.38294146  0.88252199  1
  O  O160  1  0.85682139  0.84481602  0.40820676  1
  O  O161  1  0.86855339  0.87781467  0.88870637  1
  O  O162  1  0.26489720  0.02703572  0.38013911  1
  O  O163  1  0.26636012  -0.00614653  0.85821435  1
  O  O164  1  0.24893098  0.50635871  0.37991312  1
  O  O165  1  0.24306479  0.50790984  0.86021405  1
  O  O166  1  0.73938830  0.00267841  0.35402916  1
  O  O167  1  0.74987255  0.01559371  0.88116242  1
  O  O168  1  0.75969270  0.51490956  0.36997764  1
  O  O169  1  0.76295880  0.51468810  0.87820162  1
  O  O170  1  0.24231038  0.48897710  0.12461243  1
  O  O171  1  0.24321604  0.49093385  0.63457702  1
  O  O172  1  0.22984889  0.99665534  0.12469936  1
  O  O173  1  0.26229118  0.99163617  0.63830960  1
  O  O174  1  0.74733366  0.51468888  0.13983944  1
  O  O175  1  0.73910708  0.48649232  0.63388428  1
  O  O176  1  0.73185283  1.00273283  0.12396650  1
  O  O177  1  0.73140973  0.98314578  0.61302536  1
  O  O178  1  -0.00642958  0.36683018  0.25752157  1
  O  O179  1  0.00298003  0.37446680  0.76602719  1
  O  O180  1  -0.01006279  0.86407331  0.24210901  1
  O  O181  1  0.00953466  0.89468204  0.77780870  1
  O  O182  1  0.50602935  0.36458013  0.24782209  1
  O  O183  1  0.49474205  0.37594004  0.76099285  1
  O  O184  1  0.43832663  0.87244131  0.34180849  1
  O  O185  1  0.51137896  0.87627265  0.75047975  1
  O  O186  1  0.51305207  0.14354814  0.23117246  1
  O  O187  1  0.48963668  0.11654143  0.74212077  1
  O  O188  1  0.54538912  0.61265913  0.16873747  1
  O  O189  1  0.48676099  0.61396040  0.74570163  1
  O  O190  1  1.00101732  0.14291828  0.24241586  1
  O  O191  1  0.99956779  0.11259462  0.73997082  1
  O  O192  1  0.99289784  0.63184071  0.24010583  1
  O  O193  1  1.00123616  0.64433391  0.74509140  1
  O  O194  1  0.36119352  0.25582074  0.00699408  1
  O  O195  1  0.37678780  0.25874340  0.51968425  1
  O  O196  1  0.36074387  0.76186576  0.01065501  1
  O  O197  1  0.36201086  0.81089401  0.43211677  1
  O  O198  1  0.86945385  0.26124703  0.00294974  1
  O  O199  1  0.87199393  0.25858976  0.50245201  1
  O  O200  1  0.87166640  0.76021849  0.00441923  1
  O  O201  1  0.84617620  0.78032282  0.45866334  1
  O  O202  1  0.09346661  0.22588209  0.48763380  1
  O  O203  1  0.13504370  0.25215006  0.99188231  1
  O  O204  1  0.11991255  0.76005687  0.48233592  1
  O  O205  1  0.12918137  0.72819201  1.00776729  1
  O  O206  1  0.61830000  0.24302445  0.49145898  1
  O  O207  1  0.63874753  0.24536312  0.99223177  1
  O  O208  1  0.62584052  0.75084702  0.47897333  1
  O  O209  1  0.64899432  0.74838720  1.01932963  1
  O  O210  1  0.48735733  0.25066353  0.13108962  1
  O  O211  1  0.49250819  0.24190438  0.62997547  1
  O  O212  1  0.47823946  0.74843806  0.11223605  1
  O  O213  1  0.51732813  0.73260623  0.62354700  1
  O  O214  1  0.99418229  0.24763991  0.13004538  1
  O  O215  1  0.98588879  0.25839849  0.62373959  1
  O  O216  1  0.99693353  0.74184849  0.13154091  1
  O  O217  1  0.97793531  0.78590962  0.65050238  1
  O  O218  1  -0.00825681  0.26338168  0.35725965  1
  O  O219  1  0.01521598  0.26180807  0.88413116  1
  O  O220  1  0.01121584  0.75323138  0.35871395  1
  O  O221  1  0.00553071  0.76925455  0.88241223  1
  O  O222  1  0.50647041  0.25079484  0.36601810  1
  O  O223  1  0.50103597  0.26324008  0.87763656  1
  O  O224  1  0.51325960  0.73058189  0.36691333  1
  O  O225  1  0.51396805  0.76847506  0.92866388  1
  O  O226  1  0.23051510  0.13087774  0.51359745  1
  O  O227  1  0.24964098  0.13676434  1.00608334  1
  O  O228  1  0.25883275  0.62869198  0.48677172  1
  O  O229  1  0.24336975  0.61951386  0.98106816  1
  O  O230  1  0.73818739  0.13489271  0.50650855  1
  O  O231  1  0.74009731  0.13363891  0.99075990  1
  O  O232  1  0.75710936  0.64917951  0.47769765  1
  O  O233  1  0.75812885  0.63534515  0.99052110  1
  O  O234  1  0.25814165  0.37251409  0.00277614  1
  O  O235  1  0.25936443  0.37519127  0.51743706  1
  O  O236  1  0.25215876  0.87969769  0.00984381  1
  O  O237  1  0.25114330  0.90126638  0.51922723  1
  O  O238  1  0.76034875  0.36285704  -0.01186142  1
  O  O239  1  0.76989011  0.38448889  0.50956446  1
  O  O240  1  0.76029376  0.86674441  0.00376729  1
  O  O241  1  0.72688177  0.86733874  0.50646148  1
  O  O242  1  0.12429622  0.49832439  0.23620345  1
  O  O243  1  0.13548725  0.49916262  0.73517685  1
  O  O244  1  0.11096251  1.00119156  0.23575380  1
  O  O245  1  0.14846229  1.00008981  0.75233998  1
  O  O246  1  0.63757528  0.49836698  0.25555427  1
  O  O247  1  0.61775329  0.47815294  0.73912643  1
  O  O248  1  0.62243343  0.99848390  0.23156792  1
  O  O249  1  0.62609880  1.00851237  0.73466829  1
  O  O250  1  0.39071481  0.00072684  0.24318876  1
  O  O251  1  0.37282198  0.00912671  0.75661848  1
  O  O252  1  0.43528000  0.51522621  0.24080802  1
  O  O253  1  0.36137099  0.50536921  0.74439402  1
  O  O254  1  0.86028177  0.02005476  0.23830544  1
  O  O255  1  0.87066680  -0.01335030  0.71314245  1
  O  O256  1  0.86982821  0.51194618  0.25528774  1
  O  O257  1  0.87372895  0.49625976  0.76278953  1
  O  O258  1  0.10928210  0.38146774  0.37800278  1
  O  O259  1  0.11185221  0.38236796  0.87998600  1
  O  O260  1  0.13751118  0.87446329  0.37165580  1
  O  O261  1  0.12316828  0.87925633  0.89004644  1
  O  O262  1  0.62687988  0.36763773  0.38770874  1
  O  O263  1  0.61947573  0.37081773  0.86024323  1
  O  O264  1  0.61319442  0.86610781  0.36638554  1
  O  O265  1  0.62779019  0.88294751  0.85540314  1
  O  O266  1  0.38764340  0.13430605  0.12143244  1
  O  O267  1  0.38387988  0.13221180  0.63494342  1
  O  O268  1  0.35615864  0.64054920  0.13196903  1
  O  O269  1  0.38699954  0.62460890  0.63522704  1
  O  O270  1  0.88669624  0.14015494  0.11601986  1
  O  O271  1  0.89054456  0.13930191  0.62813746  1
  O  O272  1  0.88492575  0.63138497  0.12735523  1
  O  O273  1  0.86818772  0.64031951  0.63978007  1
  O  O274  1  0.25040733  0.25935240  0.11408747  1
  O  O275  1  0.25907307  0.26343841  0.63816463  1
  O  O276  1  0.24277643  0.76226045  0.12363804  1
  O  O277  1  0.25005384  0.77542531  0.61658537  1
  O  O278  1  0.76778622  0.24006435  0.10642019  1
  O  O279  1  0.76997883  0.26591725  0.62901908  1
  O  O280  1  0.76599319  0.74700523  0.11708585  1
  O  O281  1  0.73609098  0.75287354  0.59918282  1
  O  O282  1  0.23704844  0.23617521  0.36730372  1
  O  O283  1  0.23861154  0.24933787  0.88912851  1
  O  O284  1  0.22862516  0.74441791  0.36589022  1
  O  O285  1  0.25059247  0.73298987  0.87128849  1
  O  O286  1  0.74200945  0.25459071  0.38068378  1
  O  O287  1  0.75080670  0.23969132  0.88531996  1
  O  O288  1  0.72851370  0.74718296  0.36716726  1
  O  O289  1  0.74860373  0.73957511  0.88800784  1
  O  O290  1  -0.00932808  0.11369090  0.00688387  1
  O  O291  1  0.00272587  0.11001854  0.51718069  1
  O  O292  1  0.00981834  0.62999765  0.00889188  1
  O  O293  1  -0.01579030  0.67073775  0.51761171  1
  O  O294  1  0.51343060  0.13937019  0.00868897  1
  O  O295  1  0.51263927  0.12714091  0.51314796  1
  O  O296  1  0.48794099  0.59336682  0.00233187  1
  O  O297  1  0.49309638  0.62128853  0.51992632  1
  O  O298  1  0.48672912  0.37108930  0.50693653  1
  O  O299  1  0.48161042  0.37153207  0.98720319  1
  O  O300  1  0.51152845  0.90336525  0.49950562  1
  O  O301  1  0.47095288  0.89161109  1.01868468  1
  O  O302  1  0.98923430  0.36697709  0.48073705  1
  O  O303  1  0.98801255  0.37396155  0.98997114  1
  O  O304  1  1.00522889  0.88906539  0.50614828  1
  O  O305  1  0.98935434  0.88433290  0.99298571  1
  O  O306  1  0.51305762  0.52398642  0.39277364  1
  O  O307  1  0.50322369  0.47661959  0.88675900  1
  O  O308  1  0.49861334  1.02502706  0.38720982  1
  O  O309  1  0.48144408  0.98751736  0.87422349  1
  O  O310  1  0.99089593  0.48866710  0.36080076  1
  O  O311  1  0.99034429  0.49112968  0.87199974  1
  O  O312  1  0.99016742  1.00432115  0.38605790  1
  O  O313  1  0.99947562  0.99771054  0.89169630  1
  O  O314  1  0.00293315  0.00718846  0.11853939  1
  O  O315  1  0.01093175  0.00360088  0.62422275  1
  O  O316  1  0.00990690  0.50770277  0.12925986  1
  O  O317  1  0.01165545  0.51031584  0.62846747  1
  O  O318  1  0.51067281  0.02119917  0.12193989  1
  O  O319  1  0.51392823  0.01297670  0.61623717  1
  O  O320  1  0.52077849  0.45511570  0.09814190  1
  O  O321  1  0.51459239  0.50571171  0.62381091  1
  O  O322  1  0.25445608  0.36743714  0.23067865  1
  O  O323  1  0.25007970  0.38649778  0.74527932  1
  O  O324  1  0.25052437  0.88055841  0.23154330  1
  O  O325  1  0.26269188  0.88324301  0.73359996  1
  O  O326  1  0.75828962  0.39408621  0.24889872  1
  O  O327  1  0.74316353  0.37261530  0.74999345  1
  O  O328  1  0.75885420  0.89760455  0.23499236  1
  O  O329  1  0.73217235  0.85944591  0.72810513  1
  O  O330  1  0.25097454  0.12838337  0.24657630  1
  O  O331  1  0.26634940  0.11286658  0.74172921  1
  O  O332  1  0.24624495  0.61968450  0.26572035  1
  O  O333  1  0.26533864  0.61519445  0.76011305  1
  O  O334  1  0.73077044  0.11672798  0.23733678  1
  O  O335  1  0.74457289  0.13017042  0.76720949  1
  O  O336  1  0.75968572  0.62399220  0.25882419  1
  O  O337  1  0.74871241  0.63275012  0.76646632  1
  O  O338  1  0.35920128  0.14426190  0.37424871  1
  O  O339  1  0.38293201  0.11586687  0.86530458  1
  O  O340  1  0.36028693  0.63360499  0.36175897  1
  O  O341  1  0.36937039  0.62492621  0.87123115  1
  O  O342  1  0.86436762  0.14421188  0.39506427  1
  O  O343  1  0.86555492  0.12603218  0.87288635  1
  O  O344  1  0.87597270  0.62105578  0.36248583  1
  O  O345  1  0.88029980  0.61054578  0.87901873  1
  O  O346  1  0.13403640  0.38662112  0.11487964  1
  O  O347  1  0.13883702  0.36747356  0.62685278  1
  O  O348  1  0.12643349  0.88603941  0.11962279  1
  O  O349  1  0.12153044  0.79183609  0.70989169  1
  O  O350  1  0.64262908  0.30927915  0.13678031  1
  O  O351  1  0.63718282  0.37325997  0.63457288  1
  O  O352  1  0.61658497  0.89037167  0.10621176  1
  O  O353  1  0.61860214  0.88613762  0.63500828  1
  O  O354  1  0.11036305  0.25847837  0.24175879  1
  O  O355  1  0.13748174  0.25548975  0.77299166  1
  O  O356  1  0.11119722  0.75439221  0.25267194  1
  O  O357  1  0.13602952  0.74168294  0.75993358  1
  O  O358  1  0.61615809  0.24981409  0.27468037  1
  O  O359  1  0.62460222  0.26378972  0.74507588  1
  O  O360  1  0.62251476  0.75467229  0.24845350  1
  O  O361  1  0.61592562  0.75432548  0.75634339  1
  O  O362  1  0.38819578  0.25755137  0.24105144  1
  O  O363  1  0.36975144  0.23400929  0.74752373  1
  O  O364  1  0.37487710  0.77198732  0.22907236  1
  O  O365  1  0.37825300  0.73496571  0.75494160  1
  O  O366  1  0.87587093  0.25772810  0.23032721  1
  O  O367  1  0.88099493  0.25418942  0.74332471  1
  O  O368  1  0.88331465  0.74273050  0.24156863  1
  O  O369  1  0.87384916  0.74737751  0.76674046  1
  O  O370  1  0.37832035  0.48117518  0.51056339  1
  O  O371  1  0.37182397  0.48293827  1.00406204  1
  O  O372  1  0.39508603  1.01772401  0.50288561  1
  O  O373  1  0.36107985  0.99417962  0.98486547  1
  O  O374  1  0.88707622  0.49952856  0.48852723  1
  O  O375  1  0.86905544  0.48485714  0.99491319  1
  O  O376  1  0.88929498  1.00169455  0.51275151  1
  O  O377  1  0.88116853  0.98781579  1.01102781  1
  O  O378  1  0.10731478  0.00127010  0.01029828  1
  O  O379  1  0.11062965  0.01797447  0.49530444  1
  O  O380  1  0.12862233  0.51778932  0.01407605  1
  O  O381  1  0.12839003  0.49225809  0.52206187  1
  O  O382  1  0.62678494  0.01499617  0.00340080  1
  O  O383  1  0.61943963  0.01880168  0.50290093  1
  O  O384  1  0.62119724  0.49936736  -0.00856847  1
  O  O385  1  0.62806543  0.48948340  0.52221337  1
  O  O386  1  0.36058839  0.36564024  0.11158256  1
  O  O387  1  0.36582525  0.36813812  0.62698145  1
  O  O388  1  0.35335023  0.87078731  0.11553936  1
  O  O389  1  0.38372202  0.87383684  0.61488299  1
  O  O390  1  0.88243717  0.36572288  0.10995335  1
  O  O391  1  0.87677792  0.37405938  0.61837901  1
  O  O392  1  0.88131846  0.86379036  0.11292918  1
  O  O393  1  0.84694694  0.86774106  0.61610380  1
  O  O394  1  0.13954304  0.11886471  0.38112723  1
  O  O395  1  0.11618178  0.13357632  0.87584513  1
  O  O396  1  0.13491170  0.62272509  0.37929468  1
  O  O397  1  0.12365877  0.61763702  0.88393743  1
  O  O398  1  0.62519194  0.13604521  0.39013809  1
  O  O399  1  0.62681945  0.12370719  0.88431568  1
  O  O400  1  0.63829961  0.62596429  0.36915864  1
  O  O401  1  0.63407677  0.61347981  0.87052197  1
