# generated using pymatgen
data_V73Zn73O256
_symmetry_space_group_name_H-M   'P 1'
_cell_length_a   16.90832177
_cell_length_b   16.86440043
_cell_length_c   16.86899899
_cell_angle_alpha   90.00724196
_cell_angle_beta   90.00781130
_cell_angle_gamma   89.98815994
_symmetry_Int_Tables_number   1
_chemical_formula_structural   V73Zn73O256
_chemical_formula_sum   'V73 Zn73 O256'
_cell_volume   4810.17309696
_cell_formula_units_Z   1
loop_
 _symmetry_equiv_pos_site_id
 _symmetry_equiv_pos_as_xyz
  1  'x, y, z'
loop_
 _atom_site_type_symbol
 _atom_site_label
 _atom_site_symmetry_multiplicity
 _atom_site_fract_x
 _atom_site_fract_y
 _atom_site_fract_z
 _atom_site_occupancy
  V  V0  1  0.13485637  0.87422435  0.75929660  1
  V  V1  1  0.61937276  0.51237478  0.12398954  1
  V  V2  1  0.73973305  0.75600432  0.00325977  1
  V  V3  1  0.37617663  0.74689183  0.12843872  1
  V  V4  1  0.75248101  0.50030830  0.25574142  1
  V  V5  1  0.61822167  0.75846705  0.86394541  1
  V  V6  1  0.01955385  0.25713829  0.23876378  1
  V  V7  1  0.24883670  0.87226927  0.12507478  1
  V  V8  1  0.87929791  0.00072424  0.37119174  1
  V  V9  1  0.62286262  0.37066575  0.26329915  1
  V  V10  1  0.88259489  0.49298420  0.38534161  1
  V  V11  1  0.00527910  0.62476499  0.13361488  1
  V  V12  1  0.37587654  0.00691011  0.37672769  1
  V  V13  1  0.37352112  0.86371085  -0.00763365  1
  V  V14  1  0.87442108  0.62473295  0.75588899  1
  V  V15  1  0.74665740  0.74753060  0.48644775  1
  V  V16  1  0.74842172  0.13008996  0.37648436  1
  V  V17  1  0.87794120  0.75222828  0.11978575  1
  V  V18  1  0.75039884  0.36420304  0.12615295  1
  V  V19  1  0.26135241  0.36979465  0.62601887  1
  V  V20  1  -0.00700762  0.50537030  -0.00224588  1
  V  V21  1  0.50221052  0.74886788  0.25171523  1
  V  V22  1  0.76620455  0.00438385  0.74582075  1
  V  V23  1  0.12558951  0.64180897  0.49891440  1
  V  V24  1  -0.01705729  0.24443935  0.74791885  1
  V  V25  1  0.12900792  0.48693042  0.13493573  1
  V  V26  1  0.61629439  -0.00089858  0.62725227  1
  V  V27  1  0.74769227  0.87188181  0.63211134  1
  V  V28  1  0.50339321  0.87999335  0.38045020  1
  V  V29  1  0.77098728  0.37141570  0.61782310  1
  V  V30  1  0.01477077  0.37325772  0.37877966  1
  V  V31  1  0.87201910  0.62843729  0.25624519  1
  V  V32  1  0.00614615  0.86417123  0.37086466  1
  V  V33  1  0.50487760  -0.00351106  -0.00693846  1
  V  V34  1  0.24963746  0.26110009  0.00401539  1
  V  V35  1  -0.00580293  0.86385983  0.88036754  1
  V  V36  1  0.50375893  0.48086000  0.49516125  1
  V  V37  1  0.00468408  0.00089770  0.49970365  1
  V  V38  1  0.75502346  0.50068805  0.75166072  1
  V  V39  1  0.62807526  0.36244778  0.75130397  1
  V  V40  1  0.12201123  0.38647867  0.75205539  1
  V  V41  1  0.37242189  0.61922925  0.25400705  1
  V  V42  1  0.36813112  0.59604855  0.76594769  1
  V  V43  1  0.46263699  0.49676037  -0.01382736  1
  V  V44  1  0.24225383  0.01022400  0.24561672  1
  V  V45  1  0.76708087  0.25166962  0.50028151  1
  V  V46  1  0.62296552  0.62964050  0.48297696  1
  V  V47  1  0.36534731  0.01337642  0.87121543  1
  V  V48  1  0.25065120  0.25563718  0.48614900  1
  V  V49  1  0.01774383  0.00764071  0.01008548  1
  V  V50  1  0.87517418  0.74895333  0.62795311  1
  V  V51  1  0.12280642  0.49998840  0.60953975  1
  V  V52  1  0.62056284  0.12563945  0.50516563  1
  V  V53  1  0.87941022  0.13876077  0.23700185  1
  V  V54  1  0.74468724  0.61437248  0.88625637  1
  V  V55  1  0.37568459  0.48825155  0.38231391  1
  V  V56  1  0.62732461  0.50264947  0.62349168  1
  V  V57  1  0.62303018  0.00237788  0.12474387  1
  V  V58  1  -0.01275393  0.37555178  0.87629143  1
  V  V59  1  0.24704014  0.88118412  0.60406466  1
  V  V60  1  0.74489536  0.13167840  0.87951092  1
  V  V61  1  0.12487543  0.85084163  0.25120099  1
  V  V62  1  0.50072191  0.25169139  0.27716303  1
  V  V63  1  0.50035613  0.13456047  0.11470389  1
  V  V64  1  0.75161132  0.00110718  0.24886804  1
  V  V65  1  0.62598666  0.87257673  0.25067382  1
  V  V66  1  0.87132169  0.36251607  0.00810497  1
  V  V67  1  0.12744142  0.22975263  0.87190402  1
  V  V68  1  0.11874593  0.14025353  0.48595311  1
  V  V69  1  0.25546482  0.63938330  0.38989630  1
  V  V70  1  0.37845648  0.12627608  0.24757079  1
  V  V71  1  -0.01701448  0.12839713  0.62519428  1
  V  V72  1  0.87423578  -0.00212308  0.89131263  1
  Zn  Zn73  1  0.68816325  0.22490711  0.01285966  1
  Zn  Zn74  1  0.37626504  0.87293719  0.50078671  1
  Zn  Zn75  1  0.75821668  0.88086854  0.12100654  1
  Zn  Zn76  1  -0.00342736  0.62232233  0.61890518  1
  Zn  Zn77  1  0.35782787  0.72614728  0.61188524  1
  Zn  Zn78  1  0.00723699  0.74619808  0.75285584  1
  Zn  Zn79  1  0.49953181  0.61947538  0.63604371  1
  Zn  Zn80  1  0.87787982  0.87098679  0.49738692  1
  Zn  Zn81  1  0.12650118  0.01035093  0.63704892  1
  Zn  Zn82  1  0.19576752  0.19658168  0.17772896  1
  Zn  Zn83  1  0.15513889  0.21056138  0.66585910  1
  Zn  Zn84  1  0.19669201  0.67707044  0.18820611  1
  Zn  Zn85  1  0.19476309  0.69455779  0.69072222  1
  Zn  Zn86  1  0.68041761  0.18619153  0.19642323  1
  Zn  Zn87  1  0.69991980  0.18201961  0.68287893  1
  Zn  Zn88  1  0.69064689  0.68851409  0.19188412  1
  Zn  Zn89  1  0.68660023  0.68616991  0.68705936  1
  Zn  Zn90  1  0.31532913  0.30551218  0.31454715  1
  Zn  Zn91  1  0.28277414  0.34521098  0.84303487  1
  Zn  Zn92  1  0.31400985  0.81708503  0.31397181  1
  Zn  Zn93  1  0.34988488  0.86032491  0.77347789  1
  Zn  Zn94  1  0.81540178  0.31561809  0.31638790  1
  Zn  Zn95  1  0.80215156  0.31884632  0.81800556  1
  Zn  Zn96  1  0.81652313  0.81532141  0.30811113  1
  Zn  Zn97  1  0.80839930  0.81106732  0.81676059  1
  Zn  Zn98  1  0.19452712  0.43726965  0.43468967  1
  Zn  Zn99  1  0.17294245  0.43773822  0.95260123  1
  Zn  Zn100  1  0.18541237  0.94528728  0.42777933  1
  Zn  Zn101  1  0.18885154  0.93693776  0.93451486  1
  Zn  Zn102  1  0.69463446  0.44047774  0.43798389  1
  Zn  Zn103  1  0.65091221  0.39917998  0.95639811  1
  Zn  Zn104  1  0.68903055  0.93835147  0.44083317  1
  Zn  Zn105  1  0.68765019  0.93468720  0.93368806  1
  Zn  Zn106  1  0.31736366  0.05917868  0.06189937  1
  Zn  Zn107  1  0.29676592  0.06635195  0.55095196  1
  Zn  Zn108  1  0.31946404  0.55208949  0.06809293  1
  Zn  Zn109  1  0.31541357  0.54972309  0.57177228  1
  Zn  Zn110  1  0.81083563  0.06780628  0.06002547  1
  Zn  Zn111  1  0.81278292  0.05821431  0.55673081  1
  Zn  Zn112  1  0.81199167  0.55658205  0.06840727  1
  Zn  Zn113  1  0.80979519  0.56756105  0.56128788  1
  Zn  Zn114  1  0.44374627  0.43495271  0.18147469  1
  Zn  Zn115  1  0.43995871  0.41963000  0.80500429  1
  Zn  Zn116  1  0.43691116  0.93766963  0.18709038  1
  Zn  Zn117  1  0.40568802  0.99310475  0.66415997  1
  Zn  Zn118  1  0.93854662  0.43515715  0.19076336  1
  Zn  Zn119  1  0.94166191  0.44201415  0.68437712  1
  Zn  Zn120  1  0.94357744  0.93773842  0.18853986  1
  Zn  Zn121  1  0.94177303  0.93223957  0.68902379  1
  Zn  Zn122  1  0.05842797  0.06775348  0.30612454  1
  Zn  Zn123  1  0.05088547  0.05488227  0.81036260  1
  Zn  Zn124  1  0.06825513  0.56107619  0.31750818  1
  Zn  Zn125  1  0.05573454  0.55960187  0.81204534  1
  Zn  Zn126  1  0.56258152  0.06457134  0.31459761  1
  Zn  Zn127  1  0.57456767  0.04423427  0.81246655  1
  Zn  Zn128  1  0.55693740  0.55696624  0.30484812  1
  Zn  Zn129  1  0.56091821  0.56030529  0.82063346  1
  Zn  Zn130  1  0.46006546  0.22522447  0.48732448  1
  Zn  Zn131  1  0.39642338  0.22113617  0.88042061  1
  Zn  Zn132  1  0.44237167  0.69140532  0.43920661  1
  Zn  Zn133  1  0.44218529  0.67727915  0.93908410  1
  Zn  Zn134  1  0.94256194  0.19259560  0.42610233  1
  Zn  Zn135  1  0.93608632  0.18268569  0.93833811  1
  Zn  Zn136  1  0.93702522  0.68252194  0.44113327  1
  Zn  Zn137  1  0.92931972  0.68515543  0.94204912  1
  Zn  Zn138  1  0.06553666  0.30951297  0.05870121  1
  Zn  Zn139  1  0.05023255  0.31799346  0.56323094  1
  Zn  Zn140  1  0.06286465  0.81484953  0.05983372  1
  Zn  Zn141  1  0.06392246  0.81665222  0.56707516  1
  Zn  Zn142  1  0.54366286  0.33401260  0.07189988  1
  Zn  Zn143  1  0.57869591  0.30859717  0.57892411  1
  Zn  Zn144  1  0.55901795  0.81225223  0.06392133  1
  Zn  Zn145  1  0.56289596  0.81491107  0.55954260  1
  O  O146  1  0.16801147  0.12460913  0.08561251  1
  O  O147  1  0.10501903  0.12357957  0.61331788  1
  O  O148  1  0.10600083  0.63112860  0.13234192  1
  O  O149  1  0.13337379  0.61480766  0.61389766  1
  O  O150  1  0.61344044  0.11527167  0.12883882  1
  O  O151  1  0.63337081  0.11169314  0.61724089  1
  O  O152  1  0.64223560  0.61091924  0.12502785  1
  O  O153  1  0.62719080  0.61377540  0.61956636  1
  O  O154  1  0.37440778  0.38992547  0.36888533  1
  O  O155  1  0.39162643  0.32474612  0.84237951  1
  O  O156  1  0.38706623  0.88569260  0.37393812  1
  O  O157  1  0.36944153  0.86240581  0.89271360  1
  O  O158  1  0.88216837  0.38861521  0.37362388  1
  O  O159  1  0.88136239  0.37420597  0.88537431  1
  O  O160  1  0.88544603  0.88598975  0.37028545  1
  O  O161  1  0.88455305  0.88228539  0.87224784  1
  O  O162  1  0.26331402  -0.00512819  0.35516135  1
  O  O163  1  0.26641519  0.00073851  0.87979388  1
  O  O164  1  0.27183449  0.50989741  0.38724812  1
  O  O165  1  0.20624473  0.54440823  0.89076339  1
  O  O166  1  0.76208548  0.00523353  0.37083555  1
  O  O167  1  0.76031638  -0.00467542  0.86478715  1
  O  O168  1  0.76772175  0.49451976  0.36515858  1
  O  O169  1  0.75059845  0.51233940  0.86566974  1
  O  O170  1  0.22265372  0.52180442  0.10969122  1
  O  O171  1  0.23350682  0.48170256  0.62087066  1
  O  O172  1  0.26040198  0.98524588  0.13857299  1
  O  O173  1  0.23857331  0.99115732  0.61797368  1
  O  O174  1  0.74342434  0.48999803  0.13816155  1
  O  O175  1  0.74778525  0.49263075  0.62582211  1
  O  O176  1  0.74019375  1.00063935  0.12827905  1
  O  O177  1  0.75841785  0.99190764  0.63474286  1
  O  O178  1  -0.00094100  0.36320344  0.25482294  1
  O  O179  1  0.00080924  0.36946963  0.75645296  1
  O  O180  1  0.01834925  0.87656997  0.25409970  1
  O  O181  1  0.00305904  0.86831708  0.76417615  1
  O  O182  1  0.50436921  0.35702374  0.24791093  1
  O  O183  1  0.52995388  0.38020820  0.74745614  1
  O  O184  1  0.50793577  0.87032798  0.25448357  1
  O  O185  1  0.48585329  0.79137662  0.71029850  1
  O  O186  1  0.49925557  0.13740388  0.24514758  1
  O  O187  1  0.51544306  0.14612766  0.76781480  1
  O  O188  1  0.48611654  0.64113769  0.26703521  1
  O  O189  1  0.48227284  0.60246194  0.75089844  1
  O  O190  1  0.98642115  0.14084908  0.25371505  1
  O  O191  1  0.99622742  0.13703589  0.74318643  1
  O  O192  1  0.98852150  0.62156658  0.23966515  1
  O  O193  1  0.98903145  0.62857861  0.75138346  1
  O  O194  1  0.34065231  0.22255445  -0.01741897  1
  O  O195  1  0.34825727  0.23849427  0.48934842  1
  O  O196  1  0.38653528  0.75803014  0.01278689  1
  O  O197  1  0.40232509  0.76320292  0.51519353  1
  O  O198  1  0.87769759  0.26197334  -0.00073263  1
  O  O199  1  0.86633007  0.24723505  0.49601336  1
  O  O200  1  0.86196761  0.74567217  0.01461069  1
  O  O201  1  0.86189994  0.74441427  0.50841073  1
  O  O202  1  0.11983519  0.24336704  0.50327929  1
  O  O203  1  0.13188311  0.25547266  0.97896304  1
  O  O204  1  0.13017209  0.74047387  0.50712540  1
  O  O205  1  0.13098236  0.72971088  1.01186334  1
  O  O206  1  0.64449757  0.23102826  0.51053827  1
  O  O207  1  0.60813892  0.29538226  0.98844356  1
  O  O208  1  0.63588058  0.74220516  0.50173514  1
  O  O209  1  0.63700022  0.74772451  1.00452470  1
  O  O210  1  0.50222989  0.23503391  0.11978891  1
  O  O211  1  0.48759025  0.25052320  0.59224973  1
  O  O212  1  0.48843556  0.75462476  0.13851561  1
  O  O213  1  0.51392772  0.75016928  0.64428194  1
  O  O214  1  1.00347615  0.25552221  0.13822220  1
  O  O215  1  0.99937822  0.24623817  0.63991235  1
  O  O216  1  0.98673215  0.73747845  0.11421915  1
  O  O217  1  0.98534768  0.74872430  0.62413139  1
  O  O218  1  -0.00164768  0.26459156  0.35908628  1
  O  O219  1  0.00318458  0.25565491  0.86635130  1
  O  O220  1  -0.00833886  0.76588017  0.38086708  1
  O  O221  1  -0.00772891  0.76015726  0.88104624  1
  O  O222  1  0.49635255  0.24846529  0.37540117  1
  O  O223  1  0.51221305  0.20047572  0.82000068  1
  O  O224  1  0.49715016  0.77040778  0.36495724  1
  O  O225  1  0.52173809  0.73842096  0.88569231  1
  O  O226  1  0.22670178  0.14007188  0.50021723  1
  O  O227  1  0.22694355  0.13227556  1.03026442  1
  O  O228  1  0.24665871  0.62307094  0.49621488  1
  O  O229  1  0.24019899  0.71032346  0.93782630  1
  O  O230  1  0.75338832  0.13415556  0.49360203  1
  O  O231  1  0.74719880  0.13104549  0.98992234  1
  O  O232  1  0.73805657  0.63804670  0.50130034  1
  O  O233  1  0.75810912  0.62670170  0.99005277  1
  O  O234  1  0.25456696  0.36152424  -0.03886358  1
  O  O235  1  0.24324074  0.36491628  0.51236715  1
  O  O236  1  0.26494778  0.88122453  0.01159602  1
  O  O237  1  0.24455046  0.87730310  0.50141123  1
  O  O238  1  0.75551960  0.37991212  0.01922107  1
  O  O239  1  0.74811058  0.36294972  0.50704009  1
  O  O240  1  0.74928575  0.86015479  0.00294993  1
  O  O241  1  0.75318889  0.86255739  0.50697522  1
  O  O242  1  0.12212260  0.50525331  0.23465272  1
  O  O243  1  0.12032301  0.48960078  0.74486922  1
  O  O244  1  0.14098434  1.01131172  0.24933878  1
  O  O245  1  0.11132512  0.98172452  0.74879442  1
  O  O246  1  0.64057896  0.49448494  0.25465272  1
  O  O247  1  0.64152369  0.49831365  0.74031908  1
  O  O248  1  0.63029495  0.99589698  0.24234227  1
  O  O249  1  0.64351794  0.99968270  0.73352902  1
  O  O250  1  0.36863538  0.00569485  0.25350570  1
  O  O251  1  0.39102696  -0.02927919  0.77620387  1
  O  O252  1  0.38833501  0.51533142  0.26627195  1
  O  O253  1  0.35767280  0.49455297  0.77520248  1
  O  O254  1  0.87346749  0.00834035  0.25504140  1
  O  O255  1  0.86917085  -0.00403575  0.75765197  1
  O  O256  1  0.86930815  0.50926865  0.25239508  1
  O  O257  1  0.86645001  0.51134299  0.74296383  1
  O  O258  1  0.11387778  0.38933999  0.37022343  1
  O  O259  1  0.10935491  0.37776105  0.86240099  1
  O  O260  1  0.12050330  0.87873223  0.35912530  1
  O  O261  1  0.11133697  0.87763952  0.86695612  1
  O  O262  1  0.63310449  0.37939145  0.36279464  1
  O  O263  1  0.66204470  0.37647652  0.84714888  1
  O  O264  1  0.61483654  0.88985142  0.36233548  1
  O  O265  1  0.62614615  0.85964304  0.87677379  1
  O  O266  1  0.39239101  0.11512315  0.13501314  1
  O  O267  1  0.38135992  0.10037127  0.62420657  1
  O  O268  1  0.36551902  0.62856238  0.14474839  1
  O  O269  1  0.38191541  0.61599138  0.63600037  1
  O  O270  1  0.87036529  0.12268937  0.13883924  1
  O  O271  1  0.88341634  0.12352760  0.61933924  1
  O  O272  1  0.88084494  0.63075222  0.13539398  1
  O  O273  1  0.87375404  0.63274061  0.63423052  1
  O  O274  1  0.24553817  0.27073169  0.10396753  1
  O  O275  1  0.24064905  0.26256042  0.61562472  1
  O  O276  1  0.26420227  0.75729436  0.13342433  1
  O  O277  1  0.25539803  0.77667638  0.63081154  1
  O  O278  1  0.73261434  0.26105270  0.12338837  1
  O  O279  1  0.76120557  0.26174320  0.61541641  1
  O  O280  1  0.75833408  0.74810141  0.11613071  1
  O  O281  1  0.75616433  0.75633045  0.62061209  1
  O  O282  1  0.23614900  0.26917123  0.38581784  1
  O  O283  1  0.22842997  0.23783423  0.86141527  1
  O  O284  1  0.25990394  0.73920285  0.38187652  1
  O  O285  1  0.17826048  0.75142025  0.94725898  1
  O  O286  1  0.75433092  0.24210775  0.38649111  1
  O  O287  1  0.75209442  0.23171774  0.86941032  1
  O  O288  1  0.75507424  0.75600898  0.38769156  1
  O  O289  1  0.74356579  0.74281543  0.88960930  1
  O  O290  1  -0.00406973  0.10649666  -0.00368613  1
  O  O291  1  0.00160183  0.12231378  0.50273221  1
  O  O292  1  -0.01402840  0.61096927  0.01104020  1
  O  O293  1  0.02031400  0.62839177  0.49888252  1
  O  O294  1  0.49718315  0.10758050  0.01330960  1
  O  O295  1  0.52281863  0.12355986  0.49044290  1
  O  O296  1  0.48296644  0.59332631  0.01135538  1
  O  O297  1  0.51823972  0.62763773  0.50658344  1
  O  O298  1  0.52100590  0.38427404  0.49278759  1
  O  O299  1  0.46438331  0.41670556  1.06004233  1
  O  O300  1  0.50959787  0.88291340  0.48226000  1
  O  O301  1  0.48397531  0.88754961  1.01098584  1
  O  O302  1  0.99912211  0.37027641  0.47921833  1
  O  O303  1  0.99138323  0.37874216  0.99385645  1
  O  O304  1  1.00224110  0.88509896  0.49126260  1
  O  O305  1  1.00593360  0.88336792  0.98574772  1
  O  O306  1  0.49277920  0.50563017  0.38812803  1
  O  O307  1  0.50475646  0.47907488  0.89031581  1
  O  O308  1  0.48729906  0.99113289  0.36329032  1
  O  O309  1  0.50037920  1.00129894  0.89005777  1
  O  O310  1  0.98946044  0.49002658  0.36496954  1
  O  O311  1  0.99751201  0.49397611  0.88975940  1
  O  O312  1  0.99434000  0.99541606  0.37754653  1
  O  O313  1  0.98511714  0.99209001  0.88484145  1
  O  O314  1  -0.00060893  -0.00892248  0.10862047  1
  O  O315  1  -0.00350198  0.00567872  0.61293441  1
  O  O316  1  0.00437186  0.50971273  0.12313096  1
  O  O317  1  0.01666687  0.50654067  0.62733841  1
  O  O318  1  0.50823123  0.00516597  0.12160272  1
  O  O319  1  0.51801964  -0.00730557  0.63332236  1
  O  O320  1  0.52541308  0.51492196  0.16530791  1
  O  O321  1  0.51955641  0.49671340  0.60490920  1
  O  O322  1  0.27998043  0.38249141  0.22297456  1
  O  O323  1  0.22658864  0.36839623  0.74162281  1
  O  O324  1  0.23769922  0.88090752  0.24672635  1
  O  O325  1  0.23606578  0.87580450  0.76040980  1
  O  O326  1  0.74571095  0.37747387  0.24420993  1
  O  O327  1  0.75900722  0.38372603  0.73126876  1
  O  O328  1  0.74205392  0.88188101  0.24797104  1
  O  O329  1  0.75554203  0.88363164  0.74009729  1
  O  O330  1  0.26226519  0.11697087  0.23615478  1
  O  O331  1  0.34189390  0.15263478  0.69162457  1
  O  O332  1  0.26531902  0.62689767  0.26930374  1
  O  O333  1  0.27398472  0.63310200  0.74028921  1
  O  O334  1  0.75660661  0.12146177  0.25782889  1
  O  O335  1  0.75684317  0.10963038  0.75642194  1
  O  O336  1  0.76324326  0.61580694  0.24955939  1
  O  O337  1  0.75699832  0.61799140  0.75595045  1
  O  O338  1  0.38034458  0.11062350  0.35939088  1
  O  O339  1  0.37779416  0.11099236  0.85969108  1
  O  O340  1  0.36928831  0.62304788  0.37531913  1
  O  O341  1  0.37397961  0.63481406  0.86062791  1
  O  O342  1  0.86827367  0.11757543  0.36547312  1
  O  O343  1  0.86340928  0.10534322  0.88091226  1
  O  O344  1  0.88629888  0.61611839  0.36027545  1
  O  O345  1  0.86036496  0.63359613  0.86424244  1
  O  O346  1  0.12587323  0.38690921  0.12265739  1
  O  O347  1  0.11483111  0.38465185  0.63583835  1
  O  O348  1  0.13466558  0.86374150  0.13923679  1
  O  O349  1  0.13477834  0.87969921  0.63347747  1
  O  O350  1  0.63434029  0.38617223  0.14392234  1
  O  O351  1  0.64524616  0.38577323  0.63014227  1
  O  O352  1  0.62507020  0.88507365  0.13519476  1
  O  O353  1  0.63868078  0.88791119  0.61495270  1
  O  O354  1  0.11887761  0.24139970  0.24658562  1
  O  O355  1  0.10750738  0.26035204  0.75895560  1
  O  O356  1  0.13061410  0.75267048  0.25588387  1
  O  O357  1  0.12152467  0.76526333  0.74503367  1
  O  O358  1  0.60926317  0.25338645  0.25627955  1
  O  O359  1  0.63889540  0.26305623  0.73236937  1
  O  O360  1  0.61802899  0.76122821  0.24370190  1
  O  O361  1  0.63295383  0.74820383  0.76409621  1
  O  O362  1  0.38924011  0.23989618  0.25561732  1
  O  O363  1  0.38205426  0.21182940  0.70884756  1
  O  O364  1  0.38178630  0.74465199  0.24724374  1
  O  O365  1  0.40616689  0.77055372  0.72317185  1
  O  O366  1  0.86882341  0.23934374  0.24830611  1
  O  O367  1  0.88546878  0.25717436  0.75673882  1
  O  O368  1  0.86653506  0.73512190  0.24022614  1
  O  O369  1  0.87018984  0.74200453  0.74199254  1
  O  O370  1  0.39376045  0.49590237  0.49512487  1
  O  O371  1  0.36038106  0.50340829  0.97623568  1
  O  O372  1  0.36536318  1.00159743  0.47934921  1
  O  O373  1  0.38358541  0.99295494  0.98827473  1
  O  O374  1  0.87443278  0.51339135  0.48350171  1
  O  O375  1  0.88739376  0.48349016  1.01501850  1
  O  O376  1  0.88539257  0.99818710  0.48655623  1
  O  O377  1  0.86931659  0.99074170  0.99266258  1
  O  O378  1  0.11708943  -0.00240396  -0.00252875  1
  O  O379  1  0.11258579  0.01319713  0.49285772  1
  O  O380  1  0.09888102  0.49653713  0.01438340  1
  O  O381  1  0.12537931  0.50242716  0.50819202  1
  O  O382  1  0.61246593  -0.01208612  0.00859414  1
  O  O383  1  0.64020256  0.01121706  0.51552973  1
  O  O384  1  0.61270120  0.48673478  0.02349375  1
  O  O385  1  0.62528185  0.51193254  0.49970490  1
  O  O386  1  0.32928885  0.39391552  0.16553163  1
  O  O387  1  0.35606563  0.37677350  0.63368035  1
  O  O388  1  0.36768879  0.86564695  0.12338276  1
  O  O389  1  0.35520486  0.89716443  0.61999889  1
  O  O390  1  0.85756343  0.37283955  0.12752401  1
  O  O391  1  0.86924567  0.38515693  0.61543385  1
  O  O392  1  0.87563303  0.85536725  0.13849773  1
  O  O393  1  0.86791305  0.86519782  0.62131501  1
  O  O394  1  0.11215094  0.13082612  0.38688935  1
  O  O395  1  0.11352589  0.13181437  0.86819958  1
  O  O396  1  0.14231956  0.61956653  0.38848357  1
  O  O397  1  0.15188603  0.59616899  0.87590505  1
  O  O398  1  0.64196716  0.11182797  0.38716382  1
  O  O399  1  0.64697093  0.10943133  0.87253239  1
  O  O400  1  0.62140841  0.62381105  0.38430167  1
  O  O401  1  0.64176050  0.63007252  0.87303016  1
