# generated using pymatgen
data_V73Zn73O256
_symmetry_space_group_name_H-M   'P 1'
_cell_length_a   16.86912233
_cell_length_b   16.86296507
_cell_length_c   16.86555956
_cell_angle_alpha   90.26891755
_cell_angle_beta   89.91135112
_cell_angle_gamma   89.89251590
_symmetry_Int_Tables_number   1
_chemical_formula_structural   V73Zn73O256
_chemical_formula_sum   'V73 Zn73 O256'
_cell_volume   4797.56766991
_cell_formula_units_Z   1
loop_
 _symmetry_equiv_pos_site_id
 _symmetry_equiv_pos_as_xyz
  1  'x, y, z'
loop_
 _atom_site_type_symbol
 _atom_site_label
 _atom_site_symmetry_multiplicity
 _atom_site_fract_x
 _atom_site_fract_y
 _atom_site_fract_z
 _atom_site_occupancy
  V  V0  1  0.37782687  0.25262212  0.13165103  1
  V  V1  1  0.25220558  0.38841618  0.63480708  1
  V  V2  1  0.23727001  0.75005594  0.49775354  1
  V  V3  1  0.25392599  0.12524665  0.86221553  1
  V  V4  1  0.87367888  0.00154010  0.38591242  1
  V  V5  1  0.86918783  0.87957467  0.02145305  1
  V  V6  1  0.74543745  0.12525616  0.37780140  1
  V  V7  1  0.11594952  0.23980535  0.37215832  1
  V  V8  1  0.87833026  0.37322598  0.50601017  1
  V  V9  1  0.49727655  0.87085527  0.86905516  1
  V  V10  1  0.50156907  0.62367299  0.62803420  1
  V  V11  1  0.50293442  0.00060848  0.00713034  1
  V  V12  1  0.35568395  0.12220874  0.25184833  1
  V  V13  1  0.12467305  0.49420616  0.11785634  1
  V  V14  1  0.63415557  0.63144100  0.49415891  1
  V  V15  1  0.85889396  0.86417143  0.49892835  1
  V  V16  1  0.61160414  0.25527672  0.37061779  1
  V  V17  1  0.73767297  0.87848194  0.62609171  1
  V  V18  1  0.24896060  0.63635306  0.88292196  1
  V  V19  1  0.62127157  0.74899837  0.86811607  1
  V  V20  1  0.36724982  0.00045374  0.36731646  1
  V  V21  1  0.49710894  0.24995149  0.76357442  1
  V  V22  1  0.37576165  0.23969755  0.63034828  1
  V  V23  1  0.87782044  0.74055645  0.63784866  1
  V  V24  1  0.75468676  0.75319961  0.01377046  1
  V  V25  1  0.61855061  0.12460944  0.51261875  1
  V  V26  1  0.49244110  0.62801796  0.12550305  1
  V  V27  1  0.37230997  0.87246134  0.49639831  1
  V  V28  1  -0.00340460  -0.00607105  -0.00843779  1
  V  V29  1  0.62867733  0.87657759  0.23699027  1
  V  V30  1  0.12761684  0.86491046  0.25125803  1
  V  V31  1  0.61858653  0.37502569  0.24942962  1
  V  V32  1  -0.00277538  0.37291466  0.36107502  1
  V  V33  1  0.24997119  0.25481488  0.49473574  1
  V  V34  1  0.11290480  0.11708081  0.51309957  1
  V  V35  1  0.63087796  0.26939450  0.87497536  1
  V  V36  1  0.90664337  0.12161567  0.75279245  1
  V  V37  1  0.75107168  0.50816334  0.25262609  1
  V  V38  1  0.86971057  0.36058179  0.02230859  1
  V  V39  1  0.76675710  0.62286191  0.86255911  1
  V  V40  1  0.74539192  0.25919162  0.50857873  1
  V  V41  1  0.50025672  0.49312836  -0.00351585  1
  V  V42  1  0.51060041  0.12447291  0.13649968  1
  V  V43  1  0.10491251  0.51387795  0.61434632  1
  V  V44  1  0.25325433  0.85787452  0.12690990  1
  V  V45  1  0.37417404  0.75596582  0.63085951  1
  V  V46  1  0.37138643  0.37421963  0.00522729  1
  V  V47  1  0.62691919  0.62262837  -0.00187809  1
  V  V48  1  -0.01749663  0.75021769  0.23736021  1
  V  V49  1  0.24911351  0.23994126  0.00806638  1
  V  V50  1  0.37028661  0.49093016  0.86869061  1
  V  V51  1  0.86928174  0.50590231  0.37452122  1
  V  V52  1  0.13039246  0.64193339  -0.00016749  1
  V  V53  1  0.63145500  0.12638897  -0.01277760  1
  V  V54  1  0.24787538  0.49133198  0.24989831  1
  V  V55  1  0.37329750  0.62326835  0.75109506  1
  V  V56  1  0.12719510  0.00316887  0.12907757  1
  V  V57  1  0.48856058  0.49609886  0.49245595  1
  V  V58  1  0.22981072  0.63053085  0.37306714  1
  V  V59  1  0.04373324  0.76137971  0.78510350  1
  V  V60  1  0.49865495  0.75064610  0.25369393  1
  V  V61  1  0.62236621  0.88626222  0.75206676  1
  V  V62  1  -0.00189421  0.87408324  0.38009243  1
  V  V63  1  0.49828281  0.00637464  0.50946195  1
  V  V64  1  0.37396505  0.62663172  0.25869586  1
  V  V65  1  0.74638741  -0.00088956  0.23702756  1
  V  V66  1  -0.01030351  0.62598535  0.11801156  1
  V  V67  1  0.37311322  0.86139608  0.00626427  1
  V  V68  1  -0.00476034  0.13119101  0.12873206  1
  V  V69  1  0.12622482  0.25235762  0.86678036  1
  V  V70  1  0.37586524  0.00721008  0.87263331  1
  V  V71  1  0.63161794  0.49271582  0.12198936  1
  V  V72  1  0.63491052  0.48575361  0.63440687  1
  Zn  Zn73  1  0.76669066  0.00821736  0.77759208  1
  Zn  Zn74  1  0.50839611  0.87635177  0.37607338  1
  Zn  Zn75  1  0.47073323  0.37986198  0.37371807  1
  Zn  Zn76  1  0.96836670  0.46505581  0.92326218  1
  Zn  Zn77  1  0.12085933  0.36570921  0.23782666  1
  Zn  Zn78  1  0.65184916  0.75419325  0.38249320  1
  Zn  Zn79  1  0.88007502  0.13155883  0.25221178  1
  Zn  Zn80  1  0.86010715  0.25663207  0.64915464  1
  Zn  Zn81  1  0.17779632  1.00653099  0.65594391  1
  Zn  Zn82  1  0.18345474  0.18713801  0.18695892  1
  Zn  Zn83  1  0.18874186  0.19022597  0.68119127  1
  Zn  Zn84  1  0.18249678  0.68330418  0.18708288  1
  Zn  Zn85  1  0.18607862  0.67737634  0.69060198  1
  Zn  Zn86  1  0.68585035  0.18710386  0.19070554  1
  Zn  Zn87  1  0.68250707  0.18559291  0.70372869  1
  Zn  Zn88  1  0.68392054  0.68614827  0.19181642  1
  Zn  Zn89  1  0.69280198  0.69137151  0.67962067  1
  Zn  Zn90  1  0.30853182  0.30926613  0.31292011  1
  Zn  Zn91  1  0.31029942  0.31255197  0.80775345  1
  Zn  Zn92  1  0.31440424  0.80908708  0.31256003  1
  Zn  Zn93  1  0.30405981  0.81615798  0.81455974  1
  Zn  Zn94  1  0.79768181  0.32158916  0.31602500  1
  Zn  Zn95  1  0.83842026  0.26646060  0.85912766  1
  Zn  Zn96  1  0.80997296  0.81315280  0.30431881  1
  Zn  Zn97  1  0.80354537  0.81067158  0.81511906  1
  Zn  Zn98  1  0.19859579  0.44085426  0.43558299  1
  Zn  Zn99  1  0.19011075  0.43755474  0.94031247  1
  Zn  Zn100  1  0.18536163  0.93587898  0.43673901  1
  Zn  Zn101  1  0.20614161  0.96206889  0.97005820  1
  Zn  Zn102  1  0.67964208  0.44465885  0.44287433  1
  Zn  Zn103  1  0.73468599  0.42210534  0.91290537  1
  Zn  Zn104  1  0.68275122  0.93938259  0.43451027  1
  Zn  Zn105  1  0.68397606  0.93257041  0.94878820  1
  Zn  Zn106  1  0.31905676  0.06015553  0.06649071  1
  Zn  Zn107  1  0.30188938  0.07299500  0.54229441  1
  Zn  Zn108  1  0.31100279  0.56102730  0.06571494  1
  Zn  Zn109  1  0.30948792  0.57005120  0.55716456  1
  Zn  Zn110  1  0.81609099  0.07111550  0.05729734  1
  Zn  Zn111  1  0.81205274  0.06927333  0.62249319  1
  Zn  Zn112  1  0.81255876  0.54937077  0.04614742  1
  Zn  Zn113  1  0.81402784  0.55788097  0.56586768  1
  Zn  Zn114  1  0.43762955  0.44098812  0.19019910  1
  Zn  Zn115  1  0.43983965  0.42994564  0.67972284  1
  Zn  Zn116  1  0.44015100  0.93696809  0.18739494  1
  Zn  Zn117  1  0.37617480  0.97485521  0.66324682  1
  Zn  Zn118  1  0.93733055  0.44034017  0.18329119  1
  Zn  Zn119  1  1.12371438  0.41585634  0.77070017  1
  Zn  Zn120  1  0.93744313  0.94561239  0.19198125  1
  Zn  Zn121  1  0.93671590  0.91858729  0.70169216  1
  Zn  Zn122  1  0.06177801  0.05692403  0.30850924  1
  Zn  Zn123  1  0.07132301  0.06401881  0.82482991  1
  Zn  Zn124  1  0.05281697  0.56338728  0.31055929  1
  Zn  Zn125  1  0.04352335  0.57238681  0.78255982  1
  Zn  Zn126  1  0.56145505  0.05804407  0.31969551  1
  Zn  Zn127  1  0.55090670  0.06762567  0.80482248  1
  Zn  Zn128  1  0.56427497  0.56354613  0.31330701  1
  Zn  Zn129  1  0.56097025  0.55769924  0.81224848  1
  Zn  Zn130  1  0.43182263  0.18759467  0.43696694  1
  Zn  Zn131  1  0.44273481  0.18841216  0.94304879  1
  Zn  Zn132  1  0.44198665  0.68390282  0.43807992  1
  Zn  Zn133  1  0.43918850  0.68278306  0.93626041  1
  Zn  Zn134  1  0.93553731  0.18752340  0.44332291  1
  Zn  Zn135  1  0.94565449  0.17710929  0.94061666  1
  Zn  Zn136  1  0.92802642  0.69278431  0.42434238  1
  Zn  Zn137  1  0.94329913  0.69635564  0.93370573  1
  Zn  Zn138  1  0.05611752  0.31451709  0.04671448  1
  Zn  Zn139  1  0.08872098  0.35718158  0.53550379  1
  Zn  Zn140  1  0.06047811  0.81689783  0.05875580  1
  Zn  Zn141  1  0.05057794  0.68475531  0.55383794  1
  Zn  Zn142  1  0.56144179  0.30890376  0.06048686  1
  Zn  Zn143  1  0.55484092  0.31592287  0.56369825  1
  Zn  Zn144  1  0.56135608  0.80879965  0.06164979  1
  Zn  Zn145  1  0.55569417  0.81111421  0.56397715  1
  O  O146  1  0.12078793  0.10769935  0.12943383  1
  O  O147  1  0.13183929  0.11046115  0.61935421  1
  O  O148  1  0.12183095  0.61891592  0.11300978  1
  O  O149  1  0.13021657  0.62131539  0.60858617  1
  O  O150  1  0.61360778  0.13651711  0.11541914  1
  O  O151  1  0.62092725  0.13480281  0.60999227  1
  O  O152  1  0.61733956  0.61569528  0.11558726  1
  O  O153  1  0.61363311  0.62675071  0.62130469  1
  O  O154  1  0.36065182  0.37947642  0.37762096  1
  O  O155  1  0.37103681  0.38640459  0.88237321  1
  O  O156  1  0.37994564  0.88385259  0.37781031  1
  O  O157  1  0.37745637  0.88061560  0.88971865  1
  O  O158  1  0.88188366  0.37389622  0.37598234  1
  O  O159  1  0.83591520  0.38715871  0.84759575  1
  O  O160  1  0.87578181  0.88118068  0.37924059  1
  O  O161  1  0.83701057  0.89900917  0.88774160  1
  O  O162  1  0.26803773  -0.00517009  0.37727524  1
  O  O163  1  0.26474375  0.01399335  0.88983706  1
  O  O164  1  0.24092419  0.51622234  0.35943977  1
  O  O165  1  0.26691280  0.50906011  0.88333353  1
  O  O166  1  0.75393552  0.01041167  0.37541774  1
  O  O167  1  0.77680081  -0.03832748  0.88405175  1
  O  O168  1  0.75506069  0.49220965  0.36312766  1
  O  O169  1  0.73843608  0.52670343  0.87452994  1
  O  O170  1  0.23532770  0.50704599  0.13689739  1
  O  O171  1  0.25955204  0.48891735  0.61838646  1
  O  O172  1  0.23324776  0.99134369  0.10780998  1
  O  O173  1  0.27656078  0.98796005  0.61077510  1
  O  O174  1  0.73870971  0.50416077  0.13197707  1
  O  O175  1  0.73443724  0.50040515  0.62461831  1
  O  O176  1  0.75010347  1.01125948  0.13950685  1
  O  O177  1  0.74596937  0.97902617  0.61150753  1
  O  O178  1  0.00028459  0.37259778  0.25737504  1
  O  O179  1  0.00313261  0.33767971  0.72613111  1
  O  O180  1  0.01059596  0.86477228  0.23958443  1
  O  O181  1  0.01074805  0.85236267  0.74893170  1
  O  O182  1  0.51158966  0.38783776  0.26073367  1
  O  O183  1  0.49541470  0.35069773  0.73808988  1
  O  O184  1  0.50923363  0.86853432  0.24847807  1
  O  O185  1  0.50517870  0.87710238  0.76738702  1
  O  O186  1  0.50438004  0.12060680  0.23801067  1
  O  O187  1  0.50131071  0.14617610  0.74250932  1
  O  O188  1  0.49427159  0.62863424  0.24438990  1
  O  O189  1  0.48459139  0.62294610  0.74336328  1
  O  O190  1  0.99831689  0.12197522  0.23641497  1
  O  O191  1  1.00775403  0.11531384  0.74686374  1
  O  O192  1  1.00068554  0.64121094  0.23625773  1
  O  O193  1  1.00661635  0.67039788  0.75069434  1
  O  O194  1  0.37124375  0.25502132  0.01017033  1
  O  O195  1  0.35482007  0.24536364  0.50025963  1
  O  O196  1  0.38572768  0.76301755  0.00414462  1
  O  O197  1  0.37488988  0.75901074  0.50190954  1
  O  O198  1  0.87245747  0.26122616  -0.02853033  1
  O  O199  1  0.85583395  0.25755385  0.49294484  1
  O  O200  1  0.86242819  0.76602363  -0.00638498  1
  O  O201  1  0.86816500  0.76297342  0.49493437  1
  O  O202  1  0.12339434  0.24720028  0.48990699  1
  O  O203  1  0.14807935  0.25635394  0.99474161  1
  O  O204  1  0.14017083  0.75768231  0.50746963  1
  O  O205  1  0.13254105  0.74066540  1.00763279  1
  O  O206  1  0.62717382  0.24460594  0.49205978  1
  O  O207  1  0.61208812  0.23737495  0.98566698  1
  O  O208  1  0.61671263  0.73779296  0.49920386  1
  O  O209  1  0.63350699  0.74263258  0.99549785  1
  O  O210  1  0.48793984  0.23470471  0.12130355  1
  O  O211  1  0.47667475  0.24992187  0.61231534  1
  O  O212  1  0.50887435  0.73656731  0.13622238  1
  O  O213  1  0.48276173  0.73834562  0.62057782  1
  O  O214  1  1.01741396  0.22769236  0.11219587  1
  O  O215  1  1.00744534  0.29120193  0.66923816  1
  O  O216  1  1.00375755  0.73903612  0.12726932  1
  O  O217  1  0.97618561  0.75169115  0.61092961  1
  O  O218  1  0.00532203  0.25859367  0.37386637  1
  O  O219  1  0.02964560  0.23766040  0.88657310  1
  O  O220  1  -0.01337561  0.76762497  0.35146871  1
  O  O221  1  0.02207785  0.76190612  0.88632647  1
  O  O222  1  0.50943048  0.25341161  0.38230809  1
  O  O223  1  0.50156932  0.25330789  0.86937551  1
  O  O224  1  0.50162422  0.75017792  0.36074469  1
  O  O225  1  0.50898960  0.75939510  0.88495070  1
  O  O226  1  0.22809589  0.14628653  0.49711086  1
  O  O227  1  0.26130519  0.13706074  0.99759123  1
  O  O228  1  0.25167522  0.63497687  0.48098813  1
  O  O229  1  0.24443237  0.62343080  0.99506729  1
  O  O230  1  0.73218476  0.13470241  0.49295831  1
  O  O231  1  0.73053060  0.11924353  1.00188654  1
  O  O232  1  0.73235530  0.62160680  0.50693493  1
  O  O233  1  0.74176951  0.63230564  0.99267947  1
  O  O234  1  0.26585850  0.36348079  0.00003652  1
  O  O235  1  0.23512849  0.36186901  0.51337260  1
  O  O236  1  0.26339371  0.86954741  0.00947399  1
  O  O237  1  0.25973958  0.86067457  0.48812072  1
  O  O238  1  0.76673482  0.37175917  0.00882298  1
  O  O239  1  0.75174691  0.36252944  0.49124919  1
  O  O240  1  0.74951419  0.86111796  0.01364602  1
  O  O241  1  0.75326255  0.87347890  0.50242261  1
  O  O242  1  0.13283108  0.50291127  0.24026169  1
  O  O243  1  0.13201996  0.52023793  0.72263249  1
  O  O244  1  0.12223500  0.98392562  0.23574541  1
  O  O245  1  0.13429944  0.98218873  0.76161204  1
  O  O246  1  0.63015769  0.49725307  0.24121841  1
  O  O247  1  0.61655073  0.50084264  0.73418612  1
  O  O248  1  0.63282268  0.98755254  0.25582042  1
  O  O249  1  0.62572493  0.98798203  0.76437810  1
  O  O250  1  0.37947721  0.00868656  0.25766773  1
  O  O251  1  0.37953282  -0.00687603  0.77422692  1
  O  O252  1  0.35539254  0.50962573  0.23980179  1
  O  O253  1  0.38186612  0.50310760  0.76441291  1
  O  O254  1  0.85703275  0.00065985  0.25985713  1
  O  O255  1  0.87924463  0.01229327  0.72744544  1
  O  O256  1  0.85811283  0.49142537  0.25571904  1
  O  O257  1  0.86930906  0.48001385  0.75186650  1
  O  O258  1  0.10470356  0.37211817  0.37725394  1
  O  O259  1  0.14274731  0.35884884  0.87238784  1
  O  O260  1  0.11123555  0.88243407  0.36046322  1
  O  O261  1  0.17435192  0.91972298  0.80184198  1
  O  O262  1  0.62429800  0.36196808  0.37323320  1
  O  O263  1  0.63345928  0.36892144  0.88531581  1
  O  O264  1  0.62496364  0.86934377  0.36494594  1
  O  O265  1  0.61646913  0.86857822  0.87424524  1
  O  O266  1  0.38290772  0.12730184  0.13935167  1
  O  O267  1  0.36180357  0.14022975  0.61829573  1
  O  O268  1  0.38629883  0.62005403  0.13262146  1
  O  O269  1  0.37948294  0.63057336  0.63294017  1
  O  O270  1  0.88999946  0.12236337  0.12805495  1
  O  O271  1  0.89198341  0.14564488  0.63453655  1
  O  O272  1  0.89178542  0.61491962  0.10757723  1
  O  O273  1  0.86142106  0.64144128  0.62498356  1
  O  O274  1  0.26007494  0.24263352  0.11636615  1
  O  O275  1  0.25400968  0.26000275  0.61650125  1
  O  O276  1  0.25134449  0.75923829  0.12641027  1
  O  O277  1  0.26670259  0.73647488  0.60534857  1
  O  O278  1  0.78525090  0.24281502  0.16626371  1
  O  O279  1  0.74202247  0.24993838  0.61037098  1
  O  O280  1  0.75031209  0.73536888  0.11144971  1
  O  O281  1  0.76000159  0.76861203  0.62479000  1
  O  O282  1  0.23006661  0.26075577  0.38676581  1
  O  O283  1  0.25748878  0.23724028  0.88432631  1
  O  O284  1  0.24964203  0.74097117  0.38206220  1
  O  O285  1  0.26328606  0.73526089  0.88418120  1
  O  O286  1  0.73602229  0.24175797  0.38288677  1
  O  O287  1  0.72611845  0.24199386  0.86914123  1
  O  O288  1  0.76084852  0.73537740  0.36257456  1
  O  O289  1  0.73901805  0.74137396  0.88759246  1
  O  O290  1  -0.00437312  0.10159740  0.01262167  1
  O  O291  1  0.01275512  0.13150341  0.50396496  1
  O  O292  1  0.01620014  0.62998789  0.00779794  1
  O  O293  1  0.00850820  0.62963317  0.46674871  1
  O  O294  1  0.50498430  0.11622811  0.01071416  1
  O  O295  1  0.50647839  0.11707718  0.49471117  1
  O  O296  1  0.50605828  0.61834429  0.00779274  1
  O  O297  1  0.50501603  0.61772910  0.51032438  1
  O  O298  1  0.50032330  0.39173256  0.49620779  1
  O  O299  1  0.48821380  0.38425573  1.00521836  1
  O  O300  1  0.49049181  0.88637597  0.49926479  1
  O  O301  1  0.49177518  0.88142574  0.99944661  1
  O  O302  1  0.98202144  0.36899267  0.48670026  1
  O  O303  1  0.97957171  0.36998287  0.98840191  1
  O  O304  1  0.98888737  0.86984395  0.47822178  1
  O  O305  1  0.97896065  0.87921288  1.00672518  1
  O  O306  1  0.50533159  0.50179265  0.38872717  1
  O  O307  1  0.48603676  0.50738643  0.88893305  1
  O  O308  1  0.48963290  0.99697666  0.38458777  1
  O  O309  1  0.48991259  0.99314404  0.88618822  1
  O  O310  1  0.98045805  0.48679836  0.36320243  1
  O  O311  1  1.03261883  0.47755480  0.83712340  1
  O  O312  1  0.98524849  0.98362251  0.35798716  1
  O  O313  1  1.00861589  0.99561566  0.89312795  1
  O  O314  1  0.01042284  0.00394327  0.12226306  1
  O  O315  1  0.02129823  -0.03744589  0.61042827  1
  O  O316  1  0.01423858  0.51712226  0.13626011  1
  O  O317  1  0.00808615  0.50845153  0.62102887  1
  O  O318  1  0.49567319  0.01352741  0.11921913  1
  O  O319  1  0.47841990  0.00170992  0.60732271  1
  O  O320  1  0.50709312  0.50819617  0.11697490  1
  O  O321  1  0.50301087  0.50817543  0.61713025  1
  O  O322  1  0.24211815  0.38913415  0.25167328  1
  O  O323  1  0.24547366  0.37812958  0.73983451  1
  O  O324  1  0.24045911  0.86947957  0.24044041  1
  O  O325  1  0.23914048  0.89706178  0.75902149  1
  O  O326  1  0.72759138  0.38736735  0.25131517  1
  O  O327  1  0.83355659  0.41641287  0.76176646  1
  O  O328  1  0.73949820  0.88679780  0.24730780  1
  O  O329  1  0.74189861  0.88344669  0.73775174  1
  O  O330  1  0.25763498  0.11551981  0.24615254  1
  O  O331  1  0.25441454  0.12280425  0.76309204  1
  O  O332  1  0.25451948  0.62700163  0.25906596  1
  O  O333  1  0.26465327  0.62539947  0.76632058  1
  O  O334  1  0.73855694  0.11060342  0.26382499  1
  O  O335  1  0.75951111  0.10907703  0.72682553  1
  O  O336  1  0.74214438  0.60779801  0.25091502  1
  O  O337  1  0.74905076  0.63985737  0.76475790  1
  O  O338  1  0.37761370  0.11568153  0.36063757  1
  O  O339  1  0.37374074  0.11382325  0.88168300  1
  O  O340  1  0.37186304  0.62541414  0.36161048  1
  O  O341  1  0.37004106  0.61601099  0.87284686  1
  O  O342  1  0.86491714  0.12117653  0.37379101  1
  O  O343  1  0.88918369  0.11760725  0.85573850  1
  O  O344  1  0.87121583  0.60414654  0.37532297  1
  O  O345  1  0.86667758  0.62940919  0.88129291  1
  O  O346  1  0.11380652  0.38990595  0.12158794  1
  O  O347  1  0.13509176  0.39135208  0.63661384  1
  O  O348  1  0.13732207  0.87533731  0.13175389  1
  O  O349  1  0.08700073  0.92621404  0.61002567  1
  O  O350  1  0.61329533  0.38384519  0.13193266  1
  O  O351  1  0.62391470  0.38597863  0.61969508  1
  O  O352  1  0.62118385  0.87474755  0.13687358  1
  O  O353  1  0.62955269  0.86715505  0.63522973  1
  O  O354  1  0.13377258  0.25279728  0.26608313  1
  O  O355  1  0.13572725  0.24370195  0.76641138  1
  O  O356  1  0.11804344  0.76183250  0.24628507  1
  O  O357  1  0.14551069  0.75570155  0.76244032  1
  O  O358  1  0.62423185  0.25647303  0.26332474  1
  O  O359  1  0.61252050  0.25161831  0.76515697  1
  O  O360  1  0.62021731  0.76188747  0.25165212  1
  O  O361  1  0.63066759  0.76291429  0.76391197  1
  O  O362  1  0.36547871  0.23323116  0.24499941  1
  O  O363  1  0.37989151  0.24660651  0.74022617  1
  O  O364  1  0.38549463  0.74153783  0.24877818  1
  O  O365  1  0.36423544  0.74781444  0.73608711  1
  O  O366  1  0.83352521  0.24224916  0.23254068  1
  O  O367  1  0.87922214  0.23163395  0.75898306  1
  O  O368  1  0.88435375  0.76050406  0.23123311  1
  O  O369  1  0.87337375  0.76471233  0.73815636  1
  O  O370  1  0.38948692  0.51027597  0.50009612  1
  O  O371  1  0.38047338  0.49253285  0.99790921  1
  O  O372  1  0.38243963  0.99827371  0.48450221  1
  O  O373  1  0.38500278  0.99099625  0.99668940  1
  O  O374  1  0.85961995  0.48265491  0.48517723  1
  O  O375  1  0.87665111  0.47355761  0.99139251  1
  O  O376  1  0.87308787  0.98715622  0.48706102  1
  O  O377  1  0.88170599  0.98848358  1.00701659  1
  O  O378  1  0.10579020  -0.02218895  0.01624197  1
  O  O379  1  0.12841269  0.01951441  0.48782520  1
  O  O380  1  0.13022643  0.50581988  0.01333308  1
  O  O381  1  0.12289781  0.48131318  0.51243220  1
  O  O382  1  0.61257731  0.00920615  -0.00302844  1
  O  O383  1  0.61068663  0.01223381  0.49853033  1
  O  O384  1  0.61679271  0.50771062  0.00576676  1
  O  O385  1  0.61490529  0.51268743  0.51222793  1
  O  O386  1  0.38151832  0.36233497  0.12245380  1
  O  O387  1  0.35870875  0.36285728  0.62651205  1
  O  O388  1  0.36339372  0.88119961  0.11854355  1
  O  O389  1  0.37710418  0.86009623  0.61572344  1
  O  O390  1  0.88461121  0.36114803  0.12218022  1
  O  O391  1  0.87422911  0.36548272  0.60517272  1
  O  O392  1  0.86822988  0.87964541  0.12034984  1
  O  O393  1  0.86527967  0.87156028  0.60825497  1
  O  O394  1  0.11386507  0.13701947  0.37699497  1
  O  O395  1  0.14857156  0.13055992  0.88170481  1
  O  O396  1  0.13128960  0.63167095  0.36529711  1
  O  O397  1  0.14232285  0.62361538  0.88979109  1
  O  O398  1  0.62603242  0.13648137  0.38117193  1
  O  O399  1  0.61795688  0.12191602  0.88606266  1
  O  O400  1  0.62203520  0.62670514  0.39019265  1
  O  O401  1  0.61695627  0.63373688  0.88509768  1
