# generated using pymatgen
data_V73Zn73O256
_symmetry_space_group_name_H-M   'P 1'
_cell_length_a   16.85627503
_cell_length_b   16.90580468
_cell_length_c   16.86840338
_cell_angle_alpha   90.10432245
_cell_angle_beta   89.87478786
_cell_angle_gamma   89.91417449
_symmetry_Int_Tables_number   1
_chemical_formula_structural   V73Zn73O256
_chemical_formula_sum   'V73 Zn73 O256'
_cell_volume   4806.94537456
_cell_formula_units_Z   1
loop_
 _symmetry_equiv_pos_site_id
 _symmetry_equiv_pos_as_xyz
  1  'x, y, z'
loop_
 _atom_site_type_symbol
 _atom_site_label
 _atom_site_symmetry_multiplicity
 _atom_site_fract_x
 _atom_site_fract_y
 _atom_site_fract_z
 _atom_site_occupancy
  V  V0  1  0.35507275  0.50032535  0.87666835  1
  V  V1  1  0.49985455  0.12293203  0.12070822  1
  V  V2  1  0.25539985  0.75425727  0.01027281  1
  V  V3  1  0.87766711  0.62731543  0.25162517  1
  V  V4  1  0.14843976  0.49168971  0.64556951  1
  V  V5  1  0.51746839  0.25008030  0.24625558  1
  V  V6  1  0.00320978  0.11543122  0.62328783  1
  V  V7  1  0.38727379  0.75243982  0.13549237  1
  V  V8  1  0.50313418  0.37991449  0.87496287  1
  V  V9  1  0.75278560  0.11264146  0.38191589  1
  V  V10  1  0.87358678  0.38563653  -0.00161583  1
  V  V11  1  0.62452393  0.49273028  0.10920799  1
  V  V12  1  0.36508925  0.25685328  0.13277265  1
  V  V13  1  0.13827249  -0.00627025  0.12534596  1
  V  V14  1  0.36039683  0.24858517  0.62146932  1
  V  V15  1  0.49494513  0.62155458  0.14462622  1
  V  V16  1  0.86341071  0.25046779  0.61653817  1
  V  V17  1  0.64024715  0.61861593  0.50068212  1
  V  V18  1  0.11959839  0.25618755  0.38332175  1
  V  V19  1  0.64228999  0.00660018  0.13581633  1
  V  V20  1  0.50681209  0.60954035  0.63007069  1
  V  V21  1  0.87341389  0.11241252  0.25321743  1
  V  V22  1  0.60722951  0.62844306  -0.01030785  1
  V  V23  1  0.11149594  0.36910562  0.24782613  1
  V  V24  1  0.25684069  0.11943053  0.36406119  1
  V  V25  1  0.36606424  0.12202956  0.76261210  1
  V  V26  1  0.73646707  0.49301300  0.26025583  1
  V  V27  1  0.87223884  0.63056856  0.73953206  1
  V  V28  1  0.87549071  0.01192062  0.88185447  1
  V  V29  1  0.74879187  0.24927431  -0.01385647  1
  V  V30  1  0.12437310  0.49747128  0.12879993  1
  V  V31  1  0.00331975  0.38717263  0.87224370  1
  V  V32  1  0.00068663  0.11981032  0.11968589  1
  V  V33  1  0.36759981  0.37692580  -0.00039712  1
  V  V34  1  -0.01434637  0.87631217  0.88930536  1
  V  V35  1  0.13581469  0.12053985  0.50257432  1
  V  V36  1  -0.00602514  -0.00648591  0.47897115  1
  V  V37  1  0.12385654  0.62065434  -0.00474688  1
  V  V38  1  0.40268943  0.88744187  -0.01276551  1
  V  V39  1  0.74207734  0.00244625  0.74754868  1
  V  V40  1  0.49876344  0.75085488  0.74592646  1
  V  V41  1  0.00301975  0.63991338  0.13150191  1
  V  V42  1  0.23952663  0.88443847  0.63247831  1
  V  V43  1  -0.00173040  0.75504792  0.74447002  1
  V  V44  1  0.36451653  0.36888678  0.49911768  1
  V  V45  1  0.26942892  0.62316315  0.36853475  1
  V  V46  1  0.50232264  0.37476846  0.37478263  1
  V  V47  1  0.88096435  0.25840245  0.13424070  1
  V  V48  1  0.63195633  0.24287745  0.39614576  1
  V  V49  1  0.11792811  0.75340679  0.36473804  1
  V  V50  1  0.86795507  0.50884575  0.87605323  1
  V  V51  1  0.62781333  0.12723703  -0.01138620  1
  V  V52  1  0.63241463  0.38547931  0.73570024  1
  V  V53  1  0.87391641  0.76383259  0.61441262  1
  V  V54  1  0.49954108  0.49302856  0.50572279  1
  V  V55  1  0.50831839  0.11878408  0.61869394  1
  V  V56  1  0.50455585  0.24835407  0.75252467  1
  V  V57  1  0.35570892  0.61385969  0.75133662  1
  V  V58  1  0.00652213  0.49666236  0.51759931  1
  V  V59  1  0.61500124  0.75992823  0.86526447  1
  V  V60  1  0.89813742  0.49242110  0.36813840  1
  V  V61  1  0.87104527  0.36761424  0.49225483  1
  V  V62  1  0.36696521  0.74477144  0.62669087  1
  V  V63  1  0.73047042  0.87885617  0.61776022  1
  V  V64  1  0.24535517  0.24460599  -0.00211855  1
  V  V65  1  0.37925903  0.88290018  0.50302334  1
  V  V66  1  0.12459587  0.24516953  0.87102460  1
  V  V67  1  0.26470418  0.49266518  0.25097757  1
  V  V68  1  0.00192493  0.26076718  0.74111908  1
  V  V69  1  0.12935795  0.75675343  0.87377148  1
  V  V70  1  0.23836208  0.00107367  0.76489913  1
  V  V71  1  0.24746747  0.74457414  0.50027544  1
  V  V72  1  0.74357351  0.62867974  0.87360788  1
  Zn  Zn73  1  0.37603613  0.11169406  0.25236672  1
  Zn  Zn74  1  0.76005354  0.78504296  0.03895102  1
  Zn  Zn75  1  0.12200054  0.11396948  -0.00755199  1
  Zn  Zn76  1  0.15670283  0.88345314  0.25437414  1
  Zn  Zn77  1  0.51540475  -0.00933059  0.51148503  1
  Zn  Zn78  1  0.51468377  0.86587014  0.36078955  1
  Zn  Zn79  1  0.12128942  0.62066958  0.50040517  1
  Zn  Zn80  1  0.87188199  0.12918274  0.75319420  1
  Zn  Zn81  1  0.73781004  0.37055005  0.12503267  1
  Zn  Zn82  1  0.18671157  0.18530730  0.19026044  1
  Zn  Zn83  1  0.18356894  0.18688871  0.69079557  1
  Zn  Zn84  1  0.19424881  0.68560054  0.19037156  1
  Zn  Zn85  1  0.17449936  0.67627176  0.68370142  1
  Zn  Zn86  1  0.69755381  0.18488954  0.18216061  1
  Zn  Zn87  1  0.68739161  0.18654767  0.69027118  1
  Zn  Zn88  1  0.69760559  0.66549145  0.17837780  1
  Zn  Zn89  1  0.69046069  0.69192106  0.67927877  1
  Zn  Zn90  1  0.30510234  0.30858038  0.32018230  1
  Zn  Zn91  1  0.30841222  0.31282479  0.80919951  1
  Zn  Zn92  1  0.31722219  0.81879443  0.31957462  1
  Zn  Zn93  1  0.31332191  0.81360533  0.81264120  1
  Zn  Zn94  1  0.80535947  0.31628109  0.31298328  1
  Zn  Zn95  1  0.81608095  0.31516851  0.80712888  1
  Zn  Zn96  1  0.81219610  0.82811474  0.27683561  1
  Zn  Zn97  1  0.76255600  0.86450564  0.86055191  1
  Zn  Zn98  1  0.18641228  0.43948574  0.43050366  1
  Zn  Zn99  1  0.18430061  0.43343752  0.93970316  1
  Zn  Zn100  1  0.18919614  0.93726471  0.43884139  1
  Zn  Zn101  1  0.18618905  0.93305114  0.94317419  1
  Zn  Zn102  1  0.68376650  0.43516084  0.44580773  1
  Zn  Zn103  1  0.68944394  0.43891604  0.93039910  1
  Zn  Zn104  1  0.69379126  0.92098733  0.42427223  1
  Zn  Zn105  1  0.61881996  0.90474128  0.98786064  1
  Zn  Zn106  1  0.31289566  0.06238677  0.05895669  1
  Zn  Zn107  1  0.31527166  0.06251142  0.56975217  1
  Zn  Zn108  1  0.30816547  0.56664748  0.06441470  1
  Zn  Zn109  1  0.31249461  0.55668440  0.55719827  1
  Zn  Zn110  1  0.81394546  0.06681565  0.05968045  1
  Zn  Zn111  1  0.81406074  0.05536462  0.56197479  1
  Zn  Zn112  1  0.82552834  0.60277366  0.04506382  1
  Zn  Zn113  1  0.81911756  0.54636821  0.56852525  1
  Zn  Zn114  1  0.44558409  0.43366222  0.18619158  1
  Zn  Zn115  1  0.42203668  0.43017324  0.69063887  1
  Zn  Zn116  1  0.45724150  0.92318041  0.18329586  1
  Zn  Zn117  1  0.46267796  0.95789063  0.73103548  1
  Zn  Zn118  1  0.93987984  0.44413897  0.18239706  1
  Zn  Zn119  1  0.91822349  0.44046822  0.68615442  1
  Zn  Zn120  1  0.98112679  0.96193776  0.21973603  1
  Zn  Zn121  1  0.93363569  0.93444691  0.69761355  1
  Zn  Zn122  1  0.06510959  0.07818307  0.30936976  1
  Zn  Zn123  1  0.05343745  0.06092848  0.80884565  1
  Zn  Zn124  1  0.07422956  0.56960472  0.31088159  1
  Zn  Zn125  1  0.05916149  0.56793632  0.80685056  1
  Zn  Zn126  1  0.57698292  0.03906927  0.33529132  1
  Zn  Zn127  1  0.56249943  0.06295578  0.81892112  1
  Zn  Zn128  1  0.56359403  0.56147957  0.31944164  1
  Zn  Zn129  1  0.55353870  0.55503666  0.80897127  1
  Zn  Zn130  1  0.44071951  0.18337712  0.43952260  1
  Zn  Zn131  1  0.43661354  0.19243222  0.93879966  1
  Zn  Zn132  1  0.44919184  0.69449569  0.43648779  1
  Zn  Zn133  1  0.43238938  0.68546067  0.93341456  1
  Zn  Zn134  1  0.94213045  0.18199852  0.43429936  1
  Zn  Zn135  1  0.93885325  0.19637282  0.93957505  1
  Zn  Zn136  1  0.93751396  0.67923071  0.43626412  1
  Zn  Zn137  1  0.93218424  0.70191946  0.94637990  1
  Zn  Zn138  1  0.06006866  0.31673797  0.06024172  1
  Zn  Zn139  1  0.06402587  0.32083670  0.56037116  1
  Zn  Zn140  1  0.06498443  0.81589140  0.06502663  1
  Zn  Zn141  1  0.06222078  0.81530360  0.55757141  1
  Zn  Zn142  1  0.55711158  0.30912875  0.05429155  1
  Zn  Zn143  1  0.55715678  0.30811839  0.56762451  1
  Zn  Zn144  1  0.60004529  0.81310118  0.17642253  1
  Zn  Zn145  1  0.56176787  0.79755593  0.53761382  1
  O  O146  1  0.11158454  0.11900431  0.13057435  1
  O  O147  1  0.11487758  0.13504906  0.61181449  1
  O  O148  1  0.11801577  0.62184932  0.12513824  1
  O  O149  1  0.12813737  0.59945912  0.61574055  1
  O  O150  1  0.61479040  0.12509900  0.12144349  1
  O  O151  1  0.60664522  0.13476498  0.62658929  1
  O  O152  1  0.61017570  0.61712061  0.10861642  1
  O  O153  1  0.60906096  0.61149959  0.63156033  1
  O  O154  1  0.39208178  0.35285712  0.38907481  1
  O  O155  1  0.37436847  0.38346115  0.87963286  1
  O  O156  1  0.38850482  0.86025638  0.40207257  1
  O  O157  1  0.37452565  0.86375954  0.89166214  1
  O  O158  1  0.87618069  0.38180105  0.38009514  1
  O  O159  1  0.87820088  0.38822277  0.87852858  1
  O  O160  1  0.91176908  0.86773362  0.33186210  1
  O  O161  1  0.88292333  0.88145424  0.87679746  1
  O  O162  1  0.24635134  0.02039900  0.38268136  1
  O  O163  1  0.24445495  -0.00745600  0.86453053  1
  O  O164  1  0.25127992  0.51355279  0.36577148  1
  O  O165  1  0.25589244  0.49475763  0.87224964  1
  O  O166  1  0.74407026  0.01371677  0.37031938  1
  O  O167  1  0.77009912  -0.00375598  0.85868554  1
  O  O168  1  0.74488120  0.49179475  0.36182814  1
  O  O169  1  0.75783183  0.51162473  0.87085887  1
  O  O170  1  0.23983844  0.51152690  0.14271871  1
  O  O171  1  0.24893275  0.49328092  0.62549587  1
  O  O172  1  0.23590967  1.01284024  0.13429447  1
  O  O173  1  0.24701285  0.98691954  0.62857477  1
  O  O174  1  0.72871665  0.49971305  0.12579587  1
  O  O175  1  0.81164942  0.47375446  0.65146231  1
  O  O176  1  0.74258449  1.01105925  0.12749092  1
  O  O177  1  0.75380356  0.98899961  0.63319546  1
  O  O178  1  0.01252071  0.37724701  0.24808679  1
  O  O179  1  -0.01488454  0.37130251  0.76169675  1
  O  O180  1  -0.02920672  0.86169637  0.28129758  1
  O  O181  1  -0.00203816  0.85894625  0.76305232  1
  O  O182  1  0.49482498  0.36085367  0.26479485  1
  O  O183  1  0.49949094  0.36493326  0.75467967  1
  O  O184  1  0.52367680  0.85779977  0.24761206  1
  O  O185  1  0.48885228  0.84732025  0.73115875  1
  O  O186  1  0.49508307  0.14343615  0.23707902  1
  O  O187  1  0.48876081  0.13631007  0.74536570  1
  O  O188  1  0.50278886  0.62352882  0.24416796  1
  O  O189  1  0.48588104  0.62208025  0.73930211  1
  O  O190  1  0.98469952  0.12991541  0.23602545  1
  O  O191  1  1.00157958  0.13836643  0.73446635  1
  O  O192  1  0.99281413  0.62231405  0.24334668  1
  O  O193  1  0.98396805  0.64278657  0.76270557  1
  O  O194  1  0.36474877  0.25596252  0.00712280  1
  O  O195  1  0.38037145  0.25442617  0.51283234  1
  O  O196  1  0.36497666  0.74941968  0.00150958  1
  O  O197  1  0.36420979  0.74762060  0.51253195  1
  O  O198  1  0.86502814  0.26169617  0.00548309  1
  O  O199  1  0.88244136  0.25882941  0.50098559  1
  O  O200  1  0.85061188  0.71704209  0.02281220  1
  O  O201  1  0.88527529  0.74086022  0.51695559  1
  O  O202  1  0.12057424  0.24446718  0.48991562  1
  O  O203  1  0.12894078  0.25453684  0.98886720  1
  O  O204  1  0.13667169  0.74654794  0.49418872  1
  O  O205  1  0.13326326  0.74292750  0.99568846  1
  O  O206  1  0.62078894  0.24218812  0.49460706  1
  O  O207  1  0.64123334  0.24814452  1.00453830  1
  O  O208  1  0.64287482  0.71585937  0.53099245  1
  O  O209  1  0.60793708  0.73321398  0.97485584  1
  O  O210  1  0.49264302  0.25140681  0.13522662  1
  O  O211  1  0.48879176  0.24126407  0.63675352  1
  O  O212  1  0.49684897  0.73085189  0.12749646  1
  O  O213  1  0.48722804  0.72686007  0.63107470  1
  O  O214  1  0.98543007  0.24896676  0.11996122  1
  O  O215  1  1.00106932  0.24856847  0.63158486  1
  O  O216  1  1.00660430  0.73950128  0.13253606  1
  O  O217  1  0.99772901  0.75579074  0.63795585  1
  O  O218  1  0.02110013  0.23618064  0.36829239  1
  O  O219  1  0.00421509  0.26220984  0.86340351  1
  O  O220  1  0.01951530  0.74073157  0.38082088  1
  O  O221  1  0.00227881  0.75935419  0.87314703  1
  O  O222  1  0.51455496  0.24584847  0.36374757  1
  O  O223  1  0.48620198  0.26244616  0.85872579  1
  O  O224  1  0.52757551  0.77275281  0.42723072  1
  O  O225  1  0.50137956  0.73742993  0.85486235  1
  O  O226  1  0.23844315  0.12409237  0.50236148  1
  O  O227  1  0.24393360  0.13982424  1.00350984  1
  O  O228  1  0.25205465  0.62874994  0.48787902  1
  O  O229  1  0.23422364  0.63754709  1.00458553  1
  O  O230  1  0.76272519  0.12208862  0.48170315  1
  O  O231  1  0.74093706  0.14057308  1.00226702  1
  O  O232  1  0.73740350  0.59081830  0.50759869  1
  O  O233  1  0.72615004  0.62415257  0.98484417  1
  O  O234  1  0.25812352  0.36249405  -0.00251492  1
  O  O235  1  0.26653965  0.37494551  0.48583652  1
  O  O236  1  0.24656590  0.85485688  0.00371737  1
  O  O237  1  0.25776266  0.86636448  0.51146233  1
  O  O238  1  0.75682400  0.36852583  -0.00118278  1
  O  O239  1  0.77121994  0.38307529  0.49864262  1
  O  O240  1  0.72696272  0.86780987  -0.02851945  1
  O  O241  1  0.74919121  0.88624022  0.51691570  1
  O  O242  1  0.13244423  0.48820503  0.24727837  1
  O  O243  1  0.13011678  0.50694576  0.74562600  1
  O  O244  1  0.09775654  0.99126638  0.23610586  1
  O  O245  1  0.13919911  1.01199381  0.74955842  1
  O  O246  1  0.63381820  0.50705595  0.24279962  1
  O  O247  1  0.61961708  0.48480130  0.74847134  1
  O  O248  1  0.62411106  1.01204900  0.23466826  1
  O  O249  1  0.64232135  1.01041205  0.75528192  1
  O  O250  1  0.41264654  -0.00156100  0.26921830  1
  O  O251  1  0.36081221  0.01764577  0.74381481  1
  O  O252  1  0.36422364  0.49165680  0.24408124  1
  O  O253  1  0.36838844  0.50653058  0.75890772  1
  O  O254  1  0.87723074  0.01322767  0.24867538  1
  O  O255  1  0.87545178  0.00894580  0.75776291  1
  O  O256  1  0.87062454  0.49594158  0.26155408  1
  O  O257  1  0.88887333  0.52428905  0.76767874  1
  O  O258  1  0.12677503  0.36346419  0.36519387  1
  O  O259  1  0.10776975  0.36958184  0.87937939  1
  O  O260  1  0.13614403  0.85820040  0.37488285  1
  O  O261  1  0.11343450  0.85993767  0.88107575  1
  O  O262  1  0.61113083  0.35781567  0.38498108  1
  O  O263  1  0.60617709  0.37960474  0.87084955  1
  O  O264  1  0.71153459  0.84468537  0.32794151  1
  O  O265  1  0.61334278  0.85753452  0.86387399  1
  O  O266  1  0.38495858  0.14012517  0.12229608  1
  O  O267  1  0.38157220  0.13588125  0.63082306  1
  O  O268  1  0.39014508  0.63085830  0.11935519  1
  O  O269  1  0.37316914  0.62481363  0.63680686  1
  O  O270  1  0.88026064  0.13872403  0.13138719  1
  O  O271  1  0.89255687  0.13914167  0.61412461  1
  O  O272  1  0.89483446  0.60940147  0.13906464  1
  O  O273  1  0.86984936  0.63569403  0.63670399  1
  O  O274  1  0.26096476  0.24844705  0.11991617  1
  O  O275  1  0.26109522  0.24441708  0.62690462  1
  O  O276  1  0.26696793  0.74217768  0.11672003  1
  O  O277  1  0.25042292  0.74442459  0.61976075  1
  O  O278  1  0.76398001  0.25504019  0.11544609  1
  O  O279  1  0.76510476  0.24235332  0.62198770  1
  O  O280  1  0.69859515  0.76718872  0.13682778  1
  O  O281  1  0.76503565  0.76795363  0.63258996  1
  O  O282  1  0.23334719  0.23566594  0.37103694  1
  O  O283  1  0.23166609  0.25516465  0.87899809  1
  O  O284  1  0.25060593  0.73987599  0.38282723  1
  O  O285  1  0.23368133  0.75210957  0.88008710  1
  O  O286  1  0.73402103  0.25039775  0.37414650  1
  O  O287  1  0.76032324  0.25063813  0.88713965  1
  O  O288  1  0.68800191  0.75477611  0.34189865  1
  O  O289  1  0.72291376  0.73920088  0.86243212  1
  O  O290  1  0.00346172  0.13752698  0.01530594  1
  O  O291  1  0.00964650  0.11835994  0.50805836  1
  O  O292  1  0.01421720  0.63250370  0.01691703  1
  O  O293  1  0.00080911  0.59957690  0.49094390  1
  O  O294  1  0.51267789  0.14735333  0.01378317  1
  O  O295  1  0.49508886  0.11160375  0.51206225  1
  O  O296  1  0.50534065  0.61633512  -0.00657574  1
  O  O297  1  0.49800534  0.61157300  0.51708201  1
  O  O298  1  0.49407313  0.37440092  0.49288744  1
  O  O299  1  0.48402294  0.36329422  0.98196197  1
  O  O300  1  0.47834920  0.87956536  0.53738716  1
  O  O301  1  0.50244385  0.88723688  0.98671660  1
  O  O302  1  0.98792841  0.38775496  0.49867047  1
  O  O303  1  0.98483219  0.36975160  0.98316325  1
  O  O304  1  1.01443222  0.89562522  0.49700693  1
  O  O305  1  0.99625746  0.86772761  0.98916547  1
  O  O306  1  0.50236459  0.47899324  0.38066308  1
  O  O307  1  0.48194130  0.48283548  0.86834763  1
  O  O308  1  0.46268862  0.99697773  0.33468857  1
  O  O309  1  0.48810097  0.98563209  0.83789848  1
  O  O310  1  0.99777527  0.49346145  0.36657455  1
  O  O311  1  0.99491153  0.49061430  0.87407934  1
  O  O312  1  1.00158415  1.00990546  0.37892154  1
  O  O313  1  0.99250167  0.98453868  0.86982059  1
  O  O314  1  -0.00419593  0.01790024  0.11650915  1
  O  O315  1  -0.00057118  0.01590172  0.62938263  1
  O  O316  1  0.01876540  0.50905696  0.12770403  1
  O  O317  1  -0.00453891  0.49929534  0.61787702  1
  O  O318  1  0.49435914  0.02353863  0.12534238  1
  O  O319  1  0.49949822  0.01592143  0.63481615  1
  O  O320  1  0.51107026  0.51017874  0.13176434  1
  O  O321  1  0.48580749  0.50448334  0.62262576  1
  O  O322  1  0.24479321  0.38960315  0.25956295  1
  O  O323  1  0.25815277  0.37668100  0.73505602  1
  O  O324  1  0.26797476  0.89480141  0.25788484  1
  O  O325  1  0.25546875  0.88741808  0.74247507  1
  O  O326  1  0.75167067  0.38996411  0.24032851  1
  O  O327  1  0.72932783  0.36580633  0.75799178  1
  O  O328  1  0.82913636  0.86550112  0.16072234  1
  O  O329  1  0.75185796  0.89184315  0.74103222  1
  O  O330  1  0.25526846  0.12074871  0.25775938  1
  O  O331  1  0.25664115  0.11690393  0.74871823  1
  O  O332  1  0.25493490  0.61650999  0.26206072  1
  O  O333  1  0.25851985  0.62928363  0.75203490  1
  O  O334  1  0.76688747  0.13236240  0.25565235  1
  O  O335  1  0.75822980  0.11225609  0.73708128  1
  O  O336  1  0.76822592  0.60077828  0.23845952  1
  O  O337  1  0.76393777  0.63383867  0.75637359  1
  O  O338  1  0.36107663  0.13739834  0.37269331  1
  O  O339  1  0.37482663  0.13241559  0.86192127  1
  O  O340  1  0.36973868  0.63282647  0.37905024  1
  O  O341  1  0.37477975  0.60912754  0.86477945  1
  O  O342  1  0.86671306  0.13425500  0.36088972  1
  O  O343  1  0.89050952  0.11700008  0.87156434  1
  O  O344  1  0.88114789  0.60480262  0.36230780  1
  O  O345  1  0.86121401  0.62546255  0.87847094  1
  O  O346  1  0.12331671  0.38239983  0.13441891  1
  O  O347  1  0.11906832  0.39461742  0.62577882  1
  O  O348  1  0.12431485  0.88850190  0.13076085  1
  O  O349  1  0.14205343  0.86373927  0.62713387  1
  O  O350  1  0.61597392  0.38890445  0.11448476  1
  O  O351  1  0.62197118  0.36983258  0.63601117  1
  O  O352  1  0.61356838  0.90992942  0.10935874  1
  O  O353  1  0.63163127  0.86526782  0.61698657  1
  O  O354  1  0.13013746  0.26550950  0.25092205  1
  O  O355  1  0.11718569  0.25168767  0.76201477  1
  O  O356  1  0.13376472  0.75543772  0.26021331  1
  O  O357  1  0.11216794  0.73651472  0.76601496  1
  O  O358  1  0.61733316  0.25166804  0.24283300  1
  O  O359  1  0.60750916  0.25395327  0.74916973  1
  O  O360  1  0.63950932  0.72970334  0.28887197  1
  O  O361  1  0.60728538  0.73633687  0.75131719  1
  O  O362  1  0.37441245  0.25452616  0.23647507  1
  O  O363  1  0.37677231  0.24132339  0.74017149  1
  O  O364  1  0.37371149  0.75587310  0.23343000  1
  O  O365  1  0.37819279  0.73349540  0.74749232  1
  O  O366  1  0.87195388  0.25942711  0.23508304  1
  O  O367  1  0.88241214  0.25029002  0.73361141  1
  O  O368  1  0.86029421  0.72479853  0.25687941  1
  O  O369  1  0.88628620  0.74405852  0.73930423  1
  O  O370  1  0.38538015  0.47942368  0.50244011  1
  O  O371  1  0.36240873  0.49193810  0.98872781  1
  O  O372  1  0.37174554  0.98454317  0.50585284  1
  O  O373  1  0.37013756  0.98234625  1.00583741  1
  O  O374  1  0.88800232  0.49162627  0.48336514  1
  O  O375  1  0.86739244  0.49725265  0.99092435  1
  O  O376  1  0.89566046  1.00405521  0.50023850  1
  O  O377  1  0.87078881  1.00729732  0.98253520  1
  O  O378  1  0.12901703  0.00082387  0.01702986  1
  O  O379  1  0.11807101  0.01735984  0.49602938  1
  O  O380  1  0.13593182  0.51429446  0.00948128  1
  O  O381  1  0.11332334  0.49256117  0.50089875  1
  O  O382  1  0.62647011  0.02642628  0.00910505  1
  O  O383  1  0.58199979  -0.04431349  0.42149802  1
  O  O384  1  0.62294950  0.50571289  0.00405835  1
  O  O385  1  0.60630452  0.49768288  0.50639532  1
  O  O386  1  0.38356210  0.36359766  0.11408138  1
  O  O387  1  0.37752548  0.35913124  0.61236663  1
  O  O388  1  0.39614364  0.85525381  0.10675064  1
  O  O389  1  0.35498495  0.85399868  0.62332389  1
  O  O390  1  0.87827808  0.37170570  0.11426712  1
  O  O391  1  0.88191129  0.35522565  0.60940759  1
  O  O392  1  0.89790212  0.88610845  0.13678425  1
  O  O393  1  0.88196772  0.86496495  0.62134555  1
  O  O394  1  0.13523951  0.13394624  0.38457052  1
  O  O395  1  0.10931500  0.14219712  0.87747507  1
  O  O396  1  0.14054314  0.63731865  0.37701726  1
  O  O397  1  0.11260084  0.63416400  0.89187270  1
  O  O398  1  0.63836284  0.13526870  0.37040036  1
  O  O399  1  0.61538402  0.13293867  0.88982709  1
  O  O400  1  0.61723247  0.61634234  0.40188060  1
  O  O401  1  0.62409143  0.61609460  0.87758163  1
