# generated using pymatgen
data_V73Zn73O256
_symmetry_space_group_name_H-M   'P 1'
_cell_length_a   16.83466302
_cell_length_b   16.86034313
_cell_length_c   16.85916574
_cell_angle_alpha   90.23898646
_cell_angle_beta   90.20603704
_cell_angle_gamma   90.17040490
_symmetry_Int_Tables_number   1
_chemical_formula_structural   V73Zn73O256
_chemical_formula_sum   'V73 Zn73 O256'
_cell_volume   4785.18122936
_cell_formula_units_Z   1
loop_
 _symmetry_equiv_pos_site_id
 _symmetry_equiv_pos_as_xyz
  1  'x, y, z'
loop_
 _atom_site_type_symbol
 _atom_site_label
 _atom_site_symmetry_multiplicity
 _atom_site_fract_x
 _atom_site_fract_y
 _atom_site_fract_z
 _atom_site_occupancy
  V  V0  1  0.14668528  0.74938651  0.37800294  1
  V  V1  1  0.62354769  0.50638751  0.65381782  1
  V  V2  1  0.12231998  0.25370807  0.37479898  1
  V  V3  1  0.49098479  0.63652153  0.14221822  1
  V  V4  1  0.49815167  0.09927945  0.61740109  1
  V  V5  1  0.00338596  0.85947047  0.38074185  1
  V  V6  1  0.12628874  0.37225543  0.24175535  1
  V  V7  1  0.14494092  0.62608501  0.50301193  1
  V  V8  1  0.50154193  0.75210589  0.72696665  1
  V  V9  1  0.37502349  0.12219946  0.74398877  1
  V  V10  1  -0.00986501  0.36714616  0.85915108  1
  V  V11  1  0.62709443  0.88033411  0.73189533  1
  V  V12  1  0.88072871  0.62145427  0.25562923  1
  V  V13  1  0.62009151  0.50306903  0.12330755  1
  V  V14  1  0.75478101  0.50495782  0.26413426  1
  V  V15  1  0.39700542  0.49923575  0.38772411  1
  V  V16  1  0.25423444  0.25591342  0.50870737  1
  V  V17  1  0.87657019  0.24828833  0.12511273  1
  V  V18  1  0.12535251  0.50558276  0.65261838  1
  V  V19  1  0.00872678  0.74497686  0.24429521  1
  V  V20  1  0.00447277  0.51086199  0.00392104  1
  V  V21  1  0.61487955  0.61867014  0.50435085  1
  V  V22  1  0.34738237  0.75603693  0.61485583  1
  V  V23  1  0.14418104  0.34759223  0.75641763  1
  V  V24  1  0.62247867  0.10640970  0.50133598  1
  V  V25  1  0.88079796  0.13336359  0.74741549  1
  V  V26  1  0.60773570  0.75074677  0.37512739  1
  V  V27  1  0.24786357  -0.00922421  0.74697732  1
  V  V28  1  0.49295546  -0.00193602  0.00922635  1
  V  V29  1  0.49881885  0.38181350  0.88910728  1
  V  V30  1  0.87959942  -0.00272895  0.88655734  1
  V  V31  1  0.25424188  0.24587564  -0.01554469  1
  V  V32  1  0.11623970  -0.00403674  0.62629478  1
  V  V33  1  0.74468385  0.12056425  0.87386436  1
  V  V34  1  0.88618631  -0.00035215  0.37961201  1
  V  V35  1  0.61664685  0.37537830  0.25267713  1
  V  V36  1  0.38192472  -0.00161005  0.86737851  1
  V  V37  1  0.50383864  0.25704333  0.72970088  1
  V  V38  1  0.75151869  0.37073836  0.63235513  1
  V  V39  1  0.37602858  0.23344055  0.12609566  1
  V  V40  1  0.11252852  0.86553350  0.74486546  1
  V  V41  1  0.87871201  0.12417834  0.24648107  1
  V  V42  1  0.25248845  0.50312597  0.27043537  1
  V  V43  1  0.86358941  0.50782474  0.87330842  1
  V  V44  1  0.61859865  0.11805289  0.01364049  1
  V  V45  1  0.61854642  0.24950285  0.87154418  1
  V  V46  1  0.61381374  0.62213283  0.00231430  1
  V  V47  1  0.75667920  0.74063116  0.49381468  1
  V  V48  1  0.49838770  0.23234028  0.24491028  1
  V  V49  1  0.75016890  0.12418099  0.37847548  1
  V  V50  1  0.12933059  0.75581569  0.89770848  1
  V  V51  1  0.25243675  0.12045565  0.35994442  1
  V  V52  1  -0.00413845  0.87515963  0.89002628  1
  V  V53  1  0.75168576  -0.01709641  0.23980074  1
  V  V54  1  0.86851383  0.87959634  0.50416676  1
  V  V55  1  0.12204580  0.11942936  0.49735461  1
  V  V56  1  0.62113551  0.25201224  0.38237779  1
  V  V57  1  -0.00333988  0.13842435  0.62184332  1
  V  V58  1  0.75018964  0.37896209  0.12105909  1
  V  V59  1  0.87923592  0.37749190  0.00202366  1
  V  V60  1  -0.00241738  0.25569340  0.25394202  1
  V  V61  1  0.60575866  0.86863600  0.24539275  1
  V  V62  1  0.87263946  0.62949008  0.74886370  1
  V  V63  1  0.74998609  0.76301444  0.01094398  1
  V  V64  1  0.87657932  0.75575019  0.12372821  1
  V  V65  1  0.87135957  0.76719659  0.63807412  1
  V  V66  1  0.40198164  0.37017082  0.50497044  1
  V  V67  1  0.09270107  0.10257332  0.00202853  1
  V  V68  1  0.44389746  0.82180976  0.92234631  1
  V  V69  1  0.62581552  0.76460278  0.87798592  1
  V  V70  1  0.26638822  0.38273887  0.12269655  1
  V  V71  1  0.75037090  -0.00569751  0.73670250  1
  V  V72  1  0.39049206  0.87639753  0.49090213  1
  Zn  Zn73  1  0.21170977  0.92094704  0.19104871  1
  Zn  Zn74  1  0.17210874  0.60305118  -0.02062323  1
  Zn  Zn75  1  0.33548483  -0.03022550  0.35713507  1
  Zn  Zn76  1  -0.00486510  0.62325394  0.61944790  1
  Zn  Zn77  1  -0.01922822  0.46665724  0.48846275  1
  Zn  Zn78  1  0.74569045  0.24913463  0.00021448  1
  Zn  Zn79  1  0.73937438  0.62445140  0.87908294  1
  Zn  Zn80  1  0.36107842  0.60615115  0.75861790  1
  Zn  Zn81  1  0.10700033  0.54429965  0.14569288  1
  Zn  Zn82  1  0.18800597  0.18385869  0.17805689  1
  Zn  Zn83  1  0.19198723  0.17887945  0.68585665  1
  Zn  Zn84  1  0.14731336  0.74329406  0.10998317  1
  Zn  Zn85  1  0.19178977  0.68203822  0.69777968  1
  Zn  Zn86  1  0.69260197  0.18751535  0.19370753  1
  Zn  Zn87  1  0.68499033  0.18235051  0.68379413  1
  Zn  Zn88  1  0.68807048  0.68922832  0.19160946  1
  Zn  Zn89  1  0.69361552  0.68845050  0.68698792  1
  Zn  Zn90  1  0.31593315  0.31557345  0.31903580  1
  Zn  Zn91  1  0.33309561  0.31539420  0.80305016  1
  Zn  Zn92  1  0.33406537  0.81028129  0.30056835  1
  Zn  Zn93  1  0.29857652  0.78922419  0.79966939  1
  Zn  Zn94  1  0.80501330  0.31286320  0.31354167  1
  Zn  Zn95  1  0.80694525  0.31355781  0.80857046  1
  Zn  Zn96  1  0.82001975  0.80512673  0.31662796  1
  Zn  Zn97  1  0.80662481  0.81484023  0.82092493  1
  Zn  Zn98  1  0.15959265  0.42988881  0.45165655  1
  Zn  Zn99  1  0.15955947  0.39586826  0.95649501  1
  Zn  Zn100  1  0.18261709  0.93598992  0.44237003  1
  Zn  Zn101  1  0.19406043  0.94153401  0.93204265  1
  Zn  Zn102  1  0.69396461  0.43626486  0.44623332  1
  Zn  Zn103  1  0.67662055  0.44379301  0.81444243  1
  Zn  Zn104  1  0.69151562  0.93171592  0.42630197  1
  Zn  Zn105  1  0.68768504  0.94254095  0.94265515  1
  Zn  Zn106  1  0.31146562  0.06752266  0.05166011  1
  Zn  Zn107  1  0.30517782  0.05511105  0.55738601  1
  Zn  Zn108  1  0.27991999  0.60727889  0.11854077  1
  Zn  Zn109  1  0.32224752  0.54577916  0.58533909  1
  Zn  Zn110  1  0.80833085  0.06114808  0.06407541  1
  Zn  Zn111  1  0.81363826  0.06566131  0.55965847  1
  Zn  Zn112  1  0.80870138  0.57196885  0.06617817  1
  Zn  Zn113  1  0.80396343  0.55575445  0.56645103  1
  Zn  Zn114  1  0.43401013  0.44713035  0.19496732  1
  Zn  Zn115  1  0.44008205  0.43997403  0.67994410  1
  Zn  Zn116  1  0.41844616  0.94215738  0.19891593  1
  Zn  Zn117  1  0.43464725  0.92510583  0.68355908  1
  Zn  Zn118  1  0.94111852  0.43982071  0.18828601  1
  Zn  Zn119  1  0.93015176  0.44516432  0.67839714  1
  Zn  Zn120  1  0.94457136  0.93371747  0.19750545  1
  Zn  Zn121  1  0.94040388  0.94492300  0.69419886  1
  Zn  Zn122  1  0.06678894  0.05958739  0.30475247  1
  Zn  Zn123  1  0.06509789  0.06808906  0.81673506  1
  Zn  Zn124  1  0.07538341  0.56006811  0.32606932  1
  Zn  Zn125  1  0.05419721  0.57293455  0.82306807  1
  Zn  Zn126  1  0.57638911  0.06175602  0.30120866  1
  Zn  Zn127  1  0.55884835  0.05724302  0.81154179  1
  Zn  Zn128  1  0.56916862  0.56776098  0.31915327  1
  Zn  Zn129  1  0.52920265  0.57975192  0.82954382  1
  Zn  Zn130  1  0.43674179  0.18355203  0.43619962  1
  Zn  Zn131  1  0.43540024  0.18529280  0.93672148  1
  Zn  Zn132  1  0.42726575  0.68277174  0.44882985  1
  Zn  Zn133  1  0.38039487  0.63696612  0.95672796  1
  Zn  Zn134  1  0.93753716  0.19222229  0.43715905  1
  Zn  Zn135  1  0.93678928  0.18527559  0.93935113  1
  Zn  Zn136  1  0.94596640  0.61677041  0.43890422  1
  Zn  Zn137  1  0.94072688  0.69308988  0.94115084  1
  Zn  Zn138  1  0.08142978  0.27421174  0.07396456  1
  Zn  Zn139  1  0.06598559  0.31758675  0.57526405  1
  Zn  Zn140  1  0.07772403  0.91376490  0.07163377  1
  Zn  Zn141  1  0.04369222  0.77678767  0.54167858  1
  Zn  Zn142  1  0.56081734  0.31126560  0.06373571  1
  Zn  Zn143  1  0.59394883  0.33035850  0.56296630  1
  Zn  Zn144  1  0.55862812  0.81092475  0.07133234  1
  Zn  Zn145  1  0.57209581  0.82551505  0.55083788  1
  O  O146  1  0.11801433  0.15932357  0.09128660  1
  O  O147  1  0.11235859  0.12010543  0.61914095  1
  O  O148  1  0.15850304  0.63083128  0.09757296  1
  O  O149  1  0.12560702  0.62112712  0.62580123  1
  O  O150  1  0.63279593  0.12789068  0.11180567  1
  O  O151  1  0.61902559  0.12029783  0.60851085  1
  O  O152  1  0.61913638  0.62349864  0.12136279  1
  O  O153  1  0.63624298  0.61745397  0.61344293  1
  O  O154  1  0.37129848  0.38397589  0.39271852  1
  O  O155  1  0.39987404  0.38320587  0.86633215  1
  O  O156  1  0.38640610  0.86457082  0.38416732  1
  O  O157  1  0.37575909  0.87601423  0.86591053  1
  O  O158  1  0.86397674  0.34311851  0.41537104  1
  O  O159  1  0.87271003  0.38634670  0.88333011  1
  O  O160  1  0.88305460  0.88076187  0.38424660  1
  O  O161  1  0.88262030  0.88748313  0.87173869  1
  O  O162  1  0.22921992  0.01525650  0.36755670  1
  O  O163  1  0.26722761  -0.00247154  0.86123349  1
  O  O164  1  0.23168623  0.49401703  0.36882636  1
  O  O165  1  0.23947729  0.48086066  0.87424725  1
  O  O166  1  0.76392923  0.00627005  0.36591797  1
  O  O167  1  0.75721329  0.00649097  0.87000578  1
  O  O168  1  0.75369386  0.48878181  0.36274891  1
  O  O169  1  0.76073197  0.50184427  0.88234312  1
  O  O170  1  0.25131746  0.48384237  0.13975363  1
  O  O171  1  0.21604200  0.48923428  0.61404961  1
  O  O172  1  0.26601758  0.96423323  0.08527042  1
  O  O173  1  0.23076846  1.00522835  0.63514378  1
  O  O174  1  0.74201552  0.49362032  0.13258102  1
  O  O175  1  0.73211105  0.49372047  0.62417661  1
  O  O176  1  0.75569089  0.99607209  0.14048561  1
  O  O177  1  0.75461962  1.00411179  0.63808384  1
  O  O178  1  0.00806815  0.36497767  0.24595098  1
  O  O179  1  -0.02754143  0.37372076  0.76104634  1
  O  O180  1  -0.01061137  0.85334489  0.26801178  1
  O  O181  1  0.00894593  0.88369359  0.76481127  1
  O  O182  1  0.51486846  0.37253348  0.24798678  1
  O  O183  1  0.49815623  0.35738703  0.74821879  1
  O  O184  1  0.50606129  0.87630744  0.24390722  1
  O  O185  1  0.52202102  0.87545148  0.74416164  1
  O  O186  1  0.51369102  0.13458394  0.23580046  1
  O  O187  1  0.49931411  0.12277589  0.72960836  1
  O  O188  1  0.50843194  0.62518214  0.24180033  1
  O  O189  1  0.50467100  0.65302552  0.74173904  1
  O  O190  1  0.98467137  0.13415208  0.25385074  1
  O  O191  1  0.98706626  0.12258751  0.74413179  1
  O  O192  1  0.99056803  0.63130508  0.25407897  1
  O  O193  1  0.97732852  0.63248235  0.75867776  1
  O  O194  1  0.37273858  0.24350316  0.01713394  1
  O  O195  1  0.36257987  0.25905619  0.48810501  1
  O  O196  1  0.39290228  0.75331988  -0.02803663  1
  O  O197  1  0.37077036  0.76422927  0.50542303  1
  O  O198  1  0.86961330  0.25626905  0.00917081  1
  O  O199  1  0.86819389  0.28546788  0.46880120  1
  O  O200  1  0.86338846  0.74455120  0.01308555  1
  O  O201  1  0.86461943  0.76022627  0.51281239  1
  O  O202  1  0.13068628  0.23673096  0.49265967  1
  O  O203  1  0.15030718  0.27868256  0.98233957  1
  O  O204  1  0.14493525  0.75385157  0.48496755  1
  O  O205  1  0.11283746  0.76179292  0.99591421  1
  O  O206  1  0.61888088  0.23726488  0.48281202  1
  O  O207  1  0.62220585  0.23418979  0.99082553  1
  O  O208  1  0.63846981  0.75063718  0.49181106  1
  O  O209  1  0.63217021  0.74895514  0.99968428  1
  O  O210  1  0.48843147  0.25363979  0.13445864  1
  O  O211  1  0.51964725  0.24829622  0.63120226  1
  O  O212  1  0.49311644  0.73696215  0.12623951  1
  O  O213  1  0.51719305  0.75823221  0.62834408  1
  O  O214  1  0.98383001  0.25469339  0.13497774  1
  O  O215  1  1.00412622  0.23770447  0.63009071  1
  O  O216  1  0.99350248  0.74553949  0.14088970  1
  O  O217  1  0.97421115  0.74780457  0.62996974  1
  O  O218  1  0.00842441  0.24683367  0.36408864  1
  O  O219  1  -0.01422188  0.26865537  0.87937393  1
  O  O220  1  0.00438240  0.75539636  0.37222432  1
  O  O221  1  0.00122421  0.76954358  0.88047976  1
  O  O222  1  0.51284219  0.23718332  0.35976264  1
  O  O223  1  0.50855400  0.25422131  0.87303554  1
  O  O224  1  0.50898263  0.74710170  0.38173171  1
  O  O225  1  0.50772221  0.76682463  0.86028077  1
  O  O226  1  0.23737903  0.13046696  0.49185217  1
  O  O227  1  0.24576925  0.14409920  0.99829137  1
  O  O228  1  0.24339072  0.61938145  0.51696276  1
  O  O229  1  0.28450452  0.59522205  0.99857121  1
  O  O230  1  0.73814655  0.12106823  0.49040957  1
  O  O231  1  0.73637167  0.12128008  0.99102888  1
  O  O232  1  0.74569190  0.63882997  0.50149723  1
  O  O233  1  0.73582506  0.63920471  1.00247872  1
  O  O234  1  0.25978623  0.37203026  0.01826547  1
  O  O235  1  0.23638372  0.35465173  0.49862848  1
  O  O236  1  0.26404608  0.90858329  0.02481802  1
  O  O237  1  0.27058432  0.89140358  0.49524030  1
  O  O238  1  0.76054935  0.37285823  0.01377228  1
  O  O239  1  0.70953363  0.36455963  0.52888856  1
  O  O240  1  0.74576889  0.86291899  0.00342559  1
  O  O241  1  0.76284290  0.87146695  0.49725984  1
  O  O242  1  0.12847776  0.49044337  0.24649827  1
  O  O243  1  0.13173009  0.51965538  0.75320678  1
  O  O244  1  0.10818759  0.99761411  0.21562644  1
  O  O245  1  0.13012761  0.99919110  0.74753160  1
  O  O246  1  0.63860505  0.49417701  0.24818843  1
  O  O247  1  0.62678023  0.53017306  0.75506231  1
  O  O248  1  0.64134805  0.97950617  0.25768269  1
  O  O249  1  0.63854772  0.99131354  0.75439496  1
  O  O250  1  0.42726992  0.01748159  0.29889870  1
  O  O251  1  0.37019140  -0.00080663  0.74835351  1
  O  O252  1  0.36229785  0.48751807  0.27617579  1
  O  O253  1  0.35828876  0.51474068  0.69363727  1
  O  O254  1  0.87065315  0.00634010  0.25563417  1
  O  O255  1  0.86257857  0.00770060  0.75887047  1
  O  O256  1  0.86577452  0.50876717  0.24373983  1
  O  O257  1  0.87403814  0.51464552  0.76551735  1
  O  O258  1  0.13501443  0.35859995  0.35494165  1
  O  O259  1  0.10189631  0.38176368  0.85262750  1
  O  O260  1  0.11102312  0.86634875  0.37974083  1
  O  O261  1  0.11031354  0.87801363  0.87124147  1
  O  O262  1  0.63501276  0.35728358  0.36753272  1
  O  O263  1  0.62828175  0.35108286  0.87445474  1
  O  O264  1  0.62555502  0.86041069  0.36613990  1
  O  O265  1  0.63262272  0.86752455  0.87140542  1
  O  O266  1  0.36739783  0.13356733  0.13202944  1
  O  O267  1  0.39020831  0.11200404  0.62454626  1
  O  O268  1  0.39629241  0.60230763  0.12596758  1
  O  O269  1  0.36997029  0.65668327  0.61826476  1
  O  O270  1  0.86223472  0.13630510  0.13575161  1
  O  O271  1  0.88490503  0.12228904  0.63411862  1
  O  O272  1  0.87109550  0.63791068  0.13945942  1
  O  O273  1  0.86842868  0.63291426  0.64384814  1
  O  O274  1  0.26650169  0.25854576  0.12560357  1
  O  O275  1  0.24966068  0.23989740  0.60768677  1
  O  O276  1  0.28269010  0.73817270  0.09644032  1
  O  O277  1  0.24877186  0.76261523  0.62684194  1
  O  O278  1  0.75842824  0.26081308  0.12871532  1
  O  O279  1  0.74378617  0.26750189  0.64339239  1
  O  O280  1  0.75966954  0.75106224  0.12008584  1
  O  O281  1  0.76266706  0.75242131  0.61552288  1
  O  O282  1  0.23846977  0.23767090  0.37901196  1
  O  O283  1  0.27956306  0.25662579  0.88915380  1
  O  O284  1  0.24100449  0.76458288  0.35374695  1
  O  O285  1  0.22763131  0.78014308  0.89342400  1
  O  O286  1  0.73317105  0.23340522  0.36145809  1
  O  O287  1  0.73853944  0.23614259  0.87430375  1
  O  O288  1  0.75232672  0.75262073  0.39106901  1
  O  O289  1  0.74338160  0.75003885  0.89230208  1
  O  O290  1  -0.00892714  0.11254652  0.00758737  1
  O  O291  1  0.00200776  0.13186442  0.51223126  1
  O  O292  1  -0.00197670  0.61049312  -0.00282670  1
  O  O293  1  0.02685181  0.66009411  0.51084302  1
  O  O294  1  0.50918867  0.11294325  0.00017728  1
  O  O295  1  0.50871917  0.12263702  0.50764114  1
  O  O296  1  0.51262866  0.62778516  0.01365723  1
  O  O297  1  0.51661863  0.63555706  0.50632260  1
  O  O298  1  0.50165837  0.36083000  0.49818548  1
  O  O299  1  0.50298687  0.37320447  0.98993041  1
  O  O300  1  0.49164883  0.88484298  0.50019701  1
  O  O301  1  0.49877591  0.88143440  0.99495835  1
  O  O302  1  1.05105633  0.38197863  0.48839573  1
  O  O303  1  0.98577826  0.38284988  0.99296033  1
  O  O304  1  0.98692619  0.86579264  0.48845121  1
  O  O305  1  0.99947063  0.88778714  0.98916921  1
  O  O306  1  0.49640508  0.49613232  0.37352140  1
  O  O307  1  0.53768493  0.47320098  0.86850811  1
  O  O308  1  0.48632450  1.01215657  0.35387573  1
  O  O309  1  0.49110239  0.99161862  0.87937714  1
  O  O310  1  0.99082316  0.52075719  0.38446215  1
  O  O311  1  0.98499325  0.49170080  0.88502705  1
  O  O312  1  0.99149137  0.98714317  0.36371356  1
  O  O313  1  0.98403945  0.99740020  0.87097101  1
  O  O314  1  0.04089468  -0.00940589  0.15889552  1
  O  O315  1  0.00937331  0.01406169  0.63146593  1
  O  O316  1  0.00502233  0.49742671  0.11084778  1
  O  O317  1  0.01470376  0.50531262  0.62841873  1
  O  O318  1  0.47499902  -0.01252594  0.10767962  1
  O  O319  1  0.50567676  0.00197326  0.62255889  1
  O  O320  1  0.51767750  0.50246376  0.13572262  1
  O  O321  1  0.52492664  0.50161029  0.62907502  1
  O  O322  1  0.24504429  0.37695404  0.24469510  1
  O  O323  1  0.24255834  0.36626191  0.75821060  1
  O  O324  1  0.31381248  0.91635793  0.24316649  1
  O  O325  1  0.23013166  0.88428112  0.75384152  1
  O  O326  1  0.74644950  0.38403397  0.24164349  1
  O  O327  1  0.75091945  0.38705189  0.74700960  1
  O  O328  1  0.76137309  0.88320462  0.25463326  1
  O  O329  1  0.74489120  0.88778105  0.75349045  1
  O  O330  1  0.24259890  0.12815005  0.25877110  1
  O  O331  1  0.26796012  0.11342610  0.74196235  1
  O  O332  1  0.24863328  0.59897934  0.24370582  1
  O  O333  1  0.27384917  0.67693009  0.77394345  1
  O  O334  1  0.75703149  0.11259368  0.25851410  1
  O  O335  1  0.75456730  0.11367201  0.75536700  1
  O  O336  1  0.75412373  0.60963078  0.24910533  1
  O  O337  1  0.76437873  0.63716594  0.76506383  1
  O  O338  1  0.35187740  0.12548041  0.38056415  1
  O  O339  1  0.39133836  0.11310190  0.85388028  1
  O  O340  1  0.37453650  0.59898541  0.39302591  1
  O  O341  1  0.41790812  0.59899571  0.85855759  1
  O  O342  1  0.87005781  0.11991419  0.37052460  1
  O  O343  1  0.86751221  0.11601570  0.86644718  1
  O  O344  1  0.86852042  0.63700125  0.35416109  1
  O  O345  1  0.87346777  0.61627040  0.87839003  1
  O  O346  1  0.13955239  0.36056017  0.13596418  1
  O  O347  1  0.10792965  0.38530639  0.66392964  1
  O  O348  1  0.13992915  0.85023632  0.14030324  1
  O  O349  1  0.10753026  0.88201889  0.64043236  1
  O  O350  1  0.63208508  0.38080523  0.13114940  1
  O  O351  1  0.62992041  0.39579488  0.65363188  1
  O  O352  1  0.62877279  0.86208320  0.14683476  1
  O  O353  1  0.63707449  0.87722811  0.63378278  1
  O  O354  1  0.11421497  0.24985543  0.25261168  1
  O  O355  1  0.13114336  0.24805538  0.75287592  1
  O  O356  1  0.10930197  0.73901924  0.26275743  1
  O  O357  1  0.12132783  0.76526171  0.75999902  1
  O  O358  1  0.61558599  0.25580953  0.25115641  1
  O  O359  1  0.61088748  0.23184623  0.76377307  1
  O  O360  1  0.62917833  0.75667866  0.26512252  1
  O  O361  1  0.62576762  0.76440567  0.75529394  1
  O  O362  1  0.39133278  0.25054528  0.24676346  1
  O  O363  1  0.39580303  0.23455146  0.74590474  1
  O  O364  1  0.34887229  0.73702817  0.21286466  1
  O  O365  1  0.39494389  0.77591405  0.72548442  1
  O  O366  1  0.87800229  0.24595919  0.24729052  1
  O  O367  1  0.86825876  0.23073549  0.75721518  1
  O  O368  1  0.87933098  0.73944675  0.24192864  1
  O  O369  1  0.86646456  0.75166569  0.74418366  1
  O  O370  1  0.38069012  0.48219861  0.49848198  1
  O  O371  1  0.30509475  0.49998663  0.90135860  1
  O  O372  1  0.35930180  0.98499306  0.48400943  1
  O  O373  1  0.38830342  1.01320131  0.98228650  1
  O  O374  1  0.89844151  0.53924814  0.51255911  1
  O  O375  1  0.87974868  0.49715601  0.99632101  1
  O  O376  1  0.87326812  0.99515660  0.48997572  1
  O  O377  1  0.86728794  1.00355065  0.98544190  1
  O  O378  1  0.12282542  0.00186903  0.00634849  1
  O  O379  1  0.12269307  0.01090226  0.50990584  1
  O  O380  1  0.10998114  0.49635181  -0.01071542  1
  O  O381  1  0.11597213  0.52841177  0.49536224  1
  O  O382  1  0.60978321  0.00748123  -0.00071613  1
  O  O383  1  0.62556168  0.00805099  0.48718531  1
  O  O384  1  0.63079567  0.51972118  0.01164735  1
  O  O385  1  0.62550364  0.51938962  0.48793339  1
  O  O386  1  0.36912755  0.37061387  0.13530266  1
  O  O387  1  0.38341963  0.36796038  0.60441807  1
  O  O388  1  0.33029018  0.77867393  0.14504961  1
  O  O389  1  0.37660331  0.86799547  0.60612604  1
  O  O390  1  0.86941350  0.37045211  0.12172657  1
  O  O391  1  0.85195884  0.38987492  0.61798728  1
  O  O392  1  0.88566861  0.85637956  0.13195585  1
  O  O393  1  0.87943766  0.87391098  0.62204356  1
  O  O394  1  0.12402399  0.13104536  0.37948326  1
  O  O395  1  0.11006824  0.12690050  0.90374902  1
  O  O396  1  0.13645770  0.64173621  0.38645002  1
  O  O397  1  0.12184535  0.64834230  0.88372821  1
  O  O398  1  0.63084013  0.12754546  0.38137271  1
  O  O399  1  0.62857010  0.12606618  0.88118769  1
  O  O400  1  0.62798341  0.64219014  0.38727416  1
  O  O401  1  0.61668911  0.64248925  0.89067842  1
