# generated using pymatgen
data_V73Zn73O256
_symmetry_space_group_name_H-M   'P 1'
_cell_length_a   16.82801496
_cell_length_b   16.87100198
_cell_length_c   16.90621586
_cell_angle_alpha   89.92480264
_cell_angle_beta   90.11420710
_cell_angle_gamma   89.80661280
_symmetry_Int_Tables_number   1
_chemical_formula_structural   V73Zn73O256
_chemical_formula_sum   'V73 Zn73 O256'
_cell_volume   4799.72617218
_cell_formula_units_Z   1
loop_
 _symmetry_equiv_pos_site_id
 _symmetry_equiv_pos_as_xyz
  1  'x, y, z'
loop_
 _atom_site_type_symbol
 _atom_site_label
 _atom_site_symmetry_multiplicity
 _atom_site_fract_x
 _atom_site_fract_y
 _atom_site_fract_z
 _atom_site_occupancy
  V  V0  1  0.37199442  0.59822405  0.25251223  1
  V  V1  1  0.48247579  0.75416534  0.24405228  1
  V  V2  1  0.74293867  0.75216313  0.50120553  1
  V  V3  1  0.88242320  0.28127150  0.09177436  1
  V  V4  1  0.72875953  0.62953405  0.86620531  1
  V  V5  1  0.50934409  0.25028423  0.75096127  1
  V  V6  1  0.25737445  -0.00794291  0.74985704  1
  V  V7  1  -0.00737634  0.62283919  0.13064327  1
  V  V8  1  -0.00472519  0.50369729  0.48475466  1
  V  V9  1  0.24617185  0.75914742  0.00360214  1
  V  V10  1  0.73612930  0.76210683  -0.00080337  1
  V  V11  1  0.90184261  -0.00909934  0.88220102  1
  V  V12  1  0.85566487  0.13419782  0.25340922  1
  V  V13  1  0.87431325  0.51655604  0.85391694  1
  V  V14  1  0.38884525  0.88708655  -0.00697461  1
  V  V15  1  0.62296127  0.39606848  0.73591724  1
  V  V16  1  0.37764112  0.24548160  0.11838544  1
  V  V17  1  0.25107292  0.49636018  0.74607146  1
  V  V18  1  0.50350929  0.61314666  0.11457995  1
  V  V19  1  0.24775791  0.63010327  0.87617662  1
  V  V20  1  0.87492126  0.88131409  0.50984484  1
  V  V21  1  0.75484212  -0.00628794  0.76680596  1
  V  V22  1  0.36693898  0.37726464  -0.00498286  1
  V  V23  1  0.50267290  0.12965572  0.61827267  1
  V  V24  1  0.12560528  0.62990389  0.50144392  1
  V  V25  1  0.36998884  0.63614909  0.73676338  1
  V  V26  1  0.25476806  0.37800358  0.13946227  1
  V  V27  1  0.49541593  -0.02307831  0.50487863  1
  V  V28  1  -0.00257351  0.74256886  0.75556864  1
  V  V29  1  0.25314298  0.12475648  0.87954995  1
  V  V30  1  0.76309810  0.62509989  0.37008461  1
  V  V31  1  0.61697095  0.88196667  0.77541594  1
  V  V32  1  0.87702458  0.73428157  0.62934004  1
  V  V33  1  0.63761978  0.24359946  0.37300723  1
  V  V34  1  0.11819808  0.49887593  0.62848377  1
  V  V35  1  0.24703731  0.13723797  0.38597937  1
  V  V36  1  0.12762117  -0.00772077  0.12529209  1
  V  V37  1  0.49993516  0.39174035  0.38185366  1
  V  V38  1  0.87104264  0.13313843  0.75402043  1
  V  V39  1  0.63181903  0.39016079  0.24804115  1
  V  V40  1  0.63397766  0.88038853  0.24066976  1
  V  V41  1  0.76368662  0.50764469  0.23710184  1
  V  V42  1  0.11652438  0.12376115  -0.00122569  1
  V  V43  1  0.25680029  0.36173568  0.62479988  1
  V  V44  1  -0.00400603  0.37532012  0.86847935  1
  V  V45  1  0.48835555  0.76043339  0.75944210  1
  V  V46  1  0.11480344  0.87404313  0.75111053  1
  V  V47  1  0.00200916  0.12761781  0.61802650  1
  V  V48  1  0.87620995  0.37788696  0.49479666  1
  V  V49  1  0.87340762  0.76731218  0.12410979  1
  V  V50  1  0.12557254  0.74681395  0.35972825  1
  V  V51  1  0.25538904  0.76730587  0.50882071  1
  V  V52  1  0.11556447  0.62909907  -0.01100111  1
  V  V53  1  0.50215479  0.24949995  0.24982576  1
  V  V54  1  0.00510586  0.12725501  0.14356302  1
  V  V55  1  0.50538085  0.02833824  0.00672688  1
  V  V56  1  0.65360720  0.13882490  -0.00826308  1
  V  V57  1  0.38175232  0.12080895  0.24946374  1
  V  V58  1  0.37915799  0.12865199  0.75258017  1
  V  V59  1  0.24800136  -0.00424860  0.25279676  1
  V  V60  1  0.85455401  0.00087351  0.36713626  1
  V  V61  1  0.13024146  0.25578914  0.88091727  1
  V  V62  1  -0.00551165  0.48875750  -0.00383312  1
  V  V63  1  0.13739483  0.49824974  0.12052289  1
  V  V64  1  0.63649131  -0.00839392  0.62848422  1
  V  V65  1  0.00186658  0.87631264  0.35952811  1
  V  V66  1  0.38323605  0.35356148  0.50531364  1
  V  V67  1  0.37945604  0.50362792  0.87809150  1
  V  V68  1  0.13100393  -0.00205500  0.61389630  1
  V  V69  1  0.50695841  0.37668959  0.87865709  1
  V  V70  1  0.61602352  0.74960148  0.37063085  1
  V  V71  1  0.00907636  0.25239553  0.74747916  1
  V  V72  1  0.75400639  0.24698983  0.51403595  1
  Zn  Zn73  1  0.00382687  0.00451695  0.49364322  1
  Zn  Zn74  1  -0.05929002  0.81367634  0.94409797  1
  Zn  Zn75  1  0.38078752  -0.00875206  0.38328293  1
  Zn  Zn76  1  0.63634533  0.11267010  0.49307403  1
  Zn  Zn77  1  0.25511881  0.85743065  0.13918763  1
  Zn  Zn78  1  -0.05817708  0.68504927  0.28950207  1
  Zn  Zn79  1  0.03668377  0.27891897  0.28400868  1
  Zn  Zn80  1  0.74522983  0.38740892  0.62527479  1
  Zn  Zn81  1  0.24613185  0.58460052  0.36445765  1
  Zn  Zn82  1  0.19596210  0.18644700  0.19788731  1
  Zn  Zn83  1  0.18544495  0.18110236  0.68882626  1
  Zn  Zn84  1  0.19065485  0.67231699  0.18529434  1
  Zn  Zn85  1  0.18464186  0.68942314  0.68464031  1
  Zn  Zn86  1  0.69171787  0.21818438  0.16486675  1
  Zn  Zn87  1  0.68508706  0.18441325  0.69197809  1
  Zn  Zn88  1  0.68747269  0.69143960  0.18441197  1
  Zn  Zn89  1  0.67766874  0.70761181  0.68575652  1
  Zn  Zn90  1  0.31844185  0.31848430  0.31681343  1
  Zn  Zn91  1  0.31738337  0.30768542  0.80963379  1
  Zn  Zn92  1  0.31425904  0.81265128  0.32608466  1
  Zn  Zn93  1  0.30121025  0.81911410  0.82200901  1
  Zn  Zn94  1  0.81844008  0.31925132  0.30975046  1
  Zn  Zn95  1  0.81641885  0.32696126  0.79836389  1
  Zn  Zn96  1  0.80893136  0.81601071  0.30972896  1
  Zn  Zn97  1  0.81086721  0.81060601  0.81602687  1
  Zn  Zn98  1  0.19036885  0.43140618  0.45799242  1
  Zn  Zn99  1  0.18596408  0.43787191  0.93403886  1
  Zn  Zn100  1  0.18996191  0.93565357  0.43089963  1
  Zn  Zn101  1  0.10332559  0.91975622  0.94872990  1
  Zn  Zn102  1  0.69362889  0.43705714  0.43224684  1
  Zn  Zn103  1  0.69618630  0.44054236  0.92154611  1
  Zn  Zn104  1  0.67863334  0.92556571  0.43595773  1
  Zn  Zn105  1  0.68522781  0.95062690  0.95394801  1
  Zn  Zn106  1  0.31318016  0.05626736  0.05880754  1
  Zn  Zn107  1  0.31720694  0.06523030  0.56695268  1
  Zn  Zn108  1  0.32012149  0.57028010  0.06211684  1
  Zn  Zn109  1  0.30824348  0.56394894  0.55985742  1
  Zn  Zn110  1  0.83480437  0.07652459  0.05186714  1
  Zn  Zn111  1  0.81668922  0.06380125  0.56688561  1
  Zn  Zn112  1  0.67542262  0.55579124  0.05280897  1
  Zn  Zn113  1  0.81116324  0.56649210  0.55407396  1
  Zn  Zn114  1  0.44779383  0.43492489  0.18204016  1
  Zn  Zn115  1  0.43402075  0.43751815  0.68455620  1
  Zn  Zn116  1  0.43866007  0.93523821  0.17252094  1
  Zn  Zn117  1  0.44703900  0.93677950  0.69109696  1
  Zn  Zn118  1  0.94862609  0.43916361  0.19678035  1
  Zn  Zn119  1  0.93108973  0.43459644  0.68158036  1
  Zn  Zn120  1  0.93414965  0.94662422  0.18549619  1
  Zn  Zn121  1  0.93975176  0.94433267  0.68839867  1
  Zn  Zn122  1  0.06721739  0.06528793  0.32193169  1
  Zn  Zn123  1  0.06872365  0.06568506  0.80529478  1
  Zn  Zn124  1  0.09533782  0.45686950  0.31500948  1
  Zn  Zn125  1  0.06078046  0.56366217  0.80683895  1
  Zn  Zn126  1  0.56197029  0.05951839  0.31599599  1
  Zn  Zn127  1  0.56915786  0.07168717  0.82843145  1
  Zn  Zn128  1  0.56623482  0.57430225  0.31303411  1
  Zn  Zn129  1  0.55403820  0.57033014  0.80455899  1
  Zn  Zn130  1  0.44235023  0.18160792  0.42882578  1
  Zn  Zn131  1  0.44033011  0.19113122  0.93300602  1
  Zn  Zn132  1  0.42732093  0.67911136  0.42798484  1
  Zn  Zn133  1  0.43116963  0.69803883  0.94028653  1
  Zn  Zn134  1  0.92742063  0.18892117  0.43344853  1
  Zn  Zn135  1  0.94004356  0.18508312  0.93294562  1
  Zn  Zn136  1  0.94144899  0.69291928  0.45198619  1
  Zn  Zn137  1  0.86073701  0.62707677  0.99712161  1
  Zn  Zn138  1  0.08480548  0.28984815  0.09500686  1
  Zn  Zn139  1  0.05873327  0.31972195  0.56586201  1
  Zn  Zn140  1  0.06481568  0.80605462  0.07953332  1
  Zn  Zn141  1  0.05828480  0.81635300  0.56500387  1
  Zn  Zn142  1  0.57384223  0.32263968  0.05846371  1
  Zn  Zn143  1  0.56695548  0.30836423  0.55975342  1
  Zn  Zn144  1  0.55762016  0.80663835  0.06891838  1
  Zn  Zn145  1  0.44552195  0.78908239  0.56290584  1
  O  O146  1  0.11775713  0.12191724  0.11844350  1
  O  O147  1  0.11229066  0.11346528  0.62875483  1
  O  O148  1  0.12076467  0.61495359  0.10614257  1
  O  O149  1  0.13457526  0.60959078  0.61254098  1
  O  O150  1  0.71172777  0.01755151  0.15087686  1
  O  O151  1  0.61545371  0.11255676  0.63010647  1
  O  O152  1  0.61168897  0.62582906  0.12504697  1
  O  O153  1  0.61268239  0.64379347  0.60393690  1
  O  O154  1  0.38929089  0.37731822  0.39020713  1
  O  O155  1  0.38225117  0.38259849  0.87654878  1
  O  O156  1  0.37924829  0.88102363  0.38187719  1
  O  O157  1  0.35496904  0.88389416  0.89707587  1
  O  O158  1  0.86868953  0.37926361  0.39417400  1
  O  O159  1  0.88809814  0.39239711  0.86337623  1
  O  O160  1  0.88361322  0.88540480  0.37592044  1
  O  O161  1  0.88073936  0.88736418  0.87127751  1
  O  O162  1  0.25348030  0.00630047  0.36194417  1
  O  O163  1  0.24347588  0.01559892  0.85097642  1
  O  O164  1  0.19621389  0.48158909  0.36092636  1
  O  O165  1  0.25712246  0.50469127  0.86358379  1
  O  O166  1  0.75618743  -0.00514165  0.37819670  1
  O  O167  1  0.75734677  0.00345660  0.86725022  1
  O  O168  1  0.75060583  0.52155090  0.37615048  1
  O  O169  1  0.76419304  0.51471725  0.86760005  1
  O  O170  1  0.24693027  0.49118663  0.11264042  1
  O  O171  1  0.24697349  0.49205966  0.63172731  1
  O  O172  1  0.23995476  1.00958223  0.13712529  1
  O  O173  1  0.23767768  1.01253614  0.63469816  1
  O  O174  1  0.74863680  0.51413988  0.14034171  1
  O  O175  1  0.71443297  0.50482676  0.58459228  1
  O  O176  1  0.76731724  0.98507979  0.11442218  1
  O  O177  1  0.74083325  1.00729315  0.63695405  1
  O  O178  1  0.01941425  0.38918091  0.26752152  1
  O  O179  1  -0.00431428  0.36155453  0.75106888  1
  O  O180  1  -0.00222073  0.87912885  0.26087836  1
  O  O181  1  0.01000405  0.87225345  0.74429719  1
  O  O182  1  0.50865667  0.37313166  0.26577077  1
  O  O183  1  0.50411070  0.37058978  0.75050976  1
  O  O184  1  0.49522591  0.85676998  0.24215422  1
  O  O185  1  0.51695861  0.90100955  0.77832749  1
  O  O186  1  0.49454491  0.13612016  0.25336709  1
  O  O187  1  0.49895675  0.12904596  0.75054742  1
  O  O188  1  0.48837455  0.62788839  0.24584106  1
  O  O189  1  0.48423677  0.64939798  0.74864677  1
  O  O190  1  1.00614006  0.12949721  0.24461952  1
  O  O191  1  0.99462528  0.13409595  0.74156612  1
  O  O192  1  1.00288282  0.61035234  0.23031916  1
  O  O193  1  1.01072175  0.64314506  0.74441324  1
  O  O194  1  0.38429910  0.25913985  0.01379257  1
  O  O195  1  0.38220513  0.25499482  0.49872169  1
  O  O196  1  0.35213544  0.76468150  -0.00300163  1
  O  O197  1  0.36029931  0.74864948  0.49350424  1
  O  O198  1  0.88157247  0.26179573  -0.00805724  1
  O  O199  1  0.86317852  0.26113331  0.49948930  1
  O  O200  1  0.87196174  0.74720873  0.01135371  1
  O  O201  1  0.87168039  0.76221970  0.51348035  1
  O  O202  1  0.10076076  0.27274953  0.45387476  1
  O  O203  1  0.12228902  0.24017470  0.99099201  1
  O  O204  1  0.12777779  0.73855544  0.50633051  1
  O  O205  1  0.12500891  0.73106106  0.99925904  1
  O  O206  1  0.63762889  0.24995411  0.48742246  1
  O  O207  1  0.63000790  0.21765932  1.06390773  1
  O  O208  1  0.64289525  0.76301030  0.48517290  1
  O  O209  1  0.63675275  0.75195179  1.00465185  1
  O  O210  1  0.48522350  0.26996324  0.14031066  1
  O  O211  1  0.50867973  0.23448487  0.63162089  1
  O  O212  1  0.49733803  0.73546355  0.14152927  1
  O  O213  1  0.53511552  0.64205916  0.59201123  1
  O  O214  1  0.98169180  0.23306919  0.11844740  1
  O  O215  1  1.01239121  0.23809742  0.63074873  1
  O  O216  1  0.98952104  0.73361294  0.12571464  1
  O  O217  1  0.98175110  0.75454773  0.62750251  1
  O  O218  1  0.01679148  0.22882162  0.38108992  1
  O  O219  1  0.00832703  0.25749378  0.86711582  1
  O  O220  1  0.00354072  0.75704655  0.36971545  1
  O  O221  1  -0.00962368  0.75436692  0.85376089  1
  O  O222  1  0.51059050  0.25692582  0.36508583  1
  O  O223  1  0.49569946  0.26861595  0.86515280  1
  O  O224  1  0.51015682  0.73612145  0.36454510  1
  O  O225  1  0.47798963  0.76633042  0.85810083  1
  O  O226  1  0.26561709  0.12201557  0.48469194  1
  O  O227  1  0.24369219  0.11789008  0.98590565  1
  O  O228  1  0.23600628  0.61635317  0.48621651  1
  O  O229  1  0.24169500  0.62909445  0.99281726  1
  O  O230  1  0.75295335  0.14030856  0.50558743  1
  O  O231  1  0.75462146  0.13412577  0.99824450  1
  O  O232  1  0.75931395  0.64461502  0.48459982  1
  O  O233  1  0.74415235  0.62937997  0.98607559  1
  O  O234  1  0.26441429  0.37272214  -0.00561448  1
  O  O235  1  0.27389138  0.37977266  0.51291057  1
  O  O236  1  0.21983876  0.85509505  -0.00633428  1
  O  O237  1  0.24607680  0.86704998  0.50545595  1
  O  O238  1  0.73303092  0.31961182  -0.05699609  1
  O  O239  1  0.75499615  0.36420791  0.50078371  1
  O  O240  1  0.74854038  0.86280553  -0.00521946  1
  O  O241  1  0.76650104  0.86346415  0.48857357  1
  O  O242  1  0.12796653  0.51155181  0.21649367  1
  O  O243  1  0.13637349  0.50414575  0.73714416  1
  O  O244  1  0.14111885  1.00843586  0.24312576  1
  O  O245  1  0.13281860  0.99242276  0.73790611  1
  O  O246  1  0.63145498  0.49333150  0.25800061  1
  O  O247  1  0.60798278  0.49556396  0.73546424  1
  O  O248  1  0.60581594  0.97733547  0.25748182  1
  O  O249  1  0.63905182  1.00243681  0.75401809  1
  O  O250  1  0.36974796  0.01075066  0.23765787  1
  O  O251  1  0.36392714  0.00436113  0.73931454  1
  O  O252  1  0.37970747  0.49830329  0.25123436  1
  O  O253  1  0.36950389  0.51477822  0.75360904  1
  O  O254  1  0.87123147  0.00934028  0.26174920  1
  O  O255  1  0.86813267  0.00446181  0.75867314  1
  O  O256  1  0.86284445  0.49630027  0.24798406  1
  O  O257  1  0.88557632  0.51113270  0.75429214  1
  O  O258  1  0.13408547  0.32907004  0.41377518  1
  O  O259  1  0.11615848  0.36611256  0.87449801  1
  O  O260  1  0.10895969  0.86196649  0.38157100  1
  O  O261  1  0.13210470  0.87638296  0.84925891  1
  O  O262  1  0.61684609  0.36756034  0.37175035  1
  O  O263  1  0.60902773  0.38659389  0.85628888  1
  O  O264  1  0.62319597  0.85717820  0.36383160  1
  O  O265  1  0.63930182  0.87884412  0.87182171  1
  O  O266  1  0.36903480  0.14133524  0.12924502  1
  O  O267  1  0.39589656  0.11888609  0.63677676  1
  O  O268  1  0.38528983  0.61845047  0.14161338  1
  O  O269  1  0.36557216  0.63080382  0.63795008  1
  O  O270  1  0.89211649  0.11147774  0.14460297  1
  O  O271  1  0.89053136  0.11512079  0.64282383  1
  O  O272  1  0.89308579  0.61823543  0.11350596  1
  O  O273  1  0.87263787  0.63499342  0.62384324  1
  O  O274  1  0.26846381  0.26651031  0.12992650  1
  O  O275  1  0.23845038  0.26419758  0.62901959  1
  O  O276  1  0.23595090  0.74702011  0.10980584  1
  O  O277  1  0.24764287  0.74487034  0.60690254  1
  O  O278  1  0.79191650  0.25726961  0.12923242  1
  O  O279  1  0.74075105  0.25457757  0.61503014  1
  O  O280  1  0.76425204  0.74347083  0.11115860  1
  O  O281  1  0.75800470  0.74893707  0.61084837  1
  O  O282  1  0.26101771  0.23720699  0.36944947  1
  O  O283  1  0.24091972  0.24048790  0.86553143  1
  O  O284  1  0.23054879  0.75658809  0.38893390  1
  O  O285  1  0.24493053  0.73578440  0.88297021  1
  O  O286  1  0.73954274  0.25532790  0.37710873  1
  O  O287  1  0.75125734  0.27219583  0.88628639  1
  O  O288  1  0.74618446  0.74479866  0.37821660  1
  O  O289  1  0.75577686  0.73860710  0.88836266  1
  O  O290  1  0.01167731  0.12283976  0.00632080  1
  O  O291  1  -0.01431346  0.12401271  0.51633035  1
  O  O292  1  0.01123622  0.61461536  -0.00158601  1
  O  O293  1  0.01093872  0.61476520  0.50180028  1
  O  O294  1  0.50178839  0.13094856  0.00879851  1
  O  O295  1  0.50750734  0.12624803  0.51367014  1
  O  O296  1  0.48627743  0.63451661  0.01609721  1
  O  O297  1  0.50761362  0.69049924  0.52744339  1
  O  O298  1  0.49543147  0.36828628  0.49111609  1
  O  O299  1  0.49631070  0.37041725  0.98319144  1
  O  O300  1  0.50363651  0.87803320  0.51313687  1
  O  O301  1  0.48608038  0.86000468  0.99569090  1
  O  O302  1  0.98683800  0.38855759  0.50646751  1
  O  O303  1  1.00567375  0.38706457  0.98476197  1
  O  O304  1  0.98475449  0.87567391  0.49087546  1
  O  O305  1  1.01784159  0.87099790  1.00137806  1
  O  O306  1  0.51275793  0.48979937  0.38141712  1
  O  O307  1  0.48746962  0.49055048  0.86288332  1
  O  O308  1  0.50693804  1.00532401  0.40471781  1
  O  O309  1  0.52622946  1.00157844  0.90837000  1
  O  O310  1  1.00668673  0.50152153  0.38826612  1
  O  O311  1  0.99884826  0.49486048  0.87545142  1
  O  O312  1  0.99921848  0.98866321  0.37667769  1
  O  O313  1  1.00409335  0.99527396  0.87099900  1
  O  O314  1  0.01816463  0.01250724  0.13742751  1
  O  O315  1  0.01136766  0.01069977  0.62275894  1
  O  O316  1  0.01300239  0.50325608  0.10757471  1
  O  O317  1  0.01690077  0.49344172  0.62747893  1
  O  O318  1  0.51045720  -0.01088427  0.10220230  1
  O  O319  1  0.51261351  0.00684948  0.61986306  1
  O  O320  1  0.50279235  0.51098974  0.11991721  1
  O  O321  1  0.45915610  0.50037049  0.58648274  1
  O  O322  1  0.25823193  0.38128164  0.23777800  1
  O  O323  1  0.26550468  0.38444871  0.73572642  1
  O  O324  1  0.25874708  0.89171673  0.25097880  1
  O  O325  1  0.24641620  0.88784206  0.74435713  1
  O  O326  1  0.74076232  0.39193048  0.26097250  1
  O  O327  1  0.72979698  0.38106055  0.74573507  1
  O  O328  1  0.73562403  0.87875628  0.25062345  1
  O  O329  1  0.74392559  0.88956409  0.75500942  1
  O  O330  1  0.26406791  0.11806671  0.25826692  1
  O  O331  1  0.26280472  0.12158518  0.75146311  1
  O  O332  1  0.26543898  0.61734943  0.25000459  1
  O  O333  1  0.25402734  0.61915437  0.75549896  1
  O  O334  1  0.75765746  0.13820780  0.23662829  1
  O  O335  1  0.76573394  0.11987887  0.74818050  1
  O  O336  1  0.74988973  0.61930750  0.25969136  1
  O  O337  1  0.73486185  0.64650752  0.76530474  1
  O  O338  1  0.37442200  0.11252075  0.36432725  1
  O  O339  1  0.36765920  0.13014729  0.86508454  1
  O  O340  1  0.36923562  0.60996209  0.36228566  1
  O  O341  1  0.36598326  0.61837030  0.87155897  1
  O  O342  1  0.87067638  0.11062788  0.36596177  1
  O  O343  1  0.89006113  0.11023176  0.85810339  1
  O  O344  1  0.86921555  0.64140818  0.37195676  1
  O  O345  1  0.87626540  0.61625178  0.87433555  1
  O  O346  1  0.14628626  0.38732392  0.10892448  1
  O  O347  1  0.14314745  0.38900562  0.60906682  1
  O  O348  1  0.13173070  0.88971950  0.13068913  1
  O  O349  1  0.12083234  0.89186405  0.62963857  1
  O  O350  1  0.62157304  0.37261540  0.15063712  1
  O  O351  1  0.61988533  0.37558761  0.63379769  1
  O  O352  1  0.62280078  0.86522285  0.14083976  1
  O  O353  1  0.62465002  0.89472608  0.64977743  1
  O  O354  1  0.11440820  0.25941758  0.20449400  1
  O  O355  1  0.11608419  0.24131610  0.76300337  1
  O  O356  1  0.13188655  0.74144297  0.26094098  1
  O  O357  1  0.11239806  0.76445736  0.73350004  1
  O  O358  1  0.62434832  0.25922975  0.25846967  1
  O  O359  1  0.61389207  0.25693191  0.74929394  1
  O  O360  1  0.61846627  0.75566006  0.25841620  1
  O  O361  1  0.59841960  0.77156641  0.74550461  1
  O  O362  1  0.38365755  0.24368652  0.24471196  1
  O  O363  1  0.38971764  0.23850235  0.74901959  1
  O  O364  1  0.38078406  0.74390122  0.25772068  1
  O  O365  1  0.36178048  0.73746017  0.75953105  1
  O  O366  1  0.88291302  0.23358256  0.26663829  1
  O  O367  1  0.88213992  0.23856448  0.75661412  1
  O  O368  1  0.86891672  0.75210102  0.23090472  1
  O  O369  1  0.88108230  0.75911622  0.73515849  1
  O  O370  1  0.40109365  0.49282802  0.52983694  1
  O  O371  1  0.37156070  0.49347570  0.98582647  1
  O  O372  1  0.39340995  0.99511163  0.51446946  1
  O  O373  1  0.39416118  1.00084740  0.99749638  1
  O  O374  1  0.88733021  0.49851107  0.49975549  1
  O  O375  1  0.89419109  0.50556264  0.98416026  1
  O  O376  1  0.87286141  0.99259293  0.48847005  1
  O  O377  1  0.88514455  1.00633756  0.97991621  1
  O  O378  1  0.13233810  0.00873275  0.01815367  1
  O  O379  1  0.12617848  -0.00320909  0.51029437  1
  O  O380  1  0.11853345  0.50761215  -0.00143341  1
  O  O381  1  0.11239806  0.50702436  0.50988113  1
  O  O382  1  0.63170726  0.03583895  0.01306857  1
  O  O383  1  0.62495227  -0.00535803  0.51547721  1
  O  O384  1  0.63922176  0.45720433  0.01271013  1
  O  O385  1  0.65703303  0.50293476  0.52811213  1
  O  O386  1  0.36768848  0.37605939  0.11553566  1
  O  O387  1  0.37059136  0.36305016  0.61753981  1
  O  O388  1  0.35749020  0.88819292  0.09828731  1
  O  O389  1  0.45072763  0.81930922  0.67242253  1
  O  O390  1  0.89854289  0.37792009  0.11329680  1
  O  O391  1  0.86016616  0.38756712  0.60881055  1
  O  O392  1  0.88349440  0.86654849  0.12122851  1
  O  O393  1  0.87421855  0.88562258  0.61059369  1
  O  O394  1  0.14670842  0.12396680  0.37480910  1
  O  O395  1  0.13059315  0.13208301  0.88117990  1
  O  O396  1  0.12024727  0.64253240  0.38827761  1
  O  O397  1  0.13406255  0.61491697  0.88221230  1
  O  O398  1  0.62365599  0.13958204  0.37596568  1
  O  O399  1  0.62697200  0.15103131  0.89456956  1
  O  O400  1  0.64089109  0.64216148  0.37244329  1
  O  O401  1  0.62896809  0.61634489  0.87717343  1
