# generated using pymatgen
data_V73Zn73O256
_symmetry_space_group_name_H-M   'P 1'
_cell_length_a   16.86960097
_cell_length_b   16.82263938
_cell_length_c   16.91187589
_cell_angle_alpha   89.87465451
_cell_angle_beta   89.88077611
_cell_angle_gamma   89.86164621
_symmetry_Int_Tables_number   1
_chemical_formula_structural   V73Zn73O256
_chemical_formula_sum   'V73 Zn73 O256'
_cell_volume   4799.40596956
_cell_formula_units_Z   1
loop_
 _symmetry_equiv_pos_site_id
 _symmetry_equiv_pos_as_xyz
  1  'x, y, z'
loop_
 _atom_site_type_symbol
 _atom_site_label
 _atom_site_symmetry_multiplicity
 _atom_site_fract_x
 _atom_site_fract_y
 _atom_site_fract_z
 _atom_site_occupancy
  V  V0  1  0.61696283  0.87733629  0.24093850  1
  V  V1  1  0.49780983  0.50251292  -0.00167194  1
  V  V2  1  0.74268044  0.50540022  0.74217235  1
  V  V3  1  0.49588471  0.23109864  0.75919897  1
  V  V4  1  0.49357223  0.37789819  0.37982162  1
  V  V5  1  0.23932836  0.85518621  0.12081795  1
  V  V6  1  0.74236035  -0.01026381  0.74682938  1
  V  V7  1  0.36558126  0.01362604  0.87631572  1
  V  V8  1  0.37681101  0.62047340  0.74076957  1
  V  V9  1  0.01091074  0.37763833  0.86497168  1
  V  V10  1  0.88197676  -0.00472555  0.88162832  1
  V  V11  1  0.12069847  0.65275218  0.50889748  1
  V  V12  1  0.00425457  -0.00401950  0.49342100  1
  V  V13  1  0.87128249  0.12909130  0.74595525  1
  V  V14  1  0.25647126  0.88227977  0.60724715  1
  V  V15  1  0.00384172  0.00887112  0.00821731  1
  V  V16  1  0.36429826  0.51504391  0.37751949  1
  V  V17  1  0.23246876  0.48962760  0.74636480  1
  V  V18  1  0.02837256  0.37097832  0.35858219  1
  V  V19  1  0.61280212  0.37315486  0.74505377  1
  V  V20  1  0.37276216  0.48734996  0.87197467  1
  V  V21  1  0.75668512  0.62912724  0.37243967  1
  V  V22  1  0.36876806  0.85965945  0.01106170  1
  V  V23  1  0.01922003  0.49775950  0.50868209  1
  V  V24  1  0.50846787  0.74135824  0.74705503  1
  V  V25  1  0.13654136  0.01410811  0.11812331  1
  V  V26  1  0.12176374  0.76233547  0.86258985  1
  V  V27  1  0.24708546  0.62932980  0.86950929  1
  V  V28  1  0.38179333  -0.00749788  0.37811622  1
  V  V29  1  0.49081263  0.74040497  0.24353714  1
  V  V30  1  0.13568377  0.13502779  0.49197387  1
  V  V31  1  0.86473874  0.86351202  0.50996269  1
  V  V32  1  0.62456768  0.62023314  0.50659611  1
  V  V33  1  0.87003437  0.38783941  0.48471054  1
  V  V34  1  0.74551569  0.00177098  0.24003605  1
  V  V35  1  0.73973248  0.61840316  0.89675517  1
  V  V36  1  0.00288664  0.12212620  0.61830612  1
  V  V37  1  0.75025224  0.36742294  0.11320790  1
  V  V38  1  0.62297468  0.24745281  0.39213871  1
  V  V39  1  0.87726317  -0.00742016  0.37449597  1
  V  V40  1  0.37262931  0.24117800  0.62216780  1
  V  V41  1  0.37498616  0.75474041  0.61651108  1
  V  V42  1  0.74604325  0.12910197  0.38799532  1
  V  V43  1  0.22609398  0.37934216  0.13416450  1
  V  V44  1  0.75366102  0.50067229  0.24946066  1
  V  V45  1  0.62432565  0.75338941  0.37315367  1
  V  V46  1  0.24614536  0.23786257  -0.00080515  1
  V  V47  1  0.62884837  0.25367288  0.88485185  1
  V  V48  1  0.12755640  0.23151699  0.87039580  1
  V  V49  1  0.86607333  0.48676297  0.87642475  1
  V  V50  1  0.39366142  0.13546624  0.24036382  1
  V  V51  1  0.87705494  0.63121656  0.24247590  1
  V  V52  1  0.62130432  0.36610630  0.25055314  1
  V  V53  1  0.12074843  0.88366477  0.25911135  1
  V  V54  1  0.37168665  0.37126688  0.01672430  1
  V  V55  1  0.88312666  0.25153331  0.11273338  1
  V  V56  1  -0.00319771  0.49202883  0.00546015  1
  V  V57  1  0.51160410  -0.01649921  0.49943421  1
  V  V58  1  0.12459644  0.63086229  -0.00406514  1
  V  V59  1  0.61776517  0.73613436  0.89774706  1
  V  V60  1  0.23554934  0.36505918  0.62552919  1
  V  V61  1  -0.01207531  0.65250293  0.10631253  1
  V  V62  1  -0.00017140  0.75740283  0.26980245  1
  V  V63  1  0.76468486  0.86280534  0.11345066  1
  V  V64  1  0.51449244  0.11762143  0.61678481  1
  V  V65  1  0.88033083  0.13468087  0.24648956  1
  V  V66  1  0.49266761  0.87353792  0.88622659  1
  V  V67  1  0.52876639  0.11792071  0.10703944  1
  V  V68  1  0.86805126  0.25028218  0.61006601  1
  V  V69  1  0.61847351  0.50841239  0.12584215  1
  V  V70  1  0.75100263  0.13312003  0.88765554  1
  V  V71  1  0.74491224  0.37023870  0.62114112  1
  V  V72  1  0.25991057  0.13328339  0.36338324  1
  Zn  Zn73  1  0.49784805  0.51015184  0.52329703  1
  Zn  Zn74  1  0.27841140  0.54644088  0.22294490  1
  Zn  Zn75  1  -0.01670379  0.76012149  0.74662264  1
  Zn  Zn76  1  0.45539387  0.62362543  0.13384682  1
  Zn  Zn77  1  0.12744973  0.88435877  0.73692725  1
  Zn  Zn78  1  0.37364404  0.37772034  0.50785208  1
  Zn  Zn79  1  0.62745392  0.87265205  0.76271872  1
  Zn  Zn80  1  0.25212508  0.00270641  0.74723571  1
  Zn  Zn81  1  0.00707079  0.26145910  0.73454547  1
  Zn  Zn82  1  0.19899743  0.20002369  0.18713512  1
  Zn  Zn83  1  0.18472759  0.17931485  0.68953216  1
  Zn  Zn84  1  0.16893509  0.68078451  0.19478741  1
  Zn  Zn85  1  0.19115745  0.68546696  0.67362360  1
  Zn  Zn86  1  0.68635925  0.18649861  0.18753887  1
  Zn  Zn87  1  0.68702500  0.18728693  0.69116872  1
  Zn  Zn88  1  0.68616312  0.69192388  0.18277457  1
  Zn  Zn89  1  0.86312758  0.64658477  0.73173655  1
  Zn  Zn90  1  0.31154881  0.30917830  0.30915570  1
  Zn  Zn91  1  0.30857031  0.30386467  0.80990190  1
  Zn  Zn92  1  0.31725292  0.83547671  0.29641022  1
  Zn  Zn93  1  0.31330929  0.81530477  0.80204724  1
  Zn  Zn94  1  0.80582230  0.31039373  0.30847982  1
  Zn  Zn95  1  0.81269551  0.31279618  0.80594905  1
  Zn  Zn96  1  0.81144816  0.81381360  0.30679999  1
  Zn  Zn97  1  0.82418404  0.79500501  0.85509191  1
  Zn  Zn98  1  0.19087920  0.42546026  0.44139274  1
  Zn  Zn99  1  0.18575485  0.44073572  0.94187232  1
  Zn  Zn100  1  0.19522640  0.94761469  0.43912379  1
  Zn  Zn101  1  0.19102286  0.94344801  0.94214402  1
  Zn  Zn102  1  0.68567632  0.44040518  0.43535328  1
  Zn  Zn103  1  0.67684845  0.43260532  0.93587987  1
  Zn  Zn104  1  0.68879427  0.93694310  0.43440724  1
  Zn  Zn105  1  0.68567435  0.93817025  0.94096772  1
  Zn  Zn106  1  0.32455155  0.05062705  0.06084266  1
  Zn  Zn107  1  0.32424312  0.06234039  0.55999629  1
  Zn  Zn108  1  0.30341367  0.55801694  0.05718472  1
  Zn  Zn109  1  0.30142404  0.55868768  0.55997022  1
  Zn  Zn110  1  0.81450366  0.06491952  0.06288720  1
  Zn  Zn111  1  0.80907386  0.05249903  0.56528231  1
  Zn  Zn112  1  0.81472649  0.55475592  0.06515437  1
  Zn  Zn113  1  0.80141545  0.55840391  0.55972570  1
  Zn  Zn114  1  0.43554789  0.43615482  0.19487988  1
  Zn  Zn115  1  0.43191950  0.43340201  0.68573884  1
  Zn  Zn116  1  0.43391307  0.95016988  0.18371851  1
  Zn  Zn117  1  0.43849054  0.93810169  0.69363796  1
  Zn  Zn118  1  0.93757721  0.43509383  0.18835064  1
  Zn  Zn119  1  0.92823019  0.44173770  0.68525465  1
  Zn  Zn120  1  0.94125430  0.94066357  0.18534048  1
  Zn  Zn121  1  0.93094226  0.93519716  0.69007870  1
  Zn  Zn122  1  0.08750552  0.09873148  0.28286954  1
  Zn  Zn123  1  0.06387236  0.05915600  0.80490815  1
  Zn  Zn124  1  0.10268369  0.55072220  0.33287489  1
  Zn  Zn125  1  0.05422698  0.56882282  0.80415765  1
  Zn  Zn126  1  0.56067440  0.06271740  0.31443731  1
  Zn  Zn127  1  0.57150912  0.05390005  0.83941823  1
  Zn  Zn128  1  0.56187650  0.56078858  0.31453302  1
  Zn  Zn129  1  0.56013582  0.55709844  0.80958235  1
  Zn  Zn130  1  0.43922963  0.18565887  0.43849636  1
  Zn  Zn131  1  0.44086699  0.19056307  0.94834978  1
  Zn  Zn132  1  0.44379469  0.68981260  0.43139709  1
  Zn  Zn133  1  0.42848859  0.68135999  0.93758059  1
  Zn  Zn134  1  0.93933187  0.19233817  0.42895141  1
  Zn  Zn135  1  0.94166719  0.18891176  0.93743211  1
  Zn  Zn136  1  0.93335730  0.67672034  0.55098430  1
  Zn  Zn137  1  0.94201114  0.67702886  0.89832955  1
  Zn  Zn138  1  0.06197637  0.30444384  0.05653166  1
  Zn  Zn139  1  0.05511484  0.31084718  0.54875309  1
  Zn  Zn140  1  0.06015422  0.82467484  0.03804949  1
  Zn  Zn141  1  0.05509036  0.82472534  0.58238780  1
  Zn  Zn142  1  0.55399891  0.30872563  0.07086592  1
  Zn  Zn143  1  0.55572298  0.30987603  0.56555439  1
  Zn  Zn144  1  0.56098133  0.81376260  0.07049560  1
  Zn  Zn145  1  0.55882036  0.79341757  0.55673437  1
  O  O146  1  0.13937002  0.11256940  0.12835911  1
  O  O147  1  0.10733529  0.13046543  0.61270546  1
  O  O148  1  0.10387846  0.63613534  0.10121488  1
  O  O149  1  0.07933913  0.65850459  0.62816300  1
  O  O150  1  0.63047301  0.11718900  0.12058192  1
  O  O151  1  0.61353529  0.12698046  0.62885434  1
  O  O152  1  0.62734807  0.60832509  0.12840407  1
  O  O153  1  0.64093320  0.63794217  0.59978767  1
  O  O154  1  0.38869974  0.36778914  0.37948363  1
  O  O155  1  0.36640904  0.38498493  0.87641716  1
  O  O156  1  0.37358681  0.89205333  0.37527031  1
  O  O157  1  0.38400405  0.86024769  0.88682096  1
  O  O158  1  0.85915773  0.37616438  0.38587543  1
  O  O159  1  0.87866821  0.38031997  0.87421875  1
  O  O160  1  0.87249594  0.89013791  0.37333514  1
  O  O161  1  0.87208031  0.89797102  0.87474921  1
  O  O162  1  0.27348622  0.01835889  0.39005548  1
  O  O163  1  0.26161770  0.00403573  0.87735551  1
  O  O164  1  0.26492974  0.49468319  0.38740845  1
  O  O165  1  0.25240140  0.50366228  0.86265715  1
  O  O166  1  0.75798637  0.01085773  0.36727487  1
  O  O167  1  0.76334115  0.01915095  0.86844786  1
  O  O168  1  0.73984277  0.51307193  0.35620830  1
  O  O169  1  0.74422327  0.50044822  0.86914019  1
  O  O170  1  0.24166026  0.48220775  0.12458365  1
  O  O171  1  0.25291214  0.48025582  0.64032349  1
  O  O172  1  0.23790179  0.98846647  0.11591724  1
  O  O173  1  0.27550703  0.98473582  0.62630170  1
  O  O174  1  0.74069523  0.48946110  0.13142173  1
  O  O175  1  0.74666158  0.48744719  0.63643769  1
  O  O176  1  0.75349455  0.99953685  0.13865791  1
  O  O177  1  0.75284558  0.99770986  0.64611881  1
  O  O178  1  0.00800236  0.38881706  0.26058139  1
  O  O179  1  -0.00699125  0.37671569  0.76145163  1
  O  O180  1  0.00599234  0.86877253  0.25095735  1
  O  O181  1  0.01727401  0.86239440  0.70083559  1
  O  O182  1  0.51039694  0.37807089  0.26614750  1
  O  O183  1  0.51077417  0.36397046  0.74886978  1
  O  O184  1  0.51409794  0.87240052  0.23947593  1
  O  O185  1  0.50106562  0.85794372  0.76485294  1
  O  O186  1  0.49865564  0.12519499  0.24183498  1
  O  O187  1  0.50727214  0.12941870  0.74808435  1
  O  O188  1  0.49901337  0.63506119  0.24918055  1
  O  O189  1  0.48965986  0.63153592  0.75765391  1
  O  O190  1  0.97686457  0.11498996  0.25335811  1
  O  O191  1  0.99005258  0.12330054  0.72941671  1
  O  O192  1  0.99490576  0.64736293  0.22287068  1
  O  O193  1  0.97182646  0.64144088  0.78691019  1
  O  O194  1  0.36151260  0.26719662  -0.01322298  1
  O  O195  1  0.38191323  0.25082276  0.51922209  1
  O  O196  1  0.37591289  0.75850150  0.00666466  1
  O  O197  1  0.38871121  0.74101707  0.51834553  1
  O  O198  1  0.87314004  0.24494682  0.01364358  1
  O  O199  1  0.87603909  0.26180876  0.50565695  1
  O  O200  1  0.86996554  0.74683982  -0.04938272  1
  O  O201  1  0.88742553  0.76518694  0.49653087  1
  O  O202  1  0.11995556  0.23374147  0.49159209  1
  O  O203  1  0.13619968  0.25180731  0.98583525  1
  O  O204  1  0.11100059  0.75241673  0.50252006  1
  O  O205  1  0.12148211  0.73784907  0.98206055  1
  O  O206  1  0.62906821  0.25440968  0.49062956  1
  O  O207  1  0.62055528  0.26624807  0.98224406  1
  O  O208  1  0.62591988  0.74350375  0.47826149  1
  O  O209  1  0.61120022  0.73796602  0.99615011  1
  O  O210  1  0.50340063  0.22373695  0.12207111  1
  O  O211  1  0.49427997  0.23873336  0.63789148  1
  O  O212  1  0.50093140  0.74199948  0.13865889  1
  O  O213  1  0.49514391  0.75026504  0.64165379  1
  O  O214  1  0.98234617  0.25923772  0.12381198  1
  O  O215  1  0.98760681  0.24056592  0.61836723  1
  O  O216  1  0.98885046  0.75131242  0.09923384  1
  O  O217  1  1.01708074  0.71675874  0.63154031  1
  O  O218  1  -0.00668931  0.27423481  0.37407448  1
  O  O219  1  0.01145714  0.26484709  0.87961591  1
  O  O220  1  0.00413135  0.74474836  0.36358220  1
  O  O221  1  0.02025918  0.76674338  0.86720948  1
  O  O222  1  0.51502014  0.25898493  0.38129735  1
  O  O223  1  0.51372903  0.24094476  0.86545653  1
  O  O224  1  0.51698559  0.74885000  0.36024336  1
  O  O225  1  0.50413126  0.74536102  0.87241062  1
  O  O226  1  0.23564590  0.12275970  0.51026677  1
  O  O227  1  0.26272048  0.14066819  1.00544975  1
  O  O228  1  0.20896882  0.62705318  0.56510756  1
  O  O229  1  0.23040144  0.61260137  0.98584429  1
  O  O230  1  0.75291676  0.11789462  0.48602271  1
  O  O231  1  0.75368636  0.12690775  0.98585591  1
  O  O232  1  0.74504110  0.61884871  0.47621878  1
  O  O233  1  0.73924511  0.60862010  0.99493534  1
  O  O234  1  0.25633693  0.37548683  0.00787805  1
  O  O235  1  0.25471387  0.37319157  0.52302048  1
  O  O236  1  0.25759355  0.86701011  0.01031220  1
  O  O237  1  0.26076171  0.88149504  0.50596266  1
  O  O238  1  0.74445105  0.38226279  0.01498109  1
  O  O239  1  0.75771023  0.38546299  0.50997979  1
  O  O240  1  0.74585914  0.88239833  0.01477849  1
  O  O241  1  0.76504169  0.87443462  0.48974412  1
  O  O242  1  0.17550825  0.58409264  0.25291029  1
  O  O243  1  0.13391761  0.50603090  0.75043259  1
  O  O244  1  0.11334571  0.99022547  0.23078229  1
  O  O245  1  0.13542298  0.99945224  0.74730025  1
  O  O246  1  0.62937892  0.49071871  0.24242081  1
  O  O247  1  0.63082071  0.48235653  0.75659388  1
  O  O248  1  0.63714760  0.98819687  0.26011992  1
  O  O249  1  0.63662486  0.99599756  0.75964173  1
  O  O250  1  0.38678143  0.01192746  0.27010341  1
  O  O251  1  0.37459352  -0.00798652  0.77209941  1
  O  O252  1  0.37029750  0.49190590  0.27189141  1
  O  O253  1  0.36920488  0.50346434  0.75744368  1
  O  O254  1  0.86435935  0.00711228  0.25835696  1
  O  O255  1  0.86980228  0.01052653  0.75811927  1
  O  O256  1  0.86371818  0.51408428  0.23671305  1
  O  O257  1  0.85277192  0.49259441  0.75883864  1
  O  O258  1  0.12940112  0.36312260  0.37013680  1
  O  O259  1  0.11222462  0.38093966  0.87137208  1
  O  O260  1  0.13369477  0.89145720  0.35647840  1
  O  O261  1  0.14666902  0.86095390  0.87529047  1
  O  O262  1  0.62084904  0.36587900  0.37146308  1
  O  O263  1  0.63178835  0.36159050  0.85719782  1
  O  O264  1  0.63747690  0.86043792  0.35830478  1
  O  O265  1  0.61084163  0.85228975  0.88305666  1
  O  O266  1  0.37140916  0.11555095  0.14211997  1
  O  O267  1  0.38682321  0.13649121  0.62793794  1
  O  O268  1  0.34391684  0.60931935  0.14698030  1
  O  O269  1  0.36730343  0.63134057  0.63657538  1
  O  O270  1  0.86444452  0.13903282  0.13689851  1
  O  O271  1  0.87641662  0.13305323  0.62475407  1
  O  O272  1  0.88314843  0.62782226  0.12451600  1
  O  O273  1  0.86768342  0.62056565  0.62240998  1
  O  O274  1  0.24449015  0.26279336  0.10455151  1
  O  O275  1  0.26383903  0.25471895  0.64132591  1
  O  O276  1  0.23751557  0.75574659  0.13036677  1
  O  O277  1  0.26984560  0.76308678  0.62929547  1
  O  O278  1  0.75013976  0.26394974  0.12682827  1
  O  O279  1  0.75721146  0.25716630  0.62750263  1
  O  O280  1  0.75418919  0.76215439  0.12597195  1
  O  O281  1  0.71803256  0.80435679  0.62876959  1
  O  O282  1  0.26309831  0.23238573  0.38367767  1
  O  O283  1  0.23571129  0.25200559  0.88182733  1
  O  O284  1  0.26146404  0.75889393  0.38548404  1
  O  O285  1  0.25146597  0.73219939  0.86658832  1
  O  O286  1  0.74042142  0.23771602  0.37474087  1
  O  O287  1  0.74322690  0.24485953  0.87073306  1
  O  O288  1  0.74065490  0.73724197  0.35922250  1
  O  O289  1  0.72700724  0.72929317  0.87924191  1
  O  O290  1  0.00146308  0.11284548  -0.00469143  1
  O  O291  1  0.00247395  0.12141997  0.50166437  1
  O  O292  1  -0.00038201  0.62097605  -0.00250711  1
  O  O293  1  0.01352131  0.60693412  0.49943751  1
  O  O294  1  0.51007560  0.12402782  0.00543508  1
  O  O295  1  0.50603463  0.12586102  0.51486426  1
  O  O296  1  0.47821041  0.60505248  0.01317660  1
  O  O297  1  0.51871697  0.62678932  0.49364134  1
  O  O298  1  0.50148803  0.37878053  0.48884481  1
  O  O299  1  0.48005830  0.38370843  1.00907879  1
  O  O300  1  0.50610528  0.88344181  0.51080642  1
  O  O301  1  0.48925713  0.86683577  0.99418891  1
  O  O302  1  0.98697953  0.38241966  0.48654369  1
  O  O303  1  1.00436536  0.38810096  0.98793872  1
  O  O304  1  0.99143539  0.89372041  0.50474518  1
  O  O305  1  1.00456315  0.90580514  0.98529109  1
  O  O306  1  0.49143976  0.48785974  0.37807190  1
  O  O307  1  0.48939984  0.50272735  0.89058725  1
  O  O308  1  0.49734482  1.00160753  0.38855644  1
  O  O309  1  0.48658187  0.97528345  0.87005089  1
  O  O310  1  1.02293456  0.48577871  0.38640484  1
  O  O311  1  0.98690137  0.48985883  0.87501910  1
  O  O312  1  0.98217723  1.01030757  0.38448819  1
  O  O313  1  0.98436500  1.01337878  0.87257153  1
  O  O314  1  0.00963676  0.00221442  0.11438794  1
  O  O315  1  -0.01546936  0.01738972  0.60610189  1
  O  O316  1  -0.00830136  0.50203209  0.10620735  1
  O  O317  1  -0.00433883  0.48597406  0.60739493  1
  O  O318  1  0.50048641  0.01694445  0.12377276  1
  O  O319  1  0.49588314  0.00951318  0.61699737  1
  O  O320  1  0.50218107  0.49939709  0.12121335  1
  O  O321  1  0.50487107  0.49646072  0.63350298  1
  O  O322  1  0.24596710  0.36068490  0.23245551  1
  O  O323  1  0.24549741  0.38272950  0.74759100  1
  O  O324  1  0.23197713  0.87433467  0.23344950  1
  O  O325  1  0.25010480  0.88246671  0.73853933  1
  O  O326  1  0.74120202  0.38437172  0.24439144  1
  O  O327  1  0.73964164  0.37651068  0.73816254  1
  O  O328  1  0.74621866  0.88672593  0.24060777  1
  O  O329  1  0.74819572  0.88965059  0.77065336  1
  O  O330  1  0.26341140  0.12663864  0.26118966  1
  O  O331  1  0.25543733  0.11484866  0.74359376  1
  O  O332  1  0.23850184  0.70018850  0.34670068  1
  O  O333  1  0.25568259  0.61007381  0.75169967  1
  O  O334  1  0.75320373  0.11321448  0.25674906  1
  O  O335  1  0.75995884  0.11981936  0.75250290  1
  O  O336  1  0.75701806  0.62060789  0.24596127  1
  O  O337  1  0.74008011  0.60492619  0.75149912  1
  O  O338  1  0.37594589  0.12352877  0.36605009  1
  O  O339  1  0.38414981  0.11149464  0.88535583  1
  O  O340  1  0.37342453  0.61531148  0.37891932  1
  O  O341  1  0.36417283  0.61158812  0.86747122  1
  O  O342  1  0.86165546  0.12415631  0.36559527  1
  O  O343  1  0.86590998  0.13405495  0.86315089  1
  O  O344  1  0.85927266  0.62551643  0.35482599  1
  O  O345  1  0.84426401  0.60574032  0.87281767  1
  O  O346  1  0.12651313  0.37168546  0.12252997  1
  O  O347  1  0.13646522  0.35127845  0.62405489  1
  O  O348  1  0.13306226  0.87815777  0.11838268  1
  O  O349  1  0.15354149  0.87470465  0.61647252  1
  O  O350  1  0.63039613  0.37930063  0.13300406  1
  O  O351  1  0.63122197  0.36313808  0.63627664  1
  O  O352  1  0.63724524  0.87298487  0.13765107  1
  O  O353  1  0.65377564  0.84259634  0.62975237  1
  O  O354  1  0.11555257  0.20728017  0.25944189  1
  O  O355  1  0.11949808  0.24372635  0.76426740  1
  O  O356  1  0.10806353  0.76791017  0.24340897  1
  O  O357  1  0.13532117  0.75084017  0.75872107  1
  O  O358  1  0.63314237  0.26249664  0.25968880  1
  O  O359  1  0.61477861  0.25660315  0.75496763  1
  O  O360  1  0.61776617  0.76006326  0.25146722  1
  O  O361  1  0.60894171  0.74531119  0.76113265  1
  O  O362  1  0.38013003  0.23564688  0.25112476  1
  O  O363  1  0.39210259  0.24986148  0.74991981  1
  O  O364  1  0.39314714  0.76057209  0.25812947  1
  O  O365  1  0.38466423  0.73743638  0.74580956  1
  O  O366  1  0.86903679  0.23887615  0.24504058  1
  O  O367  1  0.87980179  0.24298296  0.73614413  1
  O  O368  1  0.88706568  0.74496911  0.25135282  1
  O  O369  1  0.86688709  0.75930501  0.75669134  1
  O  O370  1  0.37894525  0.49987157  0.49407232  1
  O  O371  1  0.37475236  0.48657199  0.99279494  1
  O  O372  1  0.39682594  1.00981255  0.48835790  1
  O  O373  1  0.37169411  0.97700085  0.98453494  1
  O  O374  1  0.87842695  0.48952344  0.49653421  1
  O  O375  1  0.88626086  0.50297709  0.98840804  1
  O  O376  1  0.87653446  0.99618942  0.48634451  1
  O  O377  1  0.88426432  1.01076155  0.98947848  1
  O  O378  1  0.11965999  0.00550599  0.00899987  1
  O  O379  1  0.10761302  0.00863203  0.49283448  1
  O  O380  1  0.10467897  0.51674161  -0.01484088  1
  O  O381  1  0.11922858  0.48560386  0.51326711  1
  O  O382  1  0.61005516  0.01695647  -0.05686346  1
  O  O383  1  0.61271002  -0.00185926  0.49288339  1
  O  O384  1  0.60287307  0.48993101  0.00689792  1
  O  O385  1  0.62370721  0.51423763  0.49498981  1
  O  O386  1  0.36638981  0.37489379  0.11801277  1
  O  O387  1  0.36904488  0.35716140  0.62987722  1
  O  O388  1  0.36057068  0.87941108  0.11830031  1
  O  O389  1  0.37907140  0.86040228  0.62870319  1
  O  O390  1  0.85973948  0.36500181  0.13145202  1
  O  O391  1  0.86440865  0.36709646  0.61616572  1
  O  O392  1  0.86325579  0.88187512  0.12740270  1
  O  O393  1  0.87010067  0.88035776  0.60875050  1
  O  O394  1  0.14753141  0.11284680  0.38466129  1
  O  O395  1  0.11858790  0.13353700  0.87730633  1
  O  O396  1  0.14398486  0.62050030  0.41627890  1
  O  O397  1  0.12846037  0.63472741  0.87606838  1
  O  O398  1  0.63396169  0.13683578  0.37208676  1
  O  O399  1  0.64259832  0.14358968  0.86667987  1
  O  O400  1  0.63632044  0.63607986  0.36685389  1
  O  O401  1  0.62628790  0.62474947  0.87801991  1
