# generated using pymatgen
data_V73Zn73O256
_symmetry_space_group_name_H-M   'P 1'
_cell_length_a   16.90460623
_cell_length_b   16.85827749
_cell_length_c   16.89992302
_cell_angle_alpha   90.08733103
_cell_angle_beta   90.21138634
_cell_angle_gamma   90.16591522
_symmetry_Int_Tables_number   1
_chemical_formula_structural   V73Zn73O256
_chemical_formula_sum   'V73 Zn73 O256'
_cell_volume   4816.12439069
_cell_formula_units_Z   1
loop_
 _symmetry_equiv_pos_site_id
 _symmetry_equiv_pos_as_xyz
  1  'x, y, z'
loop_
 _atom_site_type_symbol
 _atom_site_label
 _atom_site_symmetry_multiplicity
 _atom_site_fract_x
 _atom_site_fract_y
 _atom_site_fract_z
 _atom_site_occupancy
  V  V0  1  0.00147970  0.12835926  0.64120309  1
  V  V1  1  0.12150319  0.13099279  0.00443768  1
  V  V2  1  0.27524131  0.87058369  0.12245679  1
  V  V3  1  0.88299665  0.24889609  0.63750741  1
  V  V4  1  0.49894635  0.38978773  0.87526454  1
  V  V5  1  0.61902774  0.87364171  0.24351696  1
  V  V6  1  0.25287344  0.11099649  0.87718031  1
  V  V7  1  0.61170753  0.01319472  0.11699306  1
  V  V8  1  0.74807205  0.87931005  0.12174580  1
  V  V9  1  0.75898324  0.62584348  0.36011643  1
  V  V10  1  0.37976221  0.38313855  0.00256094  1
  V  V11  1  0.59451230  0.09791885  0.49812051  1
  V  V12  1  0.62689631  0.25118903  0.89772323  1
  V  V13  1  -0.00273821  0.22896711  0.25011581  1
  V  V14  1  0.75176069  0.49940227  0.75225832  1
  V  V15  1  0.48323144  0.25133180  0.75205878  1
  V  V16  1  0.25868882  0.24997700  0.50156197  1
  V  V17  1  0.39473166  0.89104385  0.49410054  1
  V  V18  1  0.87295993  0.63129203  0.75236159  1
  V  V19  1  0.24938870  0.37492834  0.13698908  1
  V  V20  1  0.49229607  0.26303656  0.25823117  1
  V  V21  1  0.00669502  0.76998350  0.25883939  1
  V  V22  1  0.11306477  0.38470420  0.25479033  1
  V  V23  1  0.13933695  0.75875943  0.38204378  1
  V  V24  1  0.24873208  0.37977395  0.62898636  1
  V  V25  1  0.12079752  -0.01067963  0.13311222  1
  V  V26  1  0.50597350  0.61719156  0.62179479  1
  V  V27  1  0.62121275  0.50450171  0.13764014  1
  V  V28  1  0.12337121  0.63390557  -0.01544385  1
  V  V29  1  0.50721052  0.75186832  0.74841897  1
  V  V30  1  0.38777254  0.49987544  0.37636450  1
  V  V31  1  0.00387668  0.63722845  0.61927205  1
  V  V32  1  0.88440932  0.37632269  0.49756280  1
  V  V33  1  0.47743599  -0.00552488  0.00071064  1
  V  V34  1  0.60805411  0.61828912  -0.00347488  1
  V  V35  1  0.48598646  0.87591897  0.87914171  1
  V  V36  1  0.61782476  0.74990573  0.37749836  1
  V  V37  1  0.88235069  0.47911725  0.87429352  1
  V  V38  1  0.37493565  0.75018228  0.61496814  1
  V  V39  1  0.75177519  0.24138266  0.48742838  1
  V  V40  1  0.35419513  0.50333334  0.86742150  1
  V  V41  1  0.84608849  -0.00093707  0.36145511  1
  V  V42  1  0.47583995  0.13534223  0.11404694  1
  V  V43  1  0.36653950  0.62366825  0.23891211  1
  V  V44  1  0.12994217  0.87177127  0.76010595  1
  V  V45  1  0.37311073  0.12607363  0.26489566  1
  V  V46  1  -0.00132905  0.62345717  0.13616412  1
  V  V47  1  0.86356865  0.24574641  0.12062954  1
  V  V48  1  0.62862430  0.61598024  0.50005330  1
  V  V49  1  0.10644648  0.36794760  0.76199901  1
  V  V50  1  0.39751892  0.37438034  0.50012879  1
  V  V51  1  0.87895846  0.50385709  0.36626971  1
  V  V52  1  0.63097280  0.75616129  0.87508690  1
  V  V53  1  0.00510094  0.75661474  0.76298292  1
  V  V54  1  0.75674967  0.38616281  0.09997078  1
  V  V55  1  0.36041683  0.62058331  0.74533931  1
  V  V56  1  0.12606897  0.24755546  0.37265411  1
  V  V57  1  0.01277595  0.50020809  0.50222634  1
  V  V58  1  0.75966115  0.74426849  -0.00201877  1
  V  V59  1  -0.00163377  -0.01416567  -0.00184884  1
  V  V60  1  0.13097991  -0.00062972  0.63025108  1
  V  V61  1  0.74313715  0.90658274  0.65529342  1
  V  V62  1  0.49414191  0.74286028  0.23163405  1
  V  V63  1  0.76921883  0.75572648  0.50906175  1
  V  V64  1  0.25039792  0.26001931  -0.00846038  1
  V  V65  1  0.25903277  -0.00373811  0.26081958  1
  V  V66  1  0.12774605  0.12433005  0.49636762  1
  V  V67  1  0.25239149  0.87249126  0.61712425  1
  V  V68  1  0.37149757  0.10727492  0.75614870  1
  V  V69  1  -0.00922683  -0.00424011  0.49155972  1
  V  V70  1  0.87499224  0.75064767  0.13590619  1
  V  V71  1  0.75613217  0.37186380  0.62743623  1
  V  V72  1  0.62803020  0.36643918  0.75143026  1
  Zn  Zn73  1  -0.00441039  0.50648945  -0.00631302  1
  Zn  Zn74  1  0.24081244  0.75087818  0.01335617  1
  Zn  Zn75  1  0.12844960  0.50870339  0.12475348  1
  Zn  Zn76  1  0.62112080  0.48951582  0.61909812  1
  Zn  Zn77  1  0.13858254  0.51215609  0.63962390  1
  Zn  Zn78  1  0.82912931  0.12671193  0.26173977  1
  Zn  Zn79  1  0.24533091  0.61536978  0.38447814  1
  Zn  Zn80  1  0.48761612  0.12813069  0.62030269  1
  Zn  Zn81  1  0.75706730  0.09898469  0.86058531  1
  Zn  Zn82  1  0.19628477  0.18767035  0.18452186  1
  Zn  Zn83  1  0.19334147  0.19171773  0.68960374  1
  Zn  Zn84  1  0.18567885  0.69397173  0.19487619  1
  Zn  Zn85  1  0.18936671  0.68261330  0.55988127  1
  Zn  Zn86  1  0.67688027  0.20340529  0.18878623  1
  Zn  Zn87  1  0.67434818  0.09439708  0.67761309  1
  Zn  Zn88  1  0.68375962  0.68678563  0.18226667  1
  Zn  Zn89  1  0.68994211  0.68941080  0.68481867  1
  Zn  Zn90  1  0.31565514  0.31354260  0.31950964  1
  Zn  Zn91  1  0.30163523  0.31551540  0.81772701  1
  Zn  Zn92  1  0.31950957  0.81630820  0.31441009  1
  Zn  Zn93  1  0.31103631  0.80791184  0.80364174  1
  Zn  Zn94  1  0.82462903  0.31444346  0.31561530  1
  Zn  Zn95  1  0.83497352  0.26876747  0.84677403  1
  Zn  Zn96  1  0.80826893  0.81789468  0.31590616  1
  Zn  Zn97  1  0.80857403  0.80953399  0.80182584  1
  Zn  Zn98  1  0.19835940  0.43607159  0.43174664  1
  Zn  Zn99  1  0.17461530  0.44464385  0.93618103  1
  Zn  Zn100  1  0.18725820  0.93367756  0.44141251  1
  Zn  Zn101  1  0.18816855  0.93648034  0.94702771  1
  Zn  Zn102  1  0.70033264  0.43692783  0.43736997  1
  Zn  Zn103  1  0.68962342  0.44139401  0.93281343  1
  Zn  Zn104  1  0.68199800  0.93064623  0.44249705  1
  Zn  Zn105  1  0.69018471  0.95204879  0.94071088  1
  Zn  Zn106  1  0.30164811  0.05695188  0.06261426  1
  Zn  Zn107  1  0.31267498  0.06450207  0.56656508  1
  Zn  Zn108  1  0.30454392  0.55942685  0.05913366  1
  Zn  Zn109  1  0.32251910  0.55324973  0.55421808  1
  Zn  Zn110  1  0.80335501  0.06193163  0.06562729  1
  Zn  Zn111  1  0.81706064  0.06222368  0.56426188  1
  Zn  Zn112  1  0.81533414  0.56515879  0.05741447  1
  Zn  Zn113  1  0.81820992  0.56619082  0.56224653  1
  Zn  Zn114  1  0.43503433  0.45048490  0.18444114  1
  Zn  Zn115  1  0.43200702  0.43393325  0.68503488  1
  Zn  Zn116  1  0.45614760  0.95069589  0.31835190  1
  Zn  Zn117  1  0.44234798  0.93480938  0.69191932  1
  Zn  Zn118  1  0.93770622  0.43350577  0.18453139  1
  Zn  Zn119  1  0.94422997  0.44220997  0.68698351  1
  Zn  Zn120  1  0.93108614  0.94647999  0.18833154  1
  Zn  Zn121  1  0.94732394  0.90970429  0.64499056  1
  Zn  Zn122  1  0.06897573  0.05490697  0.31493744  1
  Zn  Zn123  1  0.06740260  0.05914652  0.81982871  1
  Zn  Zn124  1  0.06201377  0.57325740  0.31872392  1
  Zn  Zn125  1  0.06353886  0.55711168  0.80559963  1
  Zn  Zn126  1  0.64250184  0.06794085  0.31944520  1
  Zn  Zn127  1  0.57364260  0.05976292  0.82640944  1
  Zn  Zn128  1  0.55982467  0.56617624  0.31180152  1
  Zn  Zn129  1  0.56729102  0.56547970  0.80928836  1
  Zn  Zn130  1  0.44674710  0.19122665  0.42965299  1
  Zn  Zn131  1  0.43934720  0.19321839  0.93610481  1
  Zn  Zn132  1  0.43648728  0.68484881  0.43980424  1
  Zn  Zn133  1  0.43734150  0.68127590  0.93075683  1
  Zn  Zn134  1  0.93641486  0.18019457  0.43545612  1
  Zn  Zn135  1  0.91241885  0.13825788  0.96119457  1
  Zn  Zn136  1  0.94340098  0.68747140  0.43465162  1
  Zn  Zn137  1  0.93841164  0.68476176  0.93748587  1
  Zn  Zn138  1  0.06755304  0.29546635  0.08203313  1
  Zn  Zn139  1  0.06831726  0.31315099  0.56626050  1
  Zn  Zn140  1  0.06016172  0.81151762  0.06247472  1
  Zn  Zn141  1  0.06409265  0.81466930  0.55670166  1
  Zn  Zn142  1  0.57051721  0.31220175  0.09245480  1
  Zn  Zn143  1  0.57816864  0.28436960  0.57351161  1
  Zn  Zn144  1  0.55901307  0.81001108  0.05416032  1
  Zn  Zn145  1  0.57234650  0.81504499  0.56584456  1
  O  O146  1  0.14230471  0.11409845  0.10920384  1
  O  O147  1  0.11953369  0.12075077  0.62112914  1
  O  O148  1  0.10959684  0.62855529  0.12710956  1
  O  O149  1  0.11035879  0.62518219  0.62554550  1
  O  O150  1  0.60868724  0.11489084  0.12029643  1
  O  O151  1  0.61324045  0.14661010  0.59376403  1
  O  O152  1  0.63354527  0.61378914  0.10874541  1
  O  O153  1  0.62183482  0.62187321  0.61683780  1
  O  O154  1  0.37657402  0.38223600  0.38993470  1
  O  O155  1  0.37634769  0.38999132  0.87764557  1
  O  O156  1  0.38729766  0.88140231  0.38785104  1
  O  O157  1  0.38840797  0.87456093  0.86261194  1
  O  O158  1  0.87370034  0.39263819  0.38591992  1
  O  O159  1  0.87084668  0.37974334  0.86894701  1
  O  O160  1  0.86809979  0.89918949  0.37030260  1
  O  O161  1  0.87218518  0.90220675  0.86550399  1
  O  O162  1  0.24092709  -0.00511851  0.35888804  1
  O  O163  1  0.25501797  0.01212600  0.88696937  1
  O  O164  1  0.27336968  0.49957918  0.37819445  1
  O  O165  1  0.25616614  0.49946429  0.86738784  1
  O  O166  1  0.74389697  0.00206261  0.37253809  1
  O  O167  1  0.68093213  0.01203450  0.84230679  1
  O  O168  1  0.76544356  0.51520240  0.37853579  1
  O  O169  1  0.76223762  0.49641868  0.85845891  1
  O  O170  1  0.24221610  0.48039237  0.12015576  1
  O  O171  1  0.24934795  0.48523413  0.61147356  1
  O  O172  1  0.24389350  0.98641079  0.13174268  1
  O  O173  1  0.23822516  0.99284842  0.62557221  1
  O  O174  1  0.75547902  0.49100982  0.12178834  1
  O  O175  1  0.75615422  0.48713431  0.63215412  1
  O  O176  1  0.73048261  0.98424352  0.11958463  1
  O  O177  1  0.74613907  1.01188731  0.63742120  1
  O  O178  1  0.01229129  0.36397139  0.24680689  1
  O  O179  1  0.00607802  0.36705143  0.74547878  1
  O  O180  1  -0.00439478  0.86847368  0.24654375  1
  O  O181  1  0.00600338  0.86260206  0.73509700  1
  O  O182  1  0.46475986  0.35911583  0.24354931  1
  O  O183  1  0.50382922  0.37146757  0.75478946  1
  O  O184  1  0.51194126  0.85687288  0.25403032  1
  O  O185  1  0.50234618  0.86010223  0.76017774  1
  O  O186  1  0.48173656  0.14182145  0.22752028  1
  O  O187  1  0.48085378  0.14148854  0.76992921  1
  O  O188  1  0.49052469  0.63691012  0.24978037  1
  O  O189  1  0.50218982  0.63531258  0.74023856  1
  O  O190  1  1.00665344  0.13006159  0.24863647  1
  O  O191  1  1.01137239  0.12309785  0.73959922  1
  O  O192  1  0.99820721  0.63595759  0.23857616  1
  O  O193  1  0.99631047  0.63876680  0.74205478  1
  O  O194  1  0.36187336  0.27212980  -0.01005202  1
  O  O195  1  0.36375332  0.25667931  0.48867470  1
  O  O196  1  0.34558032  0.74787051  -0.04604064  1
  O  O197  1  0.38745183  0.76357197  0.51127440  1
  O  O198  1  0.87663759  0.23958444  0.02304463  1
  O  O199  1  0.87903128  0.26128074  0.50249011  1
  O  O200  1  0.86341832  0.75130332  0.00381599  1
  O  O201  1  0.86838847  0.74537201  0.49681261  1
  O  O202  1  0.12919009  0.24368130  0.49229278  1
  O  O203  1  0.13871177  0.24043692  1.00920882  1
  O  O204  1  0.12282740  0.74742213  0.48938851  1
  O  O205  1  0.12115355  0.74023795  0.99825446  1
  O  O206  1  0.65488560  0.27428854  0.49280751  1
  O  O207  1  0.61438887  0.27177117  0.99575413  1
  O  O208  1  0.63256217  0.74192877  0.48586988  1
  O  O209  1  0.63063409  0.73850365  0.99216734  1
  O  O210  1  0.48184220  0.23408946  0.09533438  1
  O  O211  1  0.49929158  0.24659924  0.64910297  1
  O  O212  1  0.49917264  0.74835830  0.13292333  1
  O  O213  1  0.49908672  0.74394894  0.63216118  1
  O  O214  1  0.98209868  0.24977532  0.14157515  1
  O  O215  1  0.99544380  0.23881930  0.61996984  1
  O  O216  1  0.99309573  0.74743555  0.13637859  1
  O  O217  1  1.00040557  0.74028008  0.62558197  1
  O  O218  1  0.01212578  0.24422273  0.36242023  1
  O  O219  1  -0.00319945  0.31689460  0.93334941  1
  O  O220  1  0.00125816  0.74975268  0.36112185  1
  O  O221  1  -0.00939002  0.75721787  0.86144338  1
  O  O222  1  0.50891566  0.25284681  0.35649029  1
  O  O223  1  0.50007237  0.27098595  0.87077282  1
  O  O224  1  0.51692862  0.74441975  0.37511218  1
  O  O225  1  0.50665832  0.75656825  0.86923799  1
  O  O226  1  0.24134484  0.13829521  0.51030826  1
  O  O227  1  0.25223782  0.13793249  0.99163786  1
  O  O228  1  0.26417554  0.62876880  0.49829192  1
  O  O229  1  0.22684765  0.62703383  1.00949660  1
  O  O230  1  0.75558290  0.14218209  0.50948812  1
  O  O231  1  0.75499664  0.05075971  0.96448421  1
  O  O232  1  0.74478870  0.63316238  0.49498132  1
  O  O233  1  0.74633346  0.64181020  0.99906327  1
  O  O234  1  0.24806114  0.36903597  0.00086491  1
  O  O235  1  0.25122511  0.36114121  0.50514959  1
  O  O236  1  0.24700745  0.87252891  0.01724726  1
  O  O237  1  0.26547197  0.88034400  0.51233035  1
  O  O238  1  0.75979400  0.37996704  0.00147126  1
  O  O239  1  0.76843085  0.37538742  0.50913375  1
  O  O240  1  0.73649538  0.86174566  0.01460777  1
  O  O241  1  0.75068167  0.85413251  0.49028550  1
  O  O242  1  0.11367256  0.48754922  0.25228039  1
  O  O243  1  0.12179209  0.48046631  0.74731668  1
  O  O244  1  0.14100980  1.01051880  0.23763833  1
  O  O245  1  0.11359597  0.98481809  0.73860952  1
  O  O246  1  0.63059766  0.51559863  0.23660183  1
  O  O247  1  0.63584116  0.49181575  0.74748663  1
  O  O248  1  0.61707933  0.97835999  0.22742632  1
  O  O249  1  0.58385757  1.01899688  0.71338570  1
  O  O250  1  0.36964127  0.00950998  0.25733586  1
  O  O251  1  0.37963737  0.00870493  0.76004686  1
  O  O252  1  0.37827557  0.51516359  0.25974603  1
  O  O253  1  0.37335234  0.50915505  0.75382271  1
  O  O254  1  0.86170381  0.00639949  0.25584953  1
  O  O255  1  0.87160776  -0.03315361  0.82892248  1
  O  O256  1  0.88628938  0.49471047  0.26814444  1
  O  O257  1  0.87192619  0.50381681  0.75681999  1
  O  O258  1  0.13192056  0.36530834  0.35892438  1
  O  O259  1  0.12615884  0.37454147  0.86282672  1
  O  O260  1  0.12197907  0.86032106  0.38330911  1
  O  O261  1  0.13351817  0.88445614  0.85847144  1
  O  O262  1  0.66571681  0.37849776  0.33554891  1
  O  O263  1  0.61467643  0.37820133  0.86911866  1
  O  O264  1  0.63646997  0.85500528  0.35825430  1
  O  O265  1  0.61410748  0.85715148  0.88565548  1
  O  O266  1  0.37534907  0.11974232  0.12515888  1
  O  O267  1  0.37208495  0.12172905  0.65015738  1
  O  O268  1  0.36664999  0.61597938  0.13883932  1
  O  O269  1  0.38608378  0.62884723  0.63059666  1
  O  O270  1  0.84162129  0.14306309  0.14014976  1
  O  O271  1  0.89119297  0.13679475  0.62554461  1
  O  O272  1  0.88778410  0.63899051  0.11742247  1
  O  O273  1  0.89394989  0.61272108  0.64054842  1
  O  O274  1  0.25070297  0.26693605  0.11284776  1
  O  O275  1  0.24890739  0.25986841  0.60897280  1
  O  O276  1  0.24871084  0.76648390  0.13234155  1
  O  O277  1  0.26453715  0.75857046  0.62098075  1
  O  O278  1  0.75377538  0.27436453  0.13427952  1
  O  O279  1  0.77291756  0.26166336  0.61320048  1
  O  O280  1  0.75679119  0.75269538  0.11524610  1
  O  O281  1  0.75340413  0.74435050  0.60985579  1
  O  O282  1  0.23747111  0.25276699  0.38764225  1
  O  O283  1  0.24367901  0.24750110  0.88877465  1
  O  O284  1  0.24143673  0.75700544  0.37299008  1
  O  O285  1  0.28563921  0.73814097  0.89279202  1
  O  O286  1  0.77042825  0.24632202  0.38839827  1
  O  O287  1  0.72570290  0.26241502  0.88158890  1
  O  O288  1  0.74825736  0.73682594  0.38063243  1
  O  O289  1  0.74150180  0.75975073  0.88632121  1
  O  O290  1  0.02223114  0.13771715  -0.00126810  1
  O  O291  1  0.01172928  0.11606792  0.50661144  1
  O  O292  1  0.00828593  0.63018513  0.01144520  1
  O  O293  1  -0.00639347  0.61652971  0.51295785  1
  O  O294  1  0.48376167  0.10697892  0.00224924  1
  O  O295  1  0.48873691  0.11626329  0.50278625  1
  O  O296  1  0.50798925  0.62858681  0.00229228  1
  O  O297  1  0.51457032  0.63138052  0.51131658  1
  O  O298  1  0.49305413  0.35280879  0.51149870  1
  O  O299  1  0.48104722  0.37957807  0.99429950  1
  O  O300  1  0.49316737  0.87971881  0.51235415  1
  O  O301  1  0.49029204  0.87576639  0.98858931  1
  O  O302  1  0.99596108  0.38805216  0.50651496  1
  O  O303  1  1.00698067  0.35987701  0.99426673  1
  O  O304  1  0.99204960  0.89735691  0.52831392  1
  O  O305  1  0.99129337  0.88592662  1.00735568  1
  O  O306  1  0.49000545  0.49724815  0.36823593  1
  O  O307  1  0.49342464  0.49273673  0.86649066  1
  O  O308  1  0.54475714  1.01147927  0.35023900  1
  O  O309  1  0.50340024  0.98519517  0.88896291  1
  O  O310  1  0.98761982  0.51697548  0.39088062  1
  O  O311  1  0.98569610  0.49524731  0.87019263  1
  O  O312  1  1.01246636  0.99363253  0.39288193  1
  O  O313  1  1.00736024  1.00427367  0.89846752  1
  O  O314  1  0.01595307  -0.00017686  0.12599074  1
  O  O315  1  0.00561358  0.01652112  0.61910607  1
  O  O316  1  -0.00590581  0.51504797  0.12383556  1
  O  O317  1  0.00882664  0.50734216  0.61243147  1
  O  O318  1  0.50046789  0.00864492  0.11291102  1
  O  O319  1  0.51908957  0.01695412  0.65903448  1
  O  O320  1  0.52219327  0.49120489  0.12477880  1
  O  O321  1  0.50307967  0.51262003  0.63263688  1
  O  O322  1  0.24540422  0.36783799  0.23996768  1
  O  O323  1  0.26085708  0.37387999  0.72937952  1
  O  O324  1  0.26428027  0.88998052  0.24115476  1
  O  O325  1  0.23632494  0.86587037  0.73840338  1
  O  O326  1  0.72020696  0.37090758  0.28200268  1
  O  O327  1  0.74358022  0.38056529  0.74110261  1
  O  O328  1  0.73169579  0.85888828  0.23374196  1
  O  O329  1  0.74001866  0.88381040  0.75470254  1
  O  O330  1  0.26582655  0.11423836  0.24287019  1
  O  O331  1  0.25833974  0.12772972  0.76523088  1
  O  O332  1  0.26552887  0.63605751  0.25889180  1
  O  O333  1  0.26569173  0.62935358  0.74037264  1
  O  O334  1  0.71552734  0.12695308  0.25745878  1
  O  O335  1  0.72917431  0.14304275  0.76093346  1
  O  O336  1  0.75008323  0.63220094  0.26172035  1
  O  O337  1  0.76589674  0.61606926  0.73841959  1
  O  O338  1  0.38012789  0.12192472  0.36382786  1
  O  O339  1  0.36137741  0.13295591  0.86978490  1
  O  O340  1  0.37874804  0.61211979  0.37374583  1
  O  O341  1  0.37960397  0.61061277  0.85768180  1
  O  O342  1  0.87925266  0.10558013  0.36921135  1
  O  O343  1  0.85693026  0.15830200  0.86930787  1
  O  O344  1  0.86658711  0.61838536  0.37559742  1
  O  O345  1  0.88234440  0.61850541  0.85555849  1
  O  O346  1  0.13230469  0.37394869  0.13975727  1
  O  O347  1  0.13936342  0.37822479  0.62897906  1
  O  O348  1  0.12559728  0.88782566  0.12641150  1
  O  O349  1  0.13549102  0.88028637  0.62636818  1
  O  O350  1  0.64657068  0.39550383  0.11950161  1
  O  O351  1  0.63725563  0.37094721  0.63395025  1
  O  O352  1  0.62806649  0.86285546  0.13313434  1
  O  O353  1  0.65257403  0.87099046  0.62014266  1
  O  O354  1  0.11759872  0.24940616  0.25273154  1
  O  O355  1  0.13403263  0.26933896  0.74395971  1
  O  O356  1  0.11212329  0.75835879  0.25958499  1
  O  O357  1  0.11086599  0.76308388  0.75556055  1
  O  O358  1  0.58492201  0.26652428  0.20699741  1
  O  O359  1  0.60991996  0.26490186  0.76460021  1
  O  O360  1  0.61261278  0.74558751  0.25556232  1
  O  O361  1  0.62305420  0.74068591  0.76622866  1
  O  O362  1  0.37478571  0.23611886  0.25626368  1
  O  O363  1  0.38261689  0.25810335  0.75788725  1
  O  O364  1  0.38860716  0.74063482  0.25727883  1
  O  O365  1  0.38600359  0.73751346  0.73938406  1
  O  O366  1  0.88744962  0.24294344  0.25338202  1
  O  O367  1  0.87625183  0.25877153  0.73402050  1
  O  O368  1  0.88198349  0.75632214  0.24110557  1
  O  O369  1  0.88094999  0.73860599  0.74944466  1
  O  O370  1  0.39288523  0.48517310  0.49152698  1
  O  O371  1  0.36415933  0.49342523  0.98160794  1
  O  O372  1  0.37901886  0.98944231  0.51227080  1
  O  O373  1  0.37898488  0.99105255  1.00200849  1
  O  O374  1  0.88611968  0.49295737  0.49724684  1
  O  O375  1  0.87675600  0.50563947  0.97855242  1
  O  O376  1  0.88707499  1.00965217  0.48832847  1
  O  O377  1  0.90622089  1.03117591  1.01890346  1
  O  O378  1  0.11578881  0.00660023  0.01289010  1
  O  O379  1  0.12146154  0.00684533  0.51097715  1
  O  O380  1  0.11283846  0.51223091  0.00471693  1
  O  O381  1  0.11215026  0.49448318  0.48844663  1
  O  O382  1  0.60551258  -0.01601271  0.01743248  1
  O  O383  1  0.61989550  0.00019785  0.50459464  1
  O  O384  1  0.62866623  0.51652953  -0.00497179  1
  O  O385  1  0.63443906  0.50993222  0.49915423  1
  O  O386  1  0.36234995  0.38923804  0.10817669  1
  O  O387  1  0.36581735  0.37891953  0.60625731  1
  O  O388  1  0.37104415  0.87272330  0.12155683  1
  O  O389  1  0.37180652  0.86880556  0.62542938  1
  O  O390  1  0.86210225  0.36633989  0.13312742  1
  O  O391  1  0.87764070  0.36807604  0.61842158  1
  O  O392  1  0.85450986  0.87114466  0.12967731  1
  O  O393  1  0.84047314  0.88373637  0.62986916  1
  O  O394  1  0.12491818  0.13101694  0.38764093  1
  O  O395  1  0.14106629  0.11870664  0.89144192  1
  O  O396  1  0.13221613  0.64477929  0.36785898  1
  O  O397  1  0.11561688  0.62290636  0.88563786  1
  O  O398  1  0.62453596  0.13907331  0.41253711  1
  O  O399  1  0.60448088  0.15259457  0.88896349  1
  O  O400  1  0.63703111  0.63096463  0.37933680  1
  O  O401  1  0.61872931  0.63716376  0.88677507  1
