# generated using pymatgen
data_V73Zn73O256
_symmetry_space_group_name_H-M   'P 1'
_cell_length_a   16.89846843
_cell_length_b   16.92060415
_cell_length_c   16.88261990
_cell_angle_alpha   90.35768505
_cell_angle_beta   90.45390139
_cell_angle_gamma   90.10373339
_symmetry_Int_Tables_number   1
_chemical_formula_structural   V73Zn73O256
_chemical_formula_sum   'V73 Zn73 O256'
_cell_volume   4827.03236680
_cell_formula_units_Z   1
loop_
 _symmetry_equiv_pos_site_id
 _symmetry_equiv_pos_as_xyz
  1  'x, y, z'
loop_
 _atom_site_type_symbol
 _atom_site_label
 _atom_site_symmetry_multiplicity
 _atom_site_fract_x
 _atom_site_fract_y
 _atom_site_fract_z
 _atom_site_occupancy
  V  V0  1  0.87499737  0.38331800  0.00531322  1
  V  V1  1  0.50692172  0.61826727  0.62191091  1
  V  V2  1  0.50647613  0.35535460  0.87055380  1
  V  V3  1  0.48297846  0.87828630  0.88070131  1
  V  V4  1  0.13093438  0.51416273  0.61603797  1
  V  V5  1  0.62972076  0.61611592  0.00418400  1
  V  V6  1  0.86063325  0.00020964  0.38018882  1
  V  V7  1  0.61924662  0.49140002  0.12941827  1
  V  V8  1  0.36461596  0.36815073  0.50462185  1
  V  V9  1  0.24838983  0.01101796  0.25271023  1
  V  V10  1  0.61555703  -0.02905151  0.60750002  1
  V  V11  1  0.25444402  0.49403730  0.74393042  1
  V  V12  1  0.38807037  0.50108719  0.88051981  1
  V  V13  1  0.12413156  0.75662490  0.87655728  1
  V  V14  1  -0.00121606  0.37073714  0.38201403  1
  V  V15  1  0.10271835  0.38252131  0.75048792  1
  V  V16  1  0.12585414  0.11791145  0.00361880  1
  V  V17  1  0.12471400  0.62159877  0.01433677  1
  V  V18  1  0.38226062  0.75453747  0.13513344  1
  V  V19  1  0.25136207  0.88203967  0.13110697  1
  V  V20  1  0.87088427  0.50147541  0.37260921  1
  V  V21  1  0.47795631  0.85211783  0.37117519  1
  V  V22  1  0.51794623  0.13411679  0.61333913  1
  V  V23  1  0.24230506  0.12793464  0.40127425  1
  V  V24  1  0.23874731  0.49749057  0.24358951  1
  V  V25  1  0.87222412  0.72895753  0.64463795  1
  V  V26  1  0.86978061  0.87074417  0.50424079  1
  V  V27  1  0.11990993  0.87332627  0.24762951  1
  V  V28  1  0.76058378  0.24623150  0.50330703  1
  V  V29  1  0.37422512  0.49719858  0.37653230  1
  V  V30  1  0.49557296  0.13475383  0.14018460  1
  V  V31  1  0.01576972  0.24558657  0.24227692  1
  V  V32  1  -0.00249238  0.88268038  0.37695648  1
  V  V33  1  0.50332520  0.62478889  0.12360693  1
  V  V34  1  0.37535674  0.00839021  0.39116535  1
  V  V35  1  0.74949054  0.50552216  0.25625158  1
  V  V36  1  0.38172458  0.62816311  0.24958452  1
  V  V37  1  0.24530554  0.25661631  -0.00295162  1
  V  V38  1  0.62871806  0.37784860  0.72796702  1
  V  V39  1  0.77828557  0.39359105  0.61662748  1
  V  V40  1  0.74835285  0.24021423  -0.01175647  1
  V  V41  1  0.11843196  0.75034201  0.38528839  1
  V  V42  1  0.25328845  0.62790721  0.87469466  1
  V  V43  1  0.13101964  0.85931028  0.73123322  1
  V  V44  1  0.74423392  -0.01158973  0.24422659  1
  V  V45  1  0.63419636  0.61787451  0.48932195  1
  V  V46  1  0.25864491  0.75528400  0.00296454  1
  V  V47  1  0.62703378  0.74838614  0.88714724  1
  V  V48  1  0.25168229  0.13980912  0.85552815  1
  V  V49  1  0.87460673  0.50439564  0.87212939  1
  V  V50  1  0.63281586  0.22897548  0.37249810  1
  V  V51  1  0.38244373  0.62617162  0.74824054  1
  V  V52  1  0.87115438  0.12170491  0.25413323  1
  V  V53  1  0.23413228  0.38403155  0.12070025  1
  V  V54  1  0.37269963  0.25002087  0.63570144  1
  V  V55  1  0.26529678  -0.01985801  0.73904714  1
  V  V56  1  0.74306959  0.36648705  0.13879629  1
  V  V57  1  0.87296865  0.23915642  0.12972401  1
  V  V58  1  0.63434161  0.74886875  0.34197652  1
  V  V59  1  0.00258715  0.52240778  0.49561636  1
  V  V60  1  0.83669253  0.87054374  0.02609090  1
  V  V61  1  0.50788781  0.36492612  0.36043279  1
  V  V62  1  0.11258306  0.02116034  0.62302294  1
  V  V63  1  0.61552355  0.12245975  -0.01312411  1
  V  V64  1  0.50400171  0.74958047  0.74197666  1
  V  V65  1  0.00387894  0.88615410  0.87325828  1
  V  V66  1  0.74073489  0.75511284  0.49549610  1
  V  V67  1  0.74550789  0.61121252  0.86262566  1
  V  V68  1  0.38060019  0.37746932  0.00224907  1
  V  V69  1  0.12745932  0.25188626  0.40689133  1
  V  V70  1  0.24767240  0.63421976  0.37921407  1
  V  V71  1  0.61525363  -0.00541558  0.12816627  1
  V  V72  1  0.50363177  0.49331795  0.50144918  1
  Zn  Zn73  1  0.63963352  0.87213945  0.75581164  1
  Zn  Zn74  1  0.40828065  0.91998442  0.02518742  1
  Zn  Zn75  1  0.39704180  0.12621452  0.75806973  1
  Zn  Zn76  1  0.07423985  0.05399173  0.16609717  1
  Zn  Zn77  1  0.01236571  0.49618597  0.00691915  1
  Zn  Zn78  1  0.10058748  0.25653061  0.86242458  1
  Zn  Zn79  1  0.38675294  0.25988470  0.14945399  1
  Zn  Zn80  1  0.90021721  0.73684278  0.16655384  1
  Zn  Zn81  1  -0.01542460  -0.00128073  0.00400220  1
  Zn  Zn82  1  0.22026317  0.20541970  0.20000682  1
  Zn  Zn83  1  0.18026840  0.20711896  0.67061337  1
  Zn  Zn84  1  0.19383716  0.69413412  0.19535026  1
  Zn  Zn85  1  0.18827294  0.68558905  0.68834710  1
  Zn  Zn86  1  0.68335644  0.18105152  0.18925346  1
  Zn  Zn87  1  0.68323467  0.21940338  0.68065161  1
  Zn  Zn88  1  0.71802659  0.67878739  0.17514263  1
  Zn  Zn89  1  0.68840984  0.68579818  0.68034827  1
  Zn  Zn90  1  0.30791966  0.31385311  0.31714759  1
  Zn  Zn91  1  0.31517015  0.31589575  0.81390316  1
  Zn  Zn92  1  0.31517812  0.81618835  0.44031398  1
  Zn  Zn93  1  0.30250097  0.83179176  0.61168113  1
  Zn  Zn94  1  0.81403450  0.30724293  0.31995244  1
  Zn  Zn95  1  0.80024163  0.33385204  0.81180520  1
  Zn  Zn96  1  0.79753985  0.81543576  0.31229273  1
  Zn  Zn97  1  0.82689882  0.79557299  0.84535085  1
  Zn  Zn98  1  0.18613689  0.44014691  0.43421541  1
  Zn  Zn99  1  0.18939254  0.44202202  0.93028894  1
  Zn  Zn100  1  0.18833671  0.93809202  0.45297312  1
  Zn  Zn101  1  0.24308324  0.95806061  0.94368421  1
  Zn  Zn102  1  0.68743376  0.42463659  0.44156623  1
  Zn  Zn103  1  0.68662385  0.43275533  0.94735863  1
  Zn  Zn104  1  0.65852355  0.92685800  0.43060499  1
  Zn  Zn105  1  0.67473795  0.93685883  0.94441762  1
  Zn  Zn106  1  0.30929002  0.07367022  0.06557823  1
  Zn  Zn107  1  0.31686354  0.06762331  0.57338834  1
  Zn  Zn108  1  0.31380738  0.56422057  0.06148620  1
  Zn  Zn109  1  0.29404991  0.62155402  0.58074550  1
  Zn  Zn110  1  0.80762335  0.05689023  0.06058932  1
  Zn  Zn111  1  0.75476963  0.03801800  0.54699233  1
  Zn  Zn112  1  0.80850918  0.56964629  0.07177740  1
  Zn  Zn113  1  0.81619507  0.55910936  0.55517161  1
  Zn  Zn114  1  0.43157328  0.44039176  0.18666306  1
  Zn  Zn115  1  0.44276174  0.43466155  0.68869401  1
  Zn  Zn116  1  0.43469473  0.94722879  0.20522856  1
  Zn  Zn117  1  0.46178109  0.95044582  0.68945928  1
  Zn  Zn118  1  0.93492411  0.42280628  0.19757631  1
  Zn  Zn119  1  0.94235717  0.48608845  0.69066841  1
  Zn  Zn120  1  0.93090898  0.93097653  0.18517461  1
  Zn  Zn121  1  0.95377251  0.90471328  0.67570229  1
  Zn  Zn122  1  0.05985651  0.06560260  0.33167799  1
  Zn  Zn123  1  0.10939949  0.03665949  0.82893154  1
  Zn  Zn124  1  0.06166531  0.56201785  0.31043014  1
  Zn  Zn125  1  0.05971401  0.56459996  0.81911289  1
  Zn  Zn126  1  0.56125104  0.06243402  0.31434160  1
  Zn  Zn127  1  0.56654109  0.05447706  0.79885184  1
  Zn  Zn128  1  0.56436187  0.55606164  0.31069116  1
  Zn  Zn129  1  0.56788268  0.55468407  0.81062368  1
  Zn  Zn130  1  0.43708148  0.18731686  0.43268284  1
  Zn  Zn131  1  0.43025987  0.18468018  0.94428082  1
  Zn  Zn132  1  0.45636081  0.68068089  0.42516757  1
  Zn  Zn133  1  0.44070003  0.69048688  0.94094248  1
  Zn  Zn134  1  0.93218816  0.19082539  0.43542219  1
  Zn  Zn135  1  0.95116664  0.19791060  0.95118513  1
  Zn  Zn136  1  0.90626956  0.70958050  0.37938188  1
  Zn  Zn137  1  0.95262972  0.71781150  0.98721913  1
  Zn  Zn138  1  0.06207269  0.30638520  0.06009692  1
  Zn  Zn139  1  0.06039237  0.33164425  0.57284967  1
  Zn  Zn140  1  0.06241882  0.82043862  0.06387072  1
  Zn  Zn141  1  0.04696832  0.78840066  0.55699685  1
  Zn  Zn142  1  0.56451796  0.30668159  0.05842558  1
  Zn  Zn143  1  0.55986573  0.30215098  0.55033783  1
  Zn  Zn144  1  0.56391881  0.80842753  0.06623166  1
  Zn  Zn145  1  0.48559488  0.83788118  0.55079426  1
  O  O146  1  0.13684338  0.12961991  0.10770561  1
  O  O147  1  0.11271351  0.12046642  0.64119028  1
  O  O148  1  0.13707490  0.63416262  0.11324821  1
  O  O149  1  0.11544870  0.61232819  0.63457144  1
  O  O150  1  0.61086072  0.11971695  0.11985677  1
  O  O151  1  0.61995039  0.14276368  0.62578841  1
  O  O152  1  0.62200307  0.61624461  0.12232327  1
  O  O153  1  0.61568007  0.62774781  0.60512725  1
  O  O154  1  0.37972033  0.37949860  0.38155462  1
  O  O155  1  0.38599327  0.38246686  0.88122258  1
  O  O156  1  0.37591714  0.89679985  0.37367064  1
  O  O157  1  0.38553731  0.87051118  0.88093753  1
  O  O158  1  0.89316129  0.38105649  0.36796588  1
  O  O159  1  0.85976196  0.38935672  0.89826494  1
  O  O160  1  0.87795898  0.88511955  0.37815103  1
  O  O161  1  0.90754949  0.87916269  0.84752152  1
  O  O162  1  0.24610594  0.01324898  0.37562231  1
  O  O163  1  0.23753564  0.01834112  0.84250330  1
  O  O164  1  0.25522921  0.50506594  0.36131328  1
  O  O165  1  0.26187343  0.51098833  0.86575837  1
  O  O166  1  0.75383780  -0.00570313  0.35951272  1
  O  O167  1  0.74540795  -0.04092722  0.84979024  1
  O  O168  1  0.76232445  0.48366125  0.36821693  1
  O  O169  1  0.75058791  0.50587979  0.88521758  1
  O  O170  1  0.25662093  0.49836520  0.13635282  1
  O  O171  1  0.23964413  0.51939170  0.63063649  1
  O  O172  1  0.25232844  0.99710879  0.14196678  1
  O  O173  1  0.24061528  1.01560067  0.64279208  1
  O  O174  1  0.74316707  0.48916255  0.14054115  1
  O  O175  1  0.74557790  0.48999779  0.61007312  1
  O  O176  1  0.73504698  1.01009759  0.13796121  1
  O  O177  1  0.71271275  0.98591435  0.64209304  1
  O  O178  1  0.00213055  0.35327686  0.26171223  1
  O  O179  1  0.00497840  0.39465701  0.74687628  1
  O  O180  1  0.01274698  0.87991874  0.25959219  1
  O  O181  1  0.02784318  0.86820101  0.75813220  1
  O  O182  1  0.48508384  0.37196737  0.26218986  1
  O  O183  1  0.50806934  0.37589917  0.76522023  1
  O  O184  1  0.50048638  0.89331472  0.28115358  1
  O  O185  1  0.49319392  0.85068277  0.76327036  1
  O  O186  1  0.49924043  0.12848583  0.23926084  1
  O  O187  1  0.50514807  0.12064799  0.73083238  1
  O  O188  1  0.48983819  0.61867958  0.24171248  1
  O  O189  1  0.50429717  0.62469417  0.74152363  1
  O  O190  1  0.99480456  0.13299288  0.25307146  1
  O  O191  1  0.95760191  0.12981169  0.78756771  1
  O  O192  1  0.98188717  0.59968137  0.23121297  1
  O  O193  1  0.98579794  0.58228783  0.73827050  1
  O  O194  1  0.35954885  0.26362988  -0.00315263  1
  O  O195  1  0.37554413  0.26652770  0.49648721  1
  O  O196  1  0.36713174  0.74542515  0.01558664  1
  O  O197  1  0.42194080  0.78098132  0.46430778  1
  O  O198  1  0.86654033  0.25355992  0.01148013  1
  O  O199  1  0.85992899  0.26184167  0.48083496  1
  O  O200  1  0.86384975  0.78793868  -0.03481825  1
  O  O201  1  0.85895874  0.75939964  0.48122050  1
  O  O202  1  0.12223090  0.25603518  0.50565222  1
  O  O203  1  0.12912575  0.24502015  0.98964992  1
  O  O204  1  0.12446954  0.74763920  0.48488753  1
  O  O205  1  0.13914000  0.74187512  0.99221136  1
  O  O206  1  0.64057413  0.26160712  0.48226470  1
  O  O207  1  0.63900662  0.23481819  1.00183637  1
  O  O208  1  0.63656228  0.73607609  0.49136592  1
  O  O209  1  0.62022731  0.73670049  0.99205040  1
  O  O210  1  0.50080019  0.24120574  0.12647516  1
  O  O211  1  0.48872901  0.24492170  0.61997502  1
  O  O212  1  0.49266482  0.74064596  0.12687936  1
  O  O213  1  0.50258837  0.73691695  0.63890680  1
  O  O214  1  0.99071087  0.25282974  0.13701055  1
  O  O215  1  0.98030791  0.23454057  0.60146457  1
  O  O216  1  0.98659011  0.74461965  0.09531980  1
  O  O217  1  0.97053264  0.75614711  0.63105736  1
  O  O218  1  0.01233460  0.25266603  0.37226350  1
  O  O219  1  -0.01208369  0.25638152  0.86779902  1
  O  O220  1  0.01418383  0.76102810  0.37454359  1
  O  O221  1  0.02181841  0.75632308  0.88444804  1
  O  O222  1  0.51321452  0.25923890  0.37824218  1
  O  O223  1  0.49194707  0.25710235  0.87585425  1
  O  O224  1  0.52174725  0.75172347  0.35268116  1
  O  O225  1  0.51346636  0.74258381  0.86702074  1
  O  O226  1  0.24276563  0.12533324  0.49921109  1
  O  O227  1  0.24469812  0.14293544  0.99029061  1
  O  O228  1  0.25413872  0.61152486  0.47535140  1
  O  O229  1  0.24635956  0.63217614  0.99435133  1
  O  O230  1  0.76146604  0.14640047  0.51855871  1
  O  O231  1  0.74766407  0.13495384  0.99819791  1
  O  O232  1  0.73650628  0.62255680  0.49379732  1
  O  O233  1  0.73196214  0.61953739  0.99273897  1
  O  O234  1  0.25509759  0.37501510  0.00111511  1
  O  O235  1  0.26654778  0.38536067  0.49562765  1
  O  O236  1  0.24267388  0.86537644  0.01781804  1
  O  O237  1  0.24999203  0.86694042  0.51343761  1
  O  O238  1  0.75590682  0.36036516  0.01571293  1
  O  O239  1  0.75840236  0.37306953  0.50934077  1
  O  O240  1  0.73674448  0.87071092  0.01744590  1
  O  O241  1  0.74930406  0.85886131  0.48998667  1
  O  O242  1  0.14029044  0.50725367  0.24865043  1
  O  O243  1  0.13734400  0.49728172  0.74516345  1
  O  O244  1  0.12527811  0.99325457  0.25807372  1
  O  O245  1  0.13791707  0.97506971  0.73268221  1
  O  O246  1  0.63694716  0.49720609  0.24356740  1
  O  O247  1  0.62676646  0.47584302  0.76119021  1
  O  O248  1  0.63496261  1.00765013  0.24287599  1
  O  O249  1  0.58763381  0.96677198  0.72466560  1
  O  O250  1  0.35247761  0.00646007  0.26568130  1
  O  O251  1  0.36570787  0.00222950  0.74193193  1
  O  O252  1  0.36843361  0.50898941  0.25964697  1
  O  O253  1  0.37620813  0.50806926  0.75816520  1
  O  O254  1  0.86458670  0.00257079  0.25551341  1
  O  O255  1  0.86440476  -0.00023614  0.72121492  1
  O  O256  1  0.86101147  0.48774083  0.25807141  1
  O  O257  1  0.86367283  0.48829305  0.77592918  1
  O  O258  1  0.11801251  0.35892021  0.37962534  1
  O  O259  1  0.12723134  0.38156546  0.85561836  1
  O  O260  1  0.11926073  0.86951379  0.37362654  1
  O  O261  1  0.13368235  0.86106538  0.86891525  1
  O  O262  1  0.60754360  0.38292134  0.36789016  1
  O  O263  1  0.60362734  0.37362926  0.89571546  1
  O  O264  1  0.64565897  0.84967569  0.34886984  1
  O  O265  1  0.61769262  0.85421228  0.88103809  1
  O  O266  1  0.39264647  0.13132621  0.11614760  1
  O  O267  1  0.38623249  0.13916703  0.62994825  1
  O  O268  1  0.38329776  0.63065468  0.13067175  1
  O  O269  1  0.39503418  0.61541917  0.63618053  1
  O  O270  1  0.87231273  0.13270444  0.13183653  1
  O  O271  1  0.85778571  0.05517253  0.67388788  1
  O  O272  1  0.98512824  0.58249877  0.15348909  1
  O  O273  1  0.87055761  0.62932062  0.62631334  1
  O  O274  1  0.24378069  0.26776165  0.10615263  1
  O  O275  1  0.27245014  0.24772168  0.61882828  1
  O  O276  1  0.26115018  0.76185331  0.12412084  1
  O  O277  1  0.26644323  0.72487443  0.62000246  1
  O  O278  1  0.75591930  0.25013504  0.12332607  1
  O  O279  1  0.75503134  0.27353677  0.60990477  1
  O  O280  1  0.81529407  0.66905994  0.12317115  1
  O  O281  1  0.76008450  0.74064041  0.60339534  1
  O  O282  1  0.23279286  0.24213826  0.38230256  1
  O  O283  1  0.24474424  0.25020913  0.87848094  1
  O  O284  1  0.24652395  0.73833447  0.37821858  1
  O  O285  1  0.24875975  0.73830709  0.88869746  1
  O  O286  1  0.74136929  0.25056925  0.38441107  1
  O  O287  1  0.75818699  0.25732458  0.89117886  1
  O  O288  1  0.74022669  0.73688825  0.38149416  1
  O  O289  1  0.73095636  0.73149114  0.87223228  1
  O  O290  1  0.01793211  0.11446260  -0.00803866  1
  O  O291  1  -0.02007789  0.17430637  0.55542629  1
  O  O292  1  0.02207695  0.62463588  -0.00353258  1
  O  O293  1  0.00424652  0.61779968  0.48359786  1
  O  O294  1  0.51319490  0.12947940  0.00269542  1
  O  O295  1  0.50081412  0.13707720  0.51169530  1
  O  O296  1  0.50764530  0.62507239  0.01612011  1
  O  O297  1  0.50528619  0.61268587  0.50335713  1
  O  O298  1  0.49341294  0.38204723  0.48544938  1
  O  O299  1  0.48509148  0.36614359  0.99491272  1
  O  O300  1  0.53193742  0.89615564  0.44418664  1
  O  O301  1  0.49955375  0.86642721  0.98996611  1
  O  O302  1  1.00095634  0.37619848  0.48427126  1
  O  O303  1  0.97953945  0.37779756  1.01504729  1
  O  O304  1  0.97811040  0.86575821  0.49114763  1
  O  O305  1  1.01122016  0.88154646  0.97985624  1
  O  O306  1  0.49015945  0.49207420  0.37704500  1
  O  O307  1  0.48957159  0.49837952  0.87836376  1
  O  O308  1  0.47152083  1.03066379  0.37538102  1
  O  O309  1  0.50576506  0.97512355  0.86751467  1
  O  O310  1  1.00199358  0.48737270  0.37727128  1
  O  O311  1  0.97749267  0.50859721  0.89190086  1
  O  O312  1  0.98816782  0.98866716  0.37990091  1
  O  O313  1  1.01740949  0.98898485  0.87164759  1
  O  O314  1  -0.00281819  -0.00942925  0.11811881  1
  O  O315  1  0.01618455  -0.00937128  0.63583924  1
  O  O316  1  -0.00115242  0.50144602  0.13344501  1
  O  O317  1  0.01016325  0.50269065  0.59882174  1
  O  O318  1  0.50689873  0.01110601  0.13314474  1
  O  O319  1  0.51567254  0.02091135  0.60686616  1
  O  O320  1  0.51023044  0.50791293  0.13438450  1
  O  O321  1  0.50058788  0.50314503  0.61064760  1
  O  O322  1  0.25073267  0.39165233  0.23970699  1
  O  O323  1  0.26110668  0.39366004  0.74746038  1
  O  O324  1  0.23432208  0.89244779  0.24529475  1
  O  O325  1  0.25070902  0.87750986  0.73302295  1
  O  O326  1  0.75250372  0.37084248  0.24159115  1
  O  O327  1  0.74403034  0.37836472  0.72420950  1
  O  O328  1  0.75080375  0.88997565  0.23886475  1
  O  O329  1  0.75128390  0.89596717  0.80083268  1
  O  O330  1  0.22663028  0.10977395  0.26098000  1
  O  O331  1  0.24550889  0.14615117  0.75595211  1
  O  O332  1  0.26089860  0.61683736  0.25614510  1
  O  O333  1  0.26404734  0.61807212  0.75913433  1
  O  O334  1  0.76699927  0.11847238  0.25025236  1
  O  O335  1  0.80105819  0.18123634  0.74020870  1
  O  O336  1  0.75124881  0.60229129  0.26238780  1
  O  O337  1  0.73256854  0.61649163  0.76341518  1
  O  O338  1  0.34882603  0.12547779  0.38295990  1
  O  O339  1  0.35692535  0.13282703  0.86934955  1
  O  O340  1  0.36942645  0.61930794  0.36815973  1
  O  O341  1  0.37231188  0.61854504  0.87417283  1
  O  O342  1  0.88575209  0.10810217  0.37018583  1
  O  O343  1  0.90794619  0.10652112  0.83532334  1
  O  O344  1  0.88361337  0.59937899  0.36622859  1
  O  O345  1  0.85100214  0.61379746  0.88274548  1
  O  O346  1  0.13433240  0.38221849  0.11312083  1
  O  O347  1  0.12285897  0.39986255  0.63786820  1
  O  O348  1  0.13286783  0.87093843  0.14028028  1
  O  O349  1  0.12175985  0.84580006  0.63322013  1
  O  O350  1  0.63161382  0.38028593  0.11874192  1
  O  O351  1  0.61201971  0.37400837  0.62813135  1
  O  O352  1  0.61296524  0.89521633  0.12293876  1
  O  O353  1  0.59471452  0.87225453  0.59502659  1
  O  O354  1  0.11488434  0.24080989  0.24281613  1
  O  O355  1  0.12078634  0.27821011  0.73839616  1
  O  O356  1  0.13386747  0.76866506  0.26202498  1
  O  O357  1  0.13923636  0.75346594  0.76563051  1
  O  O358  1  0.63378743  0.24371940  0.27061057  1
  O  O359  1  0.63662135  0.27987855  0.76407272  1
  O  O360  1  0.64750378  0.73268086  0.24376711  1
  O  O361  1  0.61901312  0.75232194  0.75503989  1
  O  O362  1  0.32629716  0.23755298  0.23939862  1
  O  O363  1  0.37690340  0.25488161  0.73881665  1
  O  O364  1  0.37097849  0.73784973  0.23999813  1
  O  O365  1  0.39560495  0.72833306  0.76034790  1
  O  O366  1  0.88228261  0.23891648  0.24805443  1
  O  O367  1  0.85147717  0.23640552  0.74734463  1
  O  O368  1  0.87948750  0.75000264  0.27537522  1
  O  O369  1  0.85110756  0.74785486  0.74116424  1
  O  O370  1  0.38653253  0.49092621  0.48682697  1
  O  O371  1  0.36802830  0.48939929  0.99156815  1
  O  O372  1  0.36486458  1.00522372  0.49075260  1
  O  O373  1  0.34084366  0.99732073  0.99022984  1
  O  O374  1  0.89107705  0.50184540  0.48323820  1
  O  O375  1  0.86716099  0.48776921  1.01559628  1
  O  O376  1  0.84808263  0.98031128  0.49255589  1
  O  O377  1  0.86432073  0.97213847  1.00383471  1
  O  O378  1  0.14659367  0.02002230  -0.01231578  1
  O  O379  1  0.12774588  0.00193940  0.52422695  1
  O  O380  1  0.13073357  0.51620824  -0.00318575  1
  O  O381  1  0.12044850  0.50254796  0.50596210  1
  O  O382  1  0.63269467  0.01528118  0.01703704  1
  O  O383  1  0.64525660  0.00534290  0.50747307  1
  O  O384  1  0.62744143  0.50410621  0.01893896  1
  O  O385  1  0.61582517  0.51046873  0.48410022  1
  O  O386  1  0.36648147  0.37565828  0.11508635  1
  O  O387  1  0.38476246  0.36705963  0.61196668  1
  O  O388  1  0.37135405  0.87325177  0.13238668  1
  O  O389  1  0.40463016  0.87915824  0.61879179  1
  O  O390  1  0.86382546  0.36091903  0.12272795  1
  O  O391  1  0.87716556  0.40259303  0.63049939  1
  O  O392  1  0.86471395  0.85497609  0.12457305  1
  O  O393  1  0.86750815  0.86520261  0.60679393  1
  O  O394  1  0.12655392  0.14056062  0.38742848  1
  O  O395  1  0.13843289  0.13709833  0.87810846  1
  O  O396  1  0.13529200  0.63996243  0.36034814  1
  O  O397  1  0.13739807  0.63339001  0.87647423  1
  O  O398  1  0.62569655  0.12997333  0.38167927  1
  O  O399  1  0.62230408  0.10692994  0.88836320  1
  O  O400  1  0.61438808  0.63365436  0.38357154  1
  O  O401  1  0.62633442  0.62518168  0.88454556  1
