# generated using pymatgen
data_V73Zn73O256
_symmetry_space_group_name_H-M   'P 1'
_cell_length_a   16.91154141
_cell_length_b   16.89344638
_cell_length_c   16.89420878
_cell_angle_alpha   90.12188078
_cell_angle_beta   89.84814655
_cell_angle_gamma   90.11468442
_symmetry_Int_Tables_number   1
_chemical_formula_structural   V73Zn73O256
_chemical_formula_sum   'V73 Zn73 O256'
_cell_volume   4826.54027914
_cell_formula_units_Z   1
loop_
 _symmetry_equiv_pos_site_id
 _symmetry_equiv_pos_as_xyz
  1  'x, y, z'
loop_
 _atom_site_type_symbol
 _atom_site_label
 _atom_site_symmetry_multiplicity
 _atom_site_fract_x
 _atom_site_fract_y
 _atom_site_fract_z
 _atom_site_occupancy
  V  V0  1  0.12710695  0.13157073  0.49326757  1
  V  V1  1  0.63457037  0.74755343  0.86144804  1
  V  V2  1  0.48930919  0.86885800  0.86654980  1
  V  V3  1  0.62258297  0.24191293  0.36615180  1
  V  V4  1  0.63208868  0.63012694  -0.00398834  1
  V  V5  1  0.48757938  -0.00780414  -0.00747819  1
  V  V6  1  0.12836487  0.71679983  0.90880423  1
  V  V7  1  0.26548867  0.00692777  0.74807869  1
  V  V8  1  0.88348072  0.36840960  0.49070789  1
  V  V9  1  0.49987834  0.62690422  0.12940278  1
  V  V10  1  0.49491739  0.37240599  0.87990941  1
  V  V11  1  -0.00421218  0.37121840  0.87061751  1
  V  V12  1  0.00095333  -0.00172240  0.49301314  1
  V  V13  1  0.48761137  0.12891867  0.12879007  1
  V  V14  1  -0.00565390  0.63226429  0.63302034  1
  V  V15  1  0.00478646  0.11294568  0.12158063  1
  V  V16  1  0.35831436  0.50603622  0.37624449  1
  V  V17  1  0.00845051  0.50217381  -0.00372840  1
  V  V18  1  0.00291292  -0.00588490  -0.00546274  1
  V  V19  1  0.63026193  0.49961127  0.12181596  1
  V  V20  1  -0.00156772  0.13543586  0.63338444  1
  V  V21  1  0.87606929  0.37522903  -0.00057655  1
  V  V22  1  0.63038752  0.12357513  0.50380325  1
  V  V23  1  0.49702027  0.62582205  0.61584093  1
  V  V24  1  0.25038448  0.00154722  0.23551789  1
  V  V25  1  0.00797885  0.25460295  0.25385919  1
  V  V26  1  0.87654414  0.86973172  0.51512204  1
  V  V27  1  0.12350477  0.76198252  0.37506256  1
  V  V28  1  0.48816631  0.48808629  0.00480451  1
  V  V29  1  0.50399652  0.38839818  0.38156479  1
  V  V30  1  0.36782088  0.62563724  0.25245722  1
  V  V31  1  0.87364429  0.24308611  0.11940405  1
  V  V32  1  0.26101972  0.37995173  0.63487176  1
  V  V33  1  0.85847953  0.01489299  0.86806190  1
  V  V34  1  0.25367732  0.87650598  0.62386953  1
  V  V35  1  0.49634423  0.25801201  0.74555376  1
  V  V36  1  0.75311577  0.49831401  0.24762873  1
  V  V37  1  0.12406050  0.00533427  0.62485495  1
  V  V38  1  0.50769344  0.87875771  0.37014922  1
  V  V39  1  0.86855043  -0.00839048  0.37395999  1
  V  V40  1  0.11181598  0.23873112  0.86842712  1
  V  V41  1  0.86671338  0.75644062  0.11818683  1
  V  V42  1  0.12610050  0.88210870  0.23638513  1
  V  V43  1  0.01336528  0.62428657  0.12213947  1
  V  V44  1  0.12552027  0.37797213  0.75016069  1
  V  V45  1  0.87143849  0.25199429  0.63408377  1
  V  V46  1  0.88597040  0.49489305  0.37013575  1
  V  V47  1  0.13297404  0.47430008  0.13568351  1
  V  V48  1  0.85981514  0.87672364  -0.00478125  1
  V  V49  1  0.00220235  0.75535957  0.25163450  1
  V  V50  1  0.63305634  0.24231533  0.87638089  1
  V  V51  1  0.75212105  0.74922322  0.51118666  1
  V  V52  1  0.63020970  -0.01280140  0.12502076  1
  V  V53  1  0.63294795  0.75299012  0.36803000  1
  V  V54  1  0.50166847  0.75495355  0.24712920  1
  V  V55  1  0.26465094  0.25215942  0.50396226  1
  V  V56  1  0.00686935  0.49692386  0.49594603  1
  V  V57  1  0.12862552  0.62767067  0.49212053  1
  V  V58  1  0.62077976  0.36941436  0.24756818  1
  V  V59  1  0.86586411  0.12146322  0.25709199  1
  V  V60  1  0.37242169  0.00901151  0.37475502  1
  V  V61  1  0.37643197  0.87545541  0.50128985  1
  V  V62  1  0.26947858  0.12466538  0.86670154  1
  V  V63  1  0.75067796  0.36642355  0.12003466  1
  V  V64  1  0.63627430  0.88988422  0.73751555  1
  V  V65  1  0.50759268  0.00229054  0.50462242  1
  V  V66  1  0.26272921  0.25531486  0.00170997  1
  V  V67  1  0.11781308  0.87567101  0.75408751  1
  V  V68  1  0.49110579  0.13000258  0.62952942  1
  V  V69  1  0.87586577  0.62466838  0.24178504  1
  V  V70  1  0.75588205  0.24691011  0.49018466  1
  V  V71  1  0.75187595  0.62529306  0.37739544  1
  V  V72  1  0.25144454  0.75209425  0.49348183  1
  Zn  Zn73  1  0.12611409  0.25942107  0.37185582  1
  Zn  Zn74  1  0.81438344  0.64352298  0.82304843  1
  Zn  Zn75  1  0.73514631  -0.01378093  0.25599980  1
  Zn  Zn76  1  0.38543019  0.38322898  0.51494842  1
  Zn  Zn77  1  0.12983192  0.12138616  0.00087658  1
  Zn  Zn78  1  -0.00895631  0.75805969  0.75472990  1
  Zn  Zn79  1  0.25742204  0.13207005  0.36455922  1
  Zn  Zn80  1  0.12973404  0.50547992  0.63399902  1
  Zn  Zn81  1  0.63321220  0.11853693  0.99917255  1
  Zn  Zn82  1  0.18921137  0.18525166  0.18333167  1
  Zn  Zn83  1  0.19053823  0.19313083  0.68595707  1
  Zn  Zn84  1  0.19199153  0.69392146  0.17853109  1
  Zn  Zn85  1  0.17915419  0.69727824  0.67484276  1
  Zn  Zn86  1  0.68563457  0.17402244  0.17407093  1
  Zn  Zn87  1  0.68238883  0.19470847  0.68353411  1
  Zn  Zn88  1  0.69398820  0.81503974  0.18482203  1
  Zn  Zn89  1  0.67869708  0.66253188  0.69282677  1
  Zn  Zn90  1  0.30741162  0.32424331  0.31904999  1
  Zn  Zn91  1  0.31519217  0.30800934  0.81611561  1
  Zn  Zn92  1  0.31504768  0.81844858  0.31128951  1
  Zn  Zn93  1  0.30169502  0.81264326  0.91869767  1
  Zn  Zn94  1  0.81258333  0.30886852  0.30766488  1
  Zn  Zn95  1  0.80609726  0.32576682  0.81223214  1
  Zn  Zn96  1  0.82220746  0.81312587  0.31807902  1
  Zn  Zn97  1  0.81091863  0.82139374  0.80956883  1
  Zn  Zn98  1  0.19357805  0.43758955  0.44184323  1
  Zn  Zn99  1  0.18577270  0.43076730  0.93099900  1
  Zn  Zn100  1  0.18739594  0.94003245  0.43332708  1
  Zn  Zn101  1  0.18803600  0.93942229  0.93642118  1
  Zn  Zn102  1  0.70015584  0.42700525  0.43189672  1
  Zn  Zn103  1  0.67557523  0.42362844  0.94297279  1
  Zn  Zn104  1  0.69224428  0.93353664  0.44212062  1
  Zn  Zn105  1  0.68183647  0.93339143  0.93559302  1
  Zn  Zn106  1  0.31078882  0.05942839  0.05266332  1
  Zn  Zn107  1  0.31607227  0.06509938  0.56020060  1
  Zn  Zn108  1  0.27810950  0.53565367  0.01365198  1
  Zn  Zn109  1  0.30770170  0.56029966  0.55648758  1
  Zn  Zn110  1  0.80995892  0.05617966  0.06430111  1
  Zn  Zn111  1  0.81775079  0.06988693  0.55792727  1
  Zn  Zn112  1  0.84053044  0.58775704  0.01742097  1
  Zn  Zn113  1  0.82143317  0.56283754  0.55976950  1
  Zn  Zn114  1  0.43752685  0.44119493  0.19531352  1
  Zn  Zn115  1  0.43888183  0.44342210  0.70484800  1
  Zn  Zn116  1  0.45406055  0.97166957  0.20461461  1
  Zn  Zn117  1  0.44682714  0.93544156  0.68845576  1
  Zn  Zn118  1  0.94318840  0.43575682  0.18194732  1
  Zn  Zn119  1  0.94789688  0.43106775  0.67599109  1
  Zn  Zn120  1  0.93618107  0.93375228  0.18877245  1
  Zn  Zn121  1  0.93530611  0.94658240  0.68830999  1
  Zn  Zn122  1  0.06142212  0.06546761  0.30884944  1
  Zn  Zn123  1  0.04998514  0.05670138  0.81463637  1
  Zn  Zn124  1  0.07117659  0.56522649  0.30928286  1
  Zn  Zn125  1  0.06926174  0.56165273  0.81714080  1
  Zn  Zn126  1  0.56271191  0.06543980  0.30725368  1
  Zn  Zn127  1  0.56478764  0.06101941  0.81151331  1
  Zn  Zn128  1  0.56984585  0.56612493  0.30868470  1
  Zn  Zn129  1  0.54840751  0.55888849  0.81300960  1
  Zn  Zn130  1  0.44540405  0.19115278  0.43491938  1
  Zn  Zn131  1  0.44549957  0.18248076  0.93995591  1
  Zn  Zn132  1  0.43603504  0.69277532  0.42838668  1
  Zn  Zn133  1  0.46287179  0.68501255  0.93939438  1
  Zn  Zn134  1  0.94375226  0.18153760  0.43281574  1
  Zn  Zn135  1  0.80544761  0.18664598  0.94117337  1
  Zn  Zn136  1  0.93985722  0.68536342  0.43798501  1
  Zn  Zn137  1  0.93436849  0.71083897  0.91202877  1
  Zn  Zn138  1  0.06596019  0.30323442  0.05730345  1
  Zn  Zn139  1  0.06779390  0.31380449  0.56293431  1
  Zn  Zn140  1  0.05877835  0.81468209  0.06115378  1
  Zn  Zn141  1  0.06125228  0.81476991  0.56681119  1
  Zn  Zn142  1  0.55968718  0.30282810  0.06135155  1
  Zn  Zn143  1  0.56532755  0.30855655  0.55608076  1
  Zn  Zn144  1  0.55705477  0.81358310  0.05535012  1
  Zn  Zn145  1  0.57126587  0.81478312  0.55482342  1
  O  O146  1  0.10777490  0.12454815  0.12101817  1
  O  O147  1  0.11745826  0.12527519  0.61518089  1
  O  O148  1  0.11437338  0.62694520  0.13023311  1
  O  O149  1  0.11972936  0.62272880  0.61063744  1
  O  O150  1  0.60974398  0.10659783  0.12306643  1
  O  O151  1  0.61630002  0.13208776  0.60792074  1
  O  O152  1  0.61475677  0.61086918  0.11510589  1
  O  O153  1  0.60110895  0.62938273  0.60374138  1
  O  O154  1  0.39176348  0.39186130  0.36522358  1
  O  O155  1  0.39467243  0.37218777  0.86978549  1
  O  O156  1  0.38459135  0.88618818  0.38450202  1
  O  O157  1  0.39058105  0.86119382  0.86062335  1
  O  O158  1  0.87532394  0.38589802  0.37424598  1
  O  O159  1  0.88393685  0.36776186  0.88634420  1
  O  O160  1  0.88232907  0.88859052  0.38552036  1
  O  O161  1  0.87206983  0.88079390  0.89291462  1
  O  O162  1  0.26085626  0.00737290  0.37788944  1
  O  O163  1  0.24517025  0.01382256  0.85478898  1
  O  O164  1  0.25968099  0.50388052  0.37159262  1
  O  O165  1  0.25570668  0.51249832  0.90732411  1
  O  O166  1  0.76489304  -0.00146670  0.37677722  1
  O  O167  1  0.75918225  -0.00213804  0.88165564  1
  O  O168  1  0.76088736  0.50563601  0.37024422  1
  O  O169  1  0.73439038  0.47485315  0.84811354  1
  O  O170  1  0.22857630  0.49947404  0.11059283  1
  O  O171  1  0.24532115  0.48396862  0.61646239  1
  O  O172  1  0.25485240  1.00028883  0.13678424  1
  O  O173  1  0.24337398  1.00252245  0.62834251  1
  O  O174  1  0.74165011  0.48527237  0.13063992  1
  O  O175  1  0.79037950  0.47957286  0.64127958  1
  O  O176  1  0.73322537  0.99652118  0.12852468  1
  O  O177  1  0.75736120  1.03913328  0.65962801  1
  O  O178  1  -0.00729037  0.35285244  0.24247706  1
  O  O179  1  0.00640776  0.38138057  0.76043761  1
  O  O180  1  0.01242106  0.86683131  0.24728376  1
  O  O181  1  0.01393606  0.87638553  0.73235975  1
  O  O182  1  0.51604518  0.37827036  0.25938800  1
  O  O183  1  0.50697435  0.36549931  0.75860694  1
  O  O184  1  0.48904421  0.87055894  0.26222869  1
  O  O185  1  0.51317993  0.87945835  0.76145259  1
  O  O186  1  0.48584827  0.09633401  0.22984265  1
  O  O187  1  0.50483658  0.12927349  0.73317035  1
  O  O188  1  0.50298857  0.63639977  0.24732537  1
  O  O189  1  0.49697991  0.64996940  0.71651332  1
  O  O190  1  0.99011025  0.12738393  0.24054819  1
  O  O191  1  1.00344693  0.12278094  0.73126345  1
  O  O192  1  0.99140891  0.63035313  0.24216035  1
  O  O193  1  1.01013357  0.61635760  0.73427501  1
  O  O194  1  0.36288439  0.24407210  -0.01155536  1
  O  O195  1  0.36740909  0.25543119  0.49658302  1
  O  O196  1  0.33040647  0.69783175  0.03041657  1
  O  O197  1  0.36568720  0.76547964  0.48638635  1
  O  O198  1  0.87425536  0.25828993  0.01304650  1
  O  O199  1  0.87299838  0.25199239  0.49124738  1
  O  O200  1  0.88631441  0.76402464  0.01100739  1
  O  O201  1  0.87114029  0.76218439  0.49741691  1
  O  O202  1  0.13378643  0.24678078  0.49417403  1
  O  O203  1  0.13136999  0.24158358  0.98074529  1
  O  O204  1  0.12922383  0.74855729  0.49335316  1
  O  O205  1  0.12422682  0.74071568  1.00879358  1
  O  O206  1  0.63591634  0.24450600  0.48855018  1
  O  O207  1  0.61897225  0.24385573  0.98283375  1
  O  O208  1  0.64430040  0.75794432  0.48304598  1
  O  O209  1  0.62146932  0.73337453  0.99970629  1
  O  O210  1  0.50577183  0.22893226  0.12780680  1
  O  O211  1  0.51010615  0.24495627  0.63371167  1
  O  O212  1  0.50572514  0.74175761  0.13546945  1
  O  O213  1  0.49329886  0.73093951  0.60058778  1
  O  O214  1  0.99022845  0.23633651  0.13129986  1
  O  O215  1  0.99482842  0.24140192  0.62106205  1
  O  O216  1  0.99627310  0.74321828  0.13593917  1
  O  O217  1  1.00653684  0.73735816  0.63177652  1
  O  O218  1  0.00376499  0.24549578  0.35965424  1
  O  O219  1  0.01123605  0.25729472  0.87318387  1
  O  O220  1  0.00662552  0.74356207  0.35978611  1
  O  O221  1  0.03423839  0.74548997  0.86901329  1
  O  O222  1  0.51689278  0.26232328  0.37617512  1
  O  O223  1  0.50607337  0.25393231  0.86490573  1
  O  O224  1  0.51304134  0.75816832  0.37114505  1
  O  O225  1  0.51367563  0.76232897  0.87762745  1
  O  O226  1  0.24448444  0.14033426  0.50629522  1
  O  O227  1  0.24710379  0.11990745  0.97612821  1
  O  O228  1  0.24160419  0.64049088  0.50740461  1
  O  O229  1  0.26858831  0.65238137  1.04442191  1
  O  O230  1  0.74351059  0.13319145  0.49764314  1
  O  O231  1  0.74551205  0.13607914  1.02188976  1
  O  O232  1  0.76582275  0.63557375  0.48813423  1
  O  O233  1  0.72908022  0.61096133  1.00086357  1
  O  O234  1  0.24767758  0.35393470  -0.00902610  1
  O  O235  1  0.25566009  0.36515807  0.50897509  1
  O  O236  1  0.26465400  0.88708196  -0.00747061  1
  O  O237  1  0.25773709  0.87550232  0.50473254  1
  O  O238  1  0.75918254  0.37909184  0.01118557  1
  O  O239  1  0.77162963  0.36153817  0.49408677  1
  O  O240  1  0.76122696  0.87477088  0.00499371  1
  O  O241  1  0.76432336  0.86289893  0.49916006  1
  O  O242  1  0.12120125  0.50061947  0.23429598  1
  O  O243  1  0.12973602  0.48354993  0.75344470  1
  O  O244  1  0.13210740  0.98863159  0.25712480  1
  O  O245  1  0.12089059  1.00094891  0.73277598  1
  O  O246  1  0.63197025  0.49134952  0.24087907  1
  O  O247  1  0.62500460  0.55970189  0.73083919  1
  O  O248  1  0.61908826  0.99544735  0.23492782  1
  O  O249  1  0.62721831  0.98983071  0.74916116  1
  O  O250  1  0.35632195  -0.01228615  0.26119659  1
  O  O251  1  0.36332391  -0.00074449  0.74098741  1
  O  O252  1  0.38188216  0.51457467  0.26305882  1
  O  O253  1  0.44249972  0.52982252  0.77475828  1
  O  O254  1  0.88060082  0.00512732  0.26302182  1
  O  O255  1  0.87840160  -0.00435741  0.76983042  1
  O  O256  1  0.87575563  0.50459812  0.25172528  1
  O  O257  1  0.84015838  0.48141335  0.70033580  1
  O  O258  1  0.15187114  0.37511536  0.34946093  1
  O  O259  1  0.11663574  0.36306230  0.86808789  1
  O  O260  1  0.11986273  0.86610228  0.37430749  1
  O  O261  1  0.12123289  0.89674247  0.85135290  1
  O  O262  1  0.62086889  0.36837789  0.36902536  1
  O  O263  1  0.60980396  0.35621455  0.87913083  1
  O  O264  1  0.61513307  0.87155631  0.37935757  1
  O  O265  1  0.62489101  0.86032956  0.86311562  1
  O  O266  1  0.38849324  0.11891569  0.11166894  1
  O  O267  1  0.39217228  0.13134157  0.61620513  1
  O  O268  1  0.39599848  0.61501635  0.14606889  1
  O  O269  1  0.39263830  0.61766324  0.61835340  1
  O  O270  1  0.88095861  0.12662846  0.13756347  1
  O  O271  1  0.88968341  0.13955830  0.61729354  1
  O  O272  1  0.88649583  0.63437636  0.12529077  1
  O  O273  1  0.89528270  0.62444566  0.61945673  1
  O  O274  1  0.24464627  0.23214334  0.09927840  1
  O  O275  1  0.25008013  0.26349764  0.61348171  1
  O  O276  1  0.25144576  0.78947992  0.12221270  1
  O  O277  1  0.24699829  0.76805471  0.61026967  1
  O  O278  1  0.75852623  0.25917986  0.13763253  1
  O  O279  1  0.76542586  0.24438167  0.61037348  1
  O  O280  1  0.76866182  0.74353386  0.12731829  1
  O  O281  1  0.73666377  0.73395879  0.60678394  1
  O  O282  1  0.25189430  0.24751665  0.38817911  1
  O  O283  1  0.24384488  0.23438856  0.87352569  1
  O  O284  1  0.24021378  0.75988716  0.38523654  1
  O  O285  1  0.21289881  0.75986854  0.87122949  1
  O  O286  1  0.73771145  0.25440662  0.37967879  1
  O  O287  1  0.73958004  0.25280751  0.86997602  1
  O  O288  1  0.75070463  0.74174129  0.37806087  1
  O  O289  1  0.73485962  0.74040069  0.87390129  1
  O  O290  1  -0.00829769  0.11150532  0.01725052  1
  O  O291  1  0.01031562  0.11976594  0.50571145  1
  O  O292  1  -0.00059418  0.60552845  0.00910817  1
  O  O293  1  0.00919576  0.61935748  0.50623558  1
  O  O294  1  0.50462431  0.10687482  0.00391071  1
  O  O295  1  0.50914960  0.12140331  0.50554975  1
  O  O296  1  0.50684734  0.60844852  0.00989917  1
  O  O297  1  0.49004206  0.61848809  0.50988782  1
  O  O298  1  0.49809646  0.37159955  0.48632216  1
  O  O299  1  0.49725311  0.37840553  0.99731916  1
  O  O300  1  0.49622206  0.88283887  0.49317048  1
  O  O301  1  0.49947771  0.88026071  0.98361402  1
  O  O302  1  0.99999885  0.38525482  0.49588319  1
  O  O303  1  0.99384544  0.37419818  0.99216077  1
  O  O304  1  0.98870113  0.88545227  0.50766089  1
  O  O305  1  0.99197227  0.89099331  1.00888333  1
  O  O306  1  0.51400976  0.48961364  0.37684220  1
  O  O307  1  0.51310356  0.48330520  0.89645461  1
  O  O308  1  0.49514092  0.99535260  0.38189347  1
  O  O309  1  0.50750038  0.98668103  0.88387662  1
  O  O310  1  0.99341058  0.51025648  0.38119894  1
  O  O311  1  1.00658899  0.48733928  0.88940538  1
  O  O312  1  0.99167290  1.00863294  0.38809928  1
  O  O313  1  0.98213131  1.00596056  0.89168218  1
  O  O314  1  -0.00663741  0.00741607  0.12076472  1
  O  O315  1  0.00449163  0.01443391  0.61277753  1
  O  O316  1  0.01149338  0.50450751  0.11974464  1
  O  O317  1  0.00752406  0.50678601  0.61033240  1
  O  O318  1  0.50583015  -0.00692075  0.10728023  1
  O  O319  1  0.49738246  0.01292572  0.61217782  1
  O  O320  1  0.50952227  0.49752061  0.12083368  1
  O  O321  1  0.50362998  0.52301772  0.62734328  1
  O  O322  1  0.20648840  0.37542050  0.28830983  1
  O  O323  1  0.24774503  0.36855862  0.73936736  1
  O  O324  1  0.23509066  0.88533521  0.25761957  1
  O  O325  1  0.23657702  0.89771508  0.73552303  1
  O  O326  1  0.74165228  0.37896714  0.24362560  1
  O  O327  1  0.73773165  0.42427759  0.78981700  1
  O  O328  1  0.75767069  0.87560904  0.25414149  1
  O  O329  1  0.73621480  0.87094150  0.74495275  1
  O  O330  1  0.23999781  0.10684940  0.25144582  1
  O  O331  1  0.24910931  0.11735415  0.75148843  1
  O  O332  1  0.27024418  0.64042616  0.24169735  1
  O  O333  1  0.26645409  0.62966344  0.73540547  1
  O  O334  1  0.76409472  0.11525302  0.24474378  1
  O  O335  1  0.75161667  0.09459564  0.71208054  1
  O  O336  1  0.76803238  0.61722581  0.25700626  1
  O  O337  1  0.76459327  0.61048168  0.73281954  1
  O  O338  1  0.38014815  0.11384807  0.37887787  1
  O  O339  1  0.36734145  0.12573987  0.86725765  1
  O  O340  1  0.38122143  0.61379732  0.36717698  1
  O  O341  1  0.35003441  0.70208019  0.94481883  1
  O  O342  1  0.87686284  0.11439500  0.36352913  1
  O  O343  1  0.86684298  0.11558453  0.87755386  1
  O  O344  1  0.87290948  0.61637829  0.36495718  1
  O  O345  1  0.87272069  0.61602286  0.91224474  1
  O  O346  1  0.12152445  0.37380897  0.12853323  1
  O  O347  1  0.13409990  0.37506496  0.63507644  1
  O  O348  1  0.12461214  0.87779864  0.13764907  1
  O  O349  1  0.13494170  0.88990548  0.62151616  1
  O  O350  1  0.63062745  0.37518692  0.12922561  1
  O  O351  1  0.63191516  0.40566399  0.59069425  1
  O  O352  1  0.62169314  0.87956557  0.12281101  1
  O  O353  1  0.61525511  0.87142070  0.63889072  1
  O  O354  1  0.11144792  0.23934833  0.24976771  1
  O  O355  1  0.13038495  0.25995815  0.76088019  1
  O  O356  1  0.12304694  0.76134571  0.25427180  1
  O  O357  1  0.12855223  0.77362876  0.74029709  1
  O  O358  1  0.63397847  0.25336650  0.25995752  1
  O  O359  1  0.61710664  0.24547036  0.76119270  1
  O  O360  1  0.61650633  0.75791027  0.25991190  1
  O  O361  1  0.62648376  0.74354826  0.75986053  1
  O  O362  1  0.35962011  0.29463134  0.21411554  1
  O  O363  1  0.39651638  0.25143941  0.75070730  1
  O  O364  1  0.39116153  0.73762544  0.26825751  1
  O  O365  1  0.31747625  0.66586259  0.77523630  1
  O  O366  1  0.88065761  0.23494945  0.24610372  1
  O  O367  1  0.86298607  0.26526497  0.73216671  1
  O  O368  1  0.88425826  0.74375375  0.24134394  1
  O  O369  1  0.88649929  0.73847854  0.79856646  1
  O  O370  1  0.37099956  0.49682469  0.48222223  1
  O  O371  1  0.39134550  0.50100664  1.01221488  1
  O  O372  1  0.38528497  0.99506112  0.49330395  1
  O  O373  1  0.38845850  0.99559399  0.99467923  1
  O  O374  1  0.88599493  0.49004679  0.48928960  1
  O  O375  1  0.89360293  0.48141850  1.01588058  1
  O  O376  1  0.87857422  0.99415321  0.49343395  1
  O  O377  1  0.87863456  0.98932625  1.00001410  1
  O  O378  1  0.10689491  0.00477466  -0.00986170  1
  O  O379  1  0.12086792  0.00834458  0.50643998  1
  O  O380  1  0.10880139  0.48308201  0.01283789  1
  O  O381  1  0.12031297  0.50983750  0.49213758  1
  O  O382  1  0.61947585  -0.00434621  0.01105076  1
  O  O383  1  0.61768535  0.00921668  0.49034605  1
  O  O384  1  0.61750944  0.50007060  0.00984904  1
  O  O385  1  0.64429711  0.46025664  0.53803247  1
  O  O386  1  0.36312556  0.35328632  0.16296210  1
  O  O387  1  0.36740029  0.38863001  0.63281062  1
  O  O388  1  0.32169904  0.80708803  0.13782705  1
  O  O389  1  0.36799920  0.88522786  0.61292896  1
  O  O390  1  0.86886179  0.36332983  0.12207568  1
  O  O391  1  0.89134171  0.35507509  0.60483000  1
  O  O392  1  0.87752803  0.86206051  0.12135735  1
  O  O393  1  0.87207266  0.88334219  0.61355646  1
  O  O394  1  0.12910452  0.12435718  0.38714767  1
  O  O395  1  0.12072086  0.13389854  0.86665863  1
  O  O396  1  0.12249201  0.63964700  0.38458490  1
  O  O397  1  0.13427363  0.61593435  0.89106735  1
  O  O398  1  0.61774172  0.13719816  0.37970606  1
  O  O399  1  0.62106380  0.13649605  0.87635228  1
  O  O400  1  0.64324319  0.63480323  0.36747561  1
  O  O401  1  0.60607064  0.63326080  0.88741557  1
