# generated using pymatgen
data_V73Zn73O256
_symmetry_space_group_name_H-M   'P 1'
_cell_length_a   16.98842840
_cell_length_b   16.94255380
_cell_length_c   16.92447816
_cell_angle_alpha   90.22046227
_cell_angle_beta   90.10524218
_cell_angle_gamma   90.08695814
_symmetry_Int_Tables_number   1
_chemical_formula_structural   V73Zn73O256
_chemical_formula_sum   'V73 Zn73 O256'
_cell_volume   4871.27796273
_cell_formula_units_Z   1
loop_
 _symmetry_equiv_pos_site_id
 _symmetry_equiv_pos_as_xyz
  1  'x, y, z'
loop_
 _atom_site_type_symbol
 _atom_site_label
 _atom_site_symmetry_multiplicity
 _atom_site_fract_x
 _atom_site_fract_y
 _atom_site_fract_z
 _atom_site_occupancy
  V  V0  1  0.12748117  0.74665184  0.87864016  1
  V  V1  1  0.24125914  0.26516351  0.52444746  1
  V  V2  1  0.62828761  0.11231764  0.52358870  1
  V  V3  1  0.87461915  0.11880855  0.24869916  1
  V  V4  1  0.12009862  0.48115667  0.13178202  1
  V  V5  1  0.12266806  0.88527713  0.24794491  1
  V  V6  1  0.00032369  0.87684401  0.38177742  1
  V  V7  1  0.36766223  0.62822733  0.25676497  1
  V  V8  1  0.62410462  0.75714257  0.87132974  1
  V  V9  1  0.63001573  0.62875940  -0.00525815  1
  V  V10  1  -0.00191918  0.12410403  0.12809661  1
  V  V11  1  0.49827801  0.00538475  -0.00968353  1
  V  V12  1  0.12956053  0.63203111  0.49555531  1
  V  V13  1  -0.01091122  0.49291375  0.48411808  1
  V  V14  1  0.13461134  0.75116571  0.37855348  1
  V  V15  1  0.63698879  0.88886201  0.73141715  1
  V  V16  1  0.62288778  0.00498719  0.12181348  1
  V  V17  1  0.87432358  0.74716092  0.12289131  1
  V  V18  1  0.11406263  0.25718371  0.87615934  1
  V  V19  1  0.23949109  0.26179868  0.01071348  1
  V  V20  1  0.50568839  0.74991909  0.24550426  1
  V  V21  1  0.48884587  0.50555941  -0.02229079  1
  V  V22  1  0.86303991  0.86488984  0.50024286  1
  V  V23  1  0.26931025  0.12799473  0.38683429  1
  V  V24  1  0.25470774  0.11744035  0.86960786  1
  V  V25  1  0.74828794  0.11813299  0.37465595  1
  V  V26  1  0.74753597  0.26191641  -0.00009531  1
  V  V27  1  0.88744067  0.38177962  -0.01487873  1
  V  V28  1  0.88621639  0.26644907  0.61147420  1
  V  V29  1  0.87553774  -0.00395179  0.37172512  1
  V  V30  1  0.28508582  -0.01794348  0.26554290  1
  V  V31  1  0.25713222  0.62261135  0.87825711  1
  V  V32  1  0.62512019  0.37420612  0.76001205  1
  V  V33  1  0.12697630  0.88426268  0.75078096  1
  V  V34  1  0.38015725  0.87714983  -0.01225074  1
  V  V35  1  -0.01178393  0.24908647  0.75179904  1
  V  V36  1  0.25314624  0.87255892  0.62246259  1
  V  V37  1  0.11485343  0.38203231  0.75142790  1
  V  V38  1  0.49743260  0.74823619  0.73934596  1
  V  V39  1  -0.00193293  0.86903219  0.87737120  1
  V  V40  1  0.63132150  0.60406889  0.50474204  1
  V  V41  1  0.76145932  0.50375690  0.76173612  1
  V  V42  1  0.25722671  0.50366860  0.74972168  1
  V  V43  1  0.75677561  0.61001100  0.37282373  1
  V  V44  1  0.37470737  0.37024503  -0.00506931  1
  V  V45  1  0.37827630  0.49217557  0.39005197  1
  V  V46  1  0.74704727  0.38697821  0.61643950  1
  V  V47  1  0.00304096  -0.00366466  0.00917639  1
  V  V48  1  0.49330216  0.87408339  0.38883554  1
  V  V49  1  0.86327584  0.74778533  0.62327973  1
  V  V50  1  -0.00130281  0.74742426  0.24718522  1
  V  V51  1  0.63126002  0.49871342  0.13003343  1
  V  V52  1  -0.00217572  0.62518715  0.62356349  1
  V  V53  1  0.74929501  0.87163549  0.12279819  1
  V  V54  1  0.36962290  0.74997606  0.11335521  1
  V  V55  1  0.12064239  0.12218369  0.00054274  1
  V  V56  1  0.49886087  0.60893845  0.62715536  1
  V  V57  1  0.24406017  0.87879950  0.11644835  1
  V  V58  1  0.11020571  0.62087358  0.00745548  1
  V  V59  1  0.87390389  -0.00065896  0.87860749  1
  V  V60  1  -0.00481348  0.74717102  0.74804095  1
  V  V61  1  0.86944060  0.09555126  0.71042208  1
  V  V62  1  0.12814428  0.49832681  0.62256719  1
  V  V63  1  0.76436457  0.63094289  0.87733325  1
  V  V64  1  0.86959974  0.26153683  0.12897104  1
  V  V65  1  0.75815826  0.12527337  0.88543862  1
  V  V66  1  0.63713712  0.74742328  0.38297291  1
  V  V67  1  0.11759127  0.01254597  0.62542252  1
  V  V68  1  0.49742350  0.62441547  0.11882100  1
  V  V69  1  0.86991984  0.86518771  0.00107075  1
  V  V70  1  0.87228095  0.61416168  0.24835535  1
  V  V71  1  0.63240768  0.87499599  0.24701296  1
  V  V72  1  0.74798928  0.24881301  0.49896134  1
  Zn  Zn73  1  0.31586309  0.43167690  0.56505243  1
  Zn  Zn74  1  0.24404776  0.51240665  0.24942823  1
  Zn  Zn75  1  0.11573041  0.14023669  0.47929050  1
  Zn  Zn76  1  0.41577930  0.19625338  0.08577907  1
  Zn  Zn77  1  -0.01714060  0.02411673  0.51913088  1
  Zn  Zn78  1  0.38212339  0.25729600  0.64753837  1
  Zn  Zn79  1  0.58158046  0.16817862  0.04816459  1
  Zn  Zn80  1  0.61182807  0.24624536  0.86770332  1
  Zn  Zn81  1  0.31243760  0.80498549  0.46844096  1
  Zn  Zn82  1  0.24740861  0.17116898  0.19305918  1
  Zn  Zn83  1  0.18316018  0.19427154  0.69630313  1
  Zn  Zn84  1  0.18582502  0.69699803  0.18488296  1
  Zn  Zn85  1  0.18588610  0.68828277  0.68918714  1
  Zn  Zn86  1  0.60369663  0.37628646  0.24338550  1
  Zn  Zn87  1  0.70485492  0.19170530  0.69247605  1
  Zn  Zn88  1  0.69185947  0.68513115  0.18566088  1
  Zn  Zn89  1  0.68407224  0.68343548  0.69165204  1
  Zn  Zn90  1  0.35958682  0.28723454  0.38899548  1
  Zn  Zn91  1  0.29766648  0.32259236  0.82096946  1
  Zn  Zn92  1  0.31578415  0.81024504  0.30184473  1
  Zn  Zn93  1  0.31042129  0.80456626  0.80547267  1
  Zn  Zn94  1  0.76436104  0.28633244  0.28773599  1
  Zn  Zn95  1  0.80920986  0.31705354  0.81107550  1
  Zn  Zn96  1  0.81304144  0.80951081  0.30908349  1
  Zn  Zn97  1  0.80852684  0.81373102  0.80880050  1
  Zn  Zn98  1  0.19459446  0.45695302  0.43540443  1
  Zn  Zn99  1  0.17522341  0.44524243  0.93576336  1
  Zn  Zn100  1  0.18207915  0.95914631  0.43616810  1
  Zn  Zn101  1  0.18567517  0.93814002  0.93570532  1
  Zn  Zn102  1  0.69026263  0.42148093  0.41343976  1
  Zn  Zn103  1  0.68686402  0.44338576  0.93792125  1
  Zn  Zn104  1  0.68239122  0.93452847  0.43834603  1
  Zn  Zn105  1  0.68790275  0.93929026  0.93896114  1
  Zn  Zn106  1  0.30950818  0.05803658  0.05941546  1
  Zn  Zn107  1  0.30102320  0.06504692  0.67772255  1
  Zn  Zn108  1  0.30151947  0.55753114  0.06108619  1
  Zn  Zn109  1  0.33596092  0.62327621  0.53663346  1
  Zn  Zn110  1  0.80756612  0.05958140  0.06335542  1
  Zn  Zn111  1  0.78038441  0.02929131  0.55142564  1
  Zn  Zn112  1  0.81173422  0.56176916  0.06497233  1
  Zn  Zn113  1  0.81285074  0.56565375  0.55652607  1
  Zn  Zn114  1  0.42501490  0.44714214  0.17368668  1
  Zn  Zn115  1  0.44453084  0.43577528  0.69365450  1
  Zn  Zn116  1  0.44641122  0.92810493  0.17450263  1
  Zn  Zn117  1  0.44125091  0.92287176  0.70462534  1
  Zn  Zn118  1  0.94423562  0.43830959  0.18681125  1
  Zn  Zn119  1  0.93872350  0.44086680  0.68873653  1
  Zn  Zn120  1  0.93579409  0.93630063  0.19109830  1
  Zn  Zn121  1  0.93141800  0.93208883  0.68425794  1
  Zn  Zn122  1  0.10342803  0.09946431  0.28839604  1
  Zn  Zn123  1  0.04669871  0.06790906  0.81355359  1
  Zn  Zn124  1  0.06214299  0.56531639  0.30851474  1
  Zn  Zn125  1  0.06302860  0.56698378  0.81106417  1
  Zn  Zn126  1  0.57097137  0.05006819  0.32259486  1
  Zn  Zn127  1  0.55995657  0.06868860  0.81018342  1
  Zn  Zn128  1  0.55766202  0.56522330  0.31410289  1
  Zn  Zn129  1  0.57736116  0.56277061  0.80308032  1
  Zn  Zn130  1  0.42014073  0.15026587  0.52165158  1
  Zn  Zn131  1  0.42652226  0.18854652  0.81635915  1
  Zn  Zn132  1  0.45696038  0.68607705  0.43875979  1
  Zn  Zn133  1  0.44050492  0.69068757  0.92857572  1
  Zn  Zn134  1  0.93360072  0.19404395  0.43250251  1
  Zn  Zn135  1  0.93520930  0.19119658  0.94215284  1
  Zn  Zn136  1  0.94173223  0.68521922  0.43522151  1
  Zn  Zn137  1  0.94027352  0.55080143  0.93541089  1
  Zn  Zn138  1  0.05638787  0.30782426  0.07144088  1
  Zn  Zn139  1  0.06318459  0.32053774  0.55716763  1
  Zn  Zn140  1  0.06127548  0.80515082  0.06218196  1
  Zn  Zn141  1  0.06104445  0.81465248  0.56344559  1
  Zn  Zn142  1  0.55978377  0.33164326  0.05098342  1
  Zn  Zn143  1  0.57081257  0.29282090  0.58665472  1
  Zn  Zn144  1  0.56193354  0.81428541  0.05543753  1
  Zn  Zn145  1  0.57168655  0.80625987  0.56643053  1
  O  O146  1  0.10485920  0.12864368  0.10810516  1
  O  O147  1  0.12502719  0.11211270  0.63726101  1
  O  O148  1  0.12482746  0.64396221  0.10602477  1
  O  O149  1  0.11430321  0.62149756  0.61807792  1
  O  O150  1  0.63823263  0.10291014  0.12284896  1
  O  O151  1  0.63765180  0.13044794  0.62335225  1
  O  O152  1  0.61702778  0.62328695  0.11553354  1
  O  O153  1  0.64048525  0.61874187  0.60662911  1
  O  O154  1  0.38905176  0.39361518  0.38578389  1
  O  O155  1  0.35054175  0.39090009  0.89874826  1
  O  O156  1  0.39236942  0.84889009  0.38198679  1
  O  O157  1  0.36246157  0.86717135  0.89014975  1
  O  O158  1  0.95480299  0.32994704  0.32362909  1
  O  O159  1  0.87619886  0.37452152  0.88633936  1
  O  O160  1  0.87919226  0.87375753  0.38118121  1
  O  O161  1  0.88040066  0.87593079  0.88294947  1
  O  O162  1  0.26970569  -0.04370638  0.36278488  1
  O  O163  1  0.24296704  0.01777515  0.88303465  1
  O  O164  1  0.26924650  0.49481679  0.35904692  1
  O  O165  1  0.23757139  0.51362010  0.86278741  1
  O  O166  1  0.76454237  0.00745758  0.38426220  1
  O  O167  1  0.76561425  0.00835836  0.88902074  1
  O  O168  1  0.75300564  0.51194838  0.36884097  1
  O  O169  1  0.75489514  0.51030644  0.86873961  1
  O  O170  1  0.23130601  0.50717395  0.13264064  1
  O  O171  1  0.23766360  0.50259462  0.63596512  1
  O  O172  1  0.25898039  0.98069091  0.14170414  1
  O  O173  1  0.22489675  0.98555868  0.64132031  1
  O  O174  1  0.72955016  0.51001815  0.12490338  1
  O  O175  1  0.75457771  0.48952748  0.62387358  1
  O  O176  1  0.73740654  0.98188328  0.11564098  1
  O  O177  1  0.83377839  1.01836450  0.65043535  1
  O  O178  1  -0.00501837  0.35902913  0.26143725  1
  O  O179  1  0.00792148  0.36903973  0.74786020  1
  O  O180  1  0.00463566  0.86793782  0.25644435  1
  O  O181  1  0.00401441  0.86748162  0.75982006  1
  O  O182  1  0.48819377  0.37375058  0.23987306  1
  O  O183  1  0.52656881  0.37566376  0.74617338  1
  O  O184  1  0.51188957  0.85990788  0.25096126  1
  O  O185  1  0.52064142  0.85594756  0.74349505  1
  O  O186  1  0.54393413  0.15397393  0.25925794  1
  O  O187  1  0.45273184  0.08155073  0.74326676  1
  O  O188  1  0.49348377  0.63580869  0.23719213  1
  O  O189  1  0.52290574  0.63578193  0.73466054  1
  O  O190  1  0.98572602  0.11944184  0.24033925  1
  O  O191  1  0.97381141  0.13428833  0.74876754  1
  O  O192  1  0.98254962  0.63839951  0.25912062  1
  O  O193  1  1.00476949  0.63876478  0.73817716  1
  O  O194  1  0.35507679  0.26435362  0.00041594  1
  O  O195  1  0.34476432  0.25534228  0.49665647  1
  O  O196  1  0.38476590  0.76063797  0.00567376  1
  O  O197  1  0.37644200  0.72424391  0.50552245  1
  O  O198  1  0.86837082  0.26273381  0.00659058  1
  O  O199  1  0.87185645  0.25954488  0.50703598  1
  O  O200  1  0.88521974  0.76088855  0.01477575  1
  O  O201  1  0.87944256  0.75657637  0.50716305  1
  O  O202  1  0.13409578  0.25738271  0.49920852  1
  O  O203  1  0.12209945  0.24442007  0.99465483  1
  O  O204  1  0.11485774  0.74565964  0.48872550  1
  O  O205  1  0.11943608  0.74372341  0.98507421  1
  O  O206  1  0.64526863  0.23353527  0.50591740  1
  O  O207  1  0.63923143  0.25482593  0.98915199  1
  O  O208  1  0.62854241  0.74055638  0.48399308  1
  O  O209  1  0.61782274  0.73941316  0.98589315  1
  O  O210  1  0.51303915  0.24368682  0.09961605  1
  O  O211  1  0.47971274  0.23525364  0.58894370  1
  O  O212  1  0.49563635  0.74286609  0.12598944  1
  O  O213  1  0.51136080  0.73699082  0.63416514  1
  O  O214  1  0.97704979  0.23626462  0.11975175  1
  O  O215  1  0.98956805  0.26378644  0.63033580  1
  O  O216  1  0.98987847  0.75686014  0.13815794  1
  O  O217  1  0.99606476  0.74387616  0.63101679  1
  O  O218  1  -0.01274511  0.26209128  0.34981127  1
  O  O219  1  0.00336584  0.24362255  0.86510005  1
  O  O220  1  0.00421790  0.75991432  0.36537779  1
  O  O221  1  0.00494797  0.76160019  0.86665376  1
  O  O222  1  0.44810063  0.25667488  0.30747459  1
  O  O223  1  0.52840383  0.17373587  0.85050695  1
  O  O224  1  0.51883786  0.75113264  0.36312983  1
  O  O225  1  0.51838702  0.73766245  0.85850541  1
  O  O226  1  0.23380320  0.15719860  0.48839903  1
  O  O227  1  0.23342500  0.13369789  0.99460267  1
  O  O228  1  0.22735156  0.62697364  0.50753801  1
  O  O229  1  0.23874923  0.62019931  0.98235110  1
  O  O230  1  0.75778068  0.13458481  0.49783592  1
  O  O231  1  0.75240632  0.13523758  0.99195093  1
  O  O232  1  0.74402543  0.62374202  0.48189320  1
  O  O233  1  0.74070460  0.61841518  0.98814905  1
  O  O234  1  0.23753812  0.36291631  -0.00560623  1
  O  O235  1  0.23957247  0.37112231  0.49868113  1
  O  O236  1  0.25736487  0.88443857  0.01143040  1
  O  O237  1  0.24617958  0.88325601  0.51718026  1
  O  O238  1  0.75849488  0.36532302  -0.00700928  1
  O  O239  1  0.74085219  0.36284307  0.50535652  1
  O  O240  1  0.76234829  0.87306403  0.00558155  1
  O  O241  1  0.76459705  0.86909886  0.49267867  1
  O  O242  1  0.12789224  0.50618833  0.23993854  1
  O  O243  1  0.12346545  0.49853813  0.73789580  1
  O  O244  1  0.12195290  0.98451555  0.24980928  1
  O  O245  1  0.10817346  0.98702065  0.75248178  1
  O  O246  1  0.60877553  0.50296499  0.23295330  1
  O  O247  1  0.64605666  0.48535259  0.75388658  1
  O  O248  1  0.61964359  0.98394193  0.23668214  1
  O  O249  1  0.61008217  0.98524752  0.74795771  1
  O  O250  1  0.38304429  -0.02633487  0.25542816  1
  O  O251  1  0.39626722  0.02229996  0.74456746  1
  O  O252  1  0.37519542  0.52123805  0.24914994  1
  O  O253  1  0.35471400  0.49227967  0.74859946  1
  O  O254  1  0.87154637  0.00611350  0.25800391  1
  O  O255  1  0.89585435  0.00061069  0.77474197  1
  O  O256  1  0.87956700  0.51585189  0.24402508  1
  O  O257  1  0.86008790  0.50252176  0.74436666  1
  O  O258  1  0.12086773  0.37418821  0.35686482  1
  O  O259  1  0.12097445  0.36459206  0.86940198  1
  O  O260  1  0.11482919  0.87156797  0.36863457  1
  O  O261  1  0.11650637  0.86922917  0.87073684  1
  O  O262  1  0.56145324  0.36706466  0.42567916  1
  O  O263  1  0.63274421  0.36993922  0.86642417  1
  O  O264  1  0.62442872  0.86247607  0.36725728  1
  O  O265  1  0.63009171  0.85769325  0.87988868  1
  O  O266  1  0.33977304  0.13575161  0.13555579  1
  O  O267  1  0.35641089  0.14116785  0.61768317  1
  O  O268  1  0.38194581  0.63296755  0.12407011  1
  O  O269  1  0.39976507  0.61331207  0.63091281  1
  O  O270  1  0.87624547  0.12421257  0.13248061  1
  O  O271  1  0.87622346  0.15833952  0.62825905  1
  O  O272  1  0.86505294  0.63509575  0.13847526  1
  O  O273  1  0.88558869  0.63952026  0.61490379  1
  O  O274  1  0.23486138  0.25579364  0.10811383  1
  O  O275  1  0.24229766  0.26179544  0.62554803  1
  O  O276  1  0.26226101  0.76413763  0.12564875  1
  O  O277  1  0.24001883  0.77136817  0.63483396  1
  O  O278  1  0.76222503  0.24753282  0.10376925  1
  O  O279  1  0.76510444  0.26192642  0.61358248  1
  O  O280  1  0.76072492  0.75937690  0.12670933  1
  O  O281  1  0.76597688  0.74083481  0.63007629  1
  O  O282  1  0.27816215  0.22078798  0.34448709  1
  O  O283  1  0.22773734  0.24003127  0.88274513  1
  O  O284  1  0.23637116  0.76647826  0.37648870  1
  O  O285  1  0.23523665  0.73503607  0.86007183  1
  O  O286  1  0.76478740  0.23247755  0.39225390  1
  O  O287  1  0.76490224  0.23799488  0.88680252  1
  O  O288  1  0.73854945  0.74402258  0.36777424  1
  O  O289  1  0.74168291  0.73683338  0.86794764  1
  O  O290  1  -0.00143092  0.11420432  0.00647525  1
  O  O291  1  0.00569632  0.12809779  0.48452529  1
  O  O292  1  0.01142508  0.62199306  -0.00354986  1
  O  O293  1  0.00802963  0.61992277  0.50668887  1
  O  O294  1  0.49044894  0.10541264  0.00980189  1
  O  O295  1  0.53223741  0.11001562  0.49971876  1
  O  O296  1  0.50783510  0.62183313  0.00065435  1
  O  O297  1  0.52268145  0.62330301  0.51382146  1
  O  O298  1  0.52563860  0.37226952  0.49043976  1
  O  O299  1  0.48424660  0.39296791  0.98910543  1
  O  O300  1  0.51198490  0.86213408  0.48613172  1
  O  O301  1  0.48558244  0.88123799  1.00090379  1
  O  O302  1  1.00118107  0.39353213  0.49778993  1
  O  O303  1  0.98487166  0.36864909  1.00287156  1
  O  O304  1  0.99169276  0.87239318  0.48876688  1
  O  O305  1  0.99455493  0.87779101  0.99608463  1
  O  O306  1  0.47572565  0.52182826  0.37624730  1
  O  O307  1  0.50459359  0.51484722  0.88025234  1
  O  O308  1  0.50602488  0.97326164  0.37249185  1
  O  O309  1  0.50853308  0.99864779  0.89220183  1
  O  O310  1  1.00360130  0.50553870  0.38490038  1
  O  O311  1  1.00133727  0.49444750  0.86419993  1
  O  O312  1  0.98459721  0.98496751  0.37481484  1
  O  O313  1  0.99433074  0.98703271  0.88968742  1
  O  O314  1  -0.00827830  0.00602941  0.11680772  1
  O  O315  1  0.00972423  -0.00488681  0.62921257  1
  O  O316  1  0.01913220  0.50155983  0.13192174  1
  O  O317  1  0.00565114  0.51167989  0.61991004  1
  O  O318  1  0.51672258  -0.00621072  0.11814233  1
  O  O319  1  0.48961421  -0.01712259  0.59940382  1
  O  O320  1  0.50346266  0.51494088  0.11107747  1
  O  O321  1  0.51448242  0.51058523  0.63766066  1
  O  O322  1  0.15378372  0.32154723  0.31866030  1
  O  O323  1  0.22714296  0.39360522  0.75950112  1
  O  O324  1  0.24253968  0.87403489  0.23764855  1
  O  O325  1  0.22876249  0.87445328  0.75756975  1
  O  O326  1  0.68771109  0.36029713  0.31333160  1
  O  O327  1  0.75123170  0.38860929  0.73962407  1
  O  O328  1  0.74076728  0.87019412  0.24061469  1
  O  O329  1  0.73563914  0.88210209  0.75846285  1
  O  O330  1  0.26827680  0.08449622  0.27585121  1
  O  O331  1  0.24316499  0.12417657  0.76431722  1
  O  O332  1  0.26640136  0.63843033  0.24322608  1
  O  O333  1  0.24015128  0.61240795  0.75740504  1
  O  O334  1  0.75921417  0.12778246  0.27233217  1
  O  O335  1  0.78580871  0.13372630  0.75867212  1
  O  O336  1  0.76175614  0.62865008  0.25905534  1
  O  O337  1  0.74542721  0.61321484  0.76341101  1
  O  O338  1  0.36015930  0.10311263  0.42068080  1
  O  O339  1  0.35112065  0.13177115  0.88644779  1
  O  O340  1  0.37898888  0.63959045  0.35573180  1
  O  O341  1  0.35575856  0.63424885  0.87624288  1
  O  O342  1  0.87254519  0.11385214  0.36852918  1
  O  O343  1  0.87254852  0.11072064  0.88748899  1
  O  O344  1  0.86355436  0.63296293  0.36394724  1
  O  O345  1  0.86194202  0.62894136  0.88711249  1
  O  O346  1  0.12095815  0.38083175  0.12910672  1
  O  O347  1  0.11723029  0.39142308  0.63428142  1
  O  O348  1  0.13810185  0.86556482  0.12900826  1
  O  O349  1  0.12274677  0.87845004  0.64179931  1
  O  O350  1  0.62062744  0.39377232  0.12396149  1
  O  O351  1  0.64435676  0.36690217  0.63382378  1
  O  O352  1  0.63278912  0.87004263  0.12955862  1
  O  O353  1  0.63618722  0.87344197  0.63109196  1
  O  O354  1  0.14707332  0.18872076  0.23796876  1
  O  O355  1  0.10908265  0.25934563  0.75685690  1
  O  O356  1  0.11647423  0.75842288  0.25780079  1
  O  O357  1  0.11190418  0.76059287  0.75800991  1
  O  O358  1  0.59613406  0.20661318  0.25351925  1
  O  O359  1  0.64999999  0.26777659  0.75579505  1
  O  O360  1  0.62106406  0.75323358  0.25210024  1
  O  O361  1  0.62703602  0.75876140  0.75891518  1
  O  O362  1  0.44310884  0.29297060  0.24117508  1
  O  O363  1  0.36534343  0.25921979  0.76034470  1
  O  O364  1  0.38649325  0.74558443  0.23423299  1
  O  O365  1  0.39853118  0.75432212  0.75340483  1
  O  O366  1  0.85361533  0.24142957  0.23348891  1
  O  O367  1  0.88518394  0.26683348  0.73943146  1
  O  O368  1  0.88205852  0.74835811  0.24090275  1
  O  O369  1  0.88398423  0.76149272  0.73400983  1
  O  O370  1  0.35683381  0.51414240  0.49176970  1
  O  O371  1  0.38916759  0.51585725  0.99241907  1
  O  O372  1  0.43352611  1.00106714  0.55506876  1
  O  O373  1  0.38455066  0.98658793  1.00494860  1
  O  O374  1  0.89054219  0.50802295  0.49840180  1
  O  O375  1  0.87322233  0.48664055  1.00692447  1
  O  O376  1  0.87553321  0.98082024  0.49250758  1
  O  O377  1  0.88351759  0.98560957  0.99788574  1
  O  O378  1  0.11097844  0.00639963  -0.00267888  1
  O  O379  1  0.11694869  0.00016368  0.52162808  1
  O  O380  1  0.12689731  0.51263391  0.01596791  1
  O  O381  1  0.11727522  0.51006448  0.50518951  1
  O  O382  1  0.61246709  -0.01122992  0.01043091  1
  O  O383  1  0.66633446  0.01102376  0.52112152  1
  O  O384  1  0.61353750  0.50892314  0.00554520  1
  O  O385  1  0.63489278  0.50701193  0.48261001  1
  O  O386  1  0.35985749  0.40173845  0.09280711  1
  O  O387  1  0.38407482  0.37150282  0.62620326  1
  O  O388  1  0.36710035  0.86599497  0.11401181  1
  O  O389  1  0.34973116  0.88686491  0.64689845  1
  O  O390  1  0.87549447  0.36317551  0.12713972  1
  O  O391  1  0.86290054  0.37220940  0.62446050  1
  O  O392  1  0.86735707  0.86944569  0.12120868  1
  O  O393  1  0.87844914  0.86072811  0.60936495  1
  O  O394  1  0.16232979  0.07888022  0.38691372  1
  O  O395  1  0.11682919  0.13265663  0.88480939  1
  O  O396  1  0.11873370  0.64113580  0.38094804  1
  O  O397  1  0.12647588  0.63279291  0.88395752  1
  O  O398  1  0.64654473  0.10953103  0.38902203  1
  O  O399  1  0.66400842  0.11558347  0.85534158  1
  O  O400  1  0.63574587  0.63170311  0.37528410  1
  O  O401  1  0.63642651  0.63200221  0.88090497  1
