# generated using pymatgen
data_V73Zn73O256
_symmetry_space_group_name_H-M   'P 1'
_cell_length_a   16.83233136
_cell_length_b   16.88926476
_cell_length_c   16.90672352
_cell_angle_alpha   89.87725679
_cell_angle_beta   89.89455573
_cell_angle_gamma   90.16378228
_symmetry_Int_Tables_number   1
_chemical_formula_structural   V73Zn73O256
_chemical_formula_sum   'V73 Zn73 O256'
_cell_volume   4806.30088653
_cell_formula_units_Z   1
loop_
 _symmetry_equiv_pos_site_id
 _symmetry_equiv_pos_as_xyz
  1  'x, y, z'
loop_
 _atom_site_type_symbol
 _atom_site_label
 _atom_site_symmetry_multiplicity
 _atom_site_fract_x
 _atom_site_fract_y
 _atom_site_fract_z
 _atom_site_occupancy
  V  V0  1  0.51667878  0.37033074  0.37720185  1
  V  V1  1  0.87334875  0.87587973  0.49909021  1
  V  V2  1  0.12537521  0.75334888  0.38326473  1
  V  V3  1  0.24364607  0.51202097  0.74757323  1
  V  V4  1  0.86474320  0.01562561  0.37171275  1
  V  V5  1  0.74740564  0.87472116  0.63138115  1
  V  V6  1  0.73264622  0.50074116  0.75462278  1
  V  V7  1  0.62806123  0.87372271  0.25371961  1
  V  V8  1  0.00155389  0.60787216  0.63275853  1
  V  V9  1  0.12849351  0.86639236  0.75459385  1
  V  V10  1  0.87724026  0.51698070  0.37881680  1
  V  V11  1  0.48763515  0.74742259  0.75123098  1
  V  V12  1  0.00569795  0.85923546  0.87548232  1
  V  V13  1  0.84594649  0.64354365  0.26446320  1
  V  V14  1  0.63207793  -0.00282048  0.10600279  1
  V  V15  1  0.12960378  0.12373805  0.50298528  1
  V  V16  1  0.86939409  0.25346934  0.62464802  1
  V  V17  1  0.51000185  -0.00443294  0.48513366  1
  V  V18  1  -0.00034776  0.00199566  0.50322787  1
  V  V19  1  0.51279561  0.48611897  -0.01351183  1
  V  V20  1  0.26261564  0.25172157  0.50226552  1
  V  V21  1  0.50356554  0.61991424  0.12836835  1
  V  V22  1  0.00126300  0.87965932  0.37433576  1
  V  V23  1  0.62842892  0.00237570  0.62276990  1
  V  V24  1  0.24408022  0.62009159  0.38658533  1
  V  V25  1  0.37276936  0.62486134  0.25466113  1
  V  V26  1  0.10763034  0.60430625  0.49618721  1
  V  V27  1  0.13109366  -0.00041050  0.63349226  1
  V  V28  1  0.11687032  0.24700191  0.37578275  1
  V  V29  1  0.62949659  0.74953012  0.87186177  1
  V  V30  1  0.37313066  0.13223456  0.23595701  1
  V  V31  1  0.24022263  0.36444470  0.11726138  1
  V  V32  1  0.51420327  0.25640832  0.24665608  1
  V  V33  1  0.89815314  0.37950898  0.49823726  1
  V  V34  1  0.89269711  0.75046616  0.62926074  1
  V  V35  1  0.36712492  0.50942699  0.87703222  1
  V  V36  1  0.52032669  0.12915861  0.11371899  1
  V  V37  1  0.00161817  0.74827038  0.25233021  1
  V  V38  1  0.26283244  0.00924899  0.75968584  1
  V  V39  1  0.39318970  -0.00747460  0.36672576  1
  V  V40  1  0.25159477  -0.02975473  0.25962320  1
  V  V41  1  0.87103373  0.11848939  0.75107420  1
  V  V42  1  0.62993773  0.63142536  -0.00082510  1
  V  V43  1  0.88177960  0.88473074  0.01078978  1
  V  V44  1  0.64006032  0.14021409  0.48152351  1
  V  V45  1  0.74069898  0.38358768  0.61637228  1
  V  V46  1  0.62779882  0.60427375  0.50591754  1
  V  V47  1  0.37104458  0.48744514  0.37864241  1
  V  V48  1  0.24903884  0.14437025  0.88229241  1
  V  V49  1  0.00151437  0.12889263  0.62984738  1
  V  V50  1  0.26057556  0.12534847  0.37726244  1
  V  V51  1  0.37008203  0.74732725  0.10876392  1
  V  V52  1  0.88116742  -0.00151592  0.87063132  1
  V  V53  1  0.12587265  0.37131335  0.75762349  1
  V  V54  1  0.73634535  0.74615745  0.49881960  1
  V  V55  1  0.25227721  0.37455798  0.62686326  1
  V  V56  1  0.62038751  0.87770219  0.75265428  1
  V  V57  1  0.36543866  0.37339008  0.00882365  1
  V  V58  1  -0.00891166  0.40795259  0.87585275  1
  V  V59  1  0.73551163  0.24553654  0.00554126  1
  V  V60  1  0.23860459  0.64529269  0.90083130  1
  V  V61  1  0.48817650  0.62492051  0.63059320  1
  V  V62  1  0.86206624  0.75978510  0.13361631  1
  V  V63  1  0.24115808  0.86114975  0.10549950  1
  V  V64  1  0.49250956  0.49166469  0.50765848  1
  V  V65  1  0.85961474  0.38478003  -0.01138328  1
  V  V66  1  0.11169758  0.37497499  0.25545600  1
  V  V67  1  0.24470935  0.49766561  0.24333634  1
  V  V68  1  0.00226894  0.24589260  0.77204104  1
  V  V69  1  0.48718535  0.12409299  0.62643467  1
  V  V70  1  0.73578929  0.12706137  0.87025300  1
  V  V71  1  0.04538336  0.58285961  0.06492509  1
  V  V72  1  0.74971508  0.02117142  0.24026703  1
  Zn  Zn73  1  0.74524787  0.76040716  0.00821456  1
  Zn  Zn74  1  0.86619434  0.59933271  0.79806949  1
  Zn  Zn75  1  0.01354073  0.22238278  0.20759116  1
  Zn  Zn76  1  0.70907234  0.42114788  0.17657714  1
  Zn  Zn77  1  0.31869522  0.81562863  0.55166631  1
  Zn  Zn78  1  0.48894930  0.77233097  0.25670026  1
  Zn  Zn79  1  0.62312144  0.74755848  0.37031683  1
  Zn  Zn80  1  0.37799554  0.25102992  0.63686530  1
  Zn  Zn81  1  0.88826998  0.24546995  0.10861116  1
  Zn  Zn82  1  0.19572533  0.19551804  0.19472819  1
  Zn  Zn83  1  0.18983919  0.18859501  0.69461214  1
  Zn  Zn84  1  0.18030827  0.68351269  0.18769050  1
  Zn  Zn85  1  0.19933245  0.68927301  0.67411678  1
  Zn  Zn86  1  0.73408857  0.23818993  0.22849144  1
  Zn  Zn87  1  0.69038468  0.18228880  0.67950770  1
  Zn  Zn88  1  0.69267094  0.58392979  0.18510586  1
  Zn  Zn89  1  0.68579152  0.68314135  0.68430950  1
  Zn  Zn90  1  0.31404278  0.31135213  0.30708749  1
  Zn  Zn91  1  0.30919808  0.31826181  0.82860196  1
  Zn  Zn92  1  0.33000064  0.79769359  0.35584032  1
  Zn  Zn93  1  0.31087450  0.82211684  0.81926130  1
  Zn  Zn94  1  0.87414416  0.31187946  0.29795700  1
  Zn  Zn95  1  0.80525438  0.31530077  0.80665371  1
  Zn  Zn96  1  0.80032792  0.82875661  0.31331236  1
  Zn  Zn97  1  0.84136326  0.77261006  0.83762940  1
  Zn  Zn98  1  0.18304112  0.43090672  0.43859938  1
  Zn  Zn99  1  0.17224615  0.45622834  0.94268759  1
  Zn  Zn100  1  0.19383627  0.93363684  0.44433515  1
  Zn  Zn101  1  0.19254909  0.94149824  0.93035269  1
  Zn  Zn102  1  0.73205624  0.37143722  0.40183009  1
  Zn  Zn103  1  0.69041957  0.44834632  0.95147530  1
  Zn  Zn104  1  0.68656206  0.93825825  0.43613097  1
  Zn  Zn105  1  0.70043030  0.93510675  0.92691203  1
  Zn  Zn106  1  0.26324735  0.05750388  0.07756963  1
  Zn  Zn107  1  0.31297448  0.02572906  0.55372736  1
  Zn  Zn108  1  0.31364145  0.56133110  0.06238899  1
  Zn  Zn109  1  0.31065242  0.56332258  0.56356740  1
  Zn  Zn110  1  0.81851572  0.07358361  0.05611776  1
  Zn  Zn111  1  0.81047877  0.06378028  0.56255003  1
  Zn  Zn112  1  0.82748799  0.57649631  0.04532905  1
  Zn  Zn113  1  0.81900987  0.55987378  0.56611224  1
  Zn  Zn114  1  0.54547307  0.44458799  0.18737815  1
  Zn  Zn115  1  0.42887091  0.43959889  0.69182321  1
  Zn  Zn116  1  0.45473955  0.92374850  0.14681404  1
  Zn  Zn117  1  0.43434171  0.93150035  0.67399244  1
  Zn  Zn118  1  0.87667773  0.47606860  0.16122260  1
  Zn  Zn119  1  0.92838153  0.43520523  0.69803965  1
  Zn  Zn120  1  0.94356188  0.94981667  0.19472726  1
  Zn  Zn121  1  0.94315001  0.93252034  0.69084032  1
  Zn  Zn122  1  0.07323547  0.05401274  0.31831999  1
  Zn  Zn123  1  0.06831241  0.06244634  0.82174349  1
  Zn  Zn124  1  0.03159336  0.54301646  0.24554567  1
  Zn  Zn125  1  0.07028571  0.57604373  0.80872185  1
  Zn  Zn126  1  0.57172616  0.07506260  0.30004909  1
  Zn  Zn127  1  0.54422683  0.05748455  0.81232117  1
  Zn  Zn128  1  0.56908766  0.56441984  0.32275694  1
  Zn  Zn129  1  0.56564655  0.56186848  0.81101480  1
  Zn  Zn130  1  0.44813701  0.18340298  0.43834865  1
  Zn  Zn131  1  0.38826228  0.16142081  0.96960474  1
  Zn  Zn132  1  0.44282481  0.68636748  0.43763940  1
  Zn  Zn133  1  0.43982949  0.68132434  0.93194615  1
  Zn  Zn134  1  0.93410984  0.18979024  0.44400886  1
  Zn  Zn135  1  0.92523410  0.18243992  0.95123173  1
  Zn  Zn136  1  0.93756220  0.69123913  0.44268903  1
  Zn  Zn137  1  0.95721533  0.68091292  0.95460330  1
  Zn  Zn138  1  0.01845270  0.38870832  0.09648060  1
  Zn  Zn139  1  0.07314223  0.31073856  0.57006628  1
  Zn  Zn140  1  0.05690041  0.79144903  0.05769822  1
  Zn  Zn141  1  0.11231613  0.79367642  0.58195536  1
  Zn  Zn142  1  0.56104181  0.31129840  0.05943217  1
  Zn  Zn143  1  0.55971789  0.30555653  0.55979345  1
  Zn  Zn144  1  0.55679647  0.81448261  0.06223465  1
  Zn  Zn145  1  0.52891230  0.82294505  0.57055238  1
  O  O146  1  0.15594232  0.11008364  0.12047339  1
  O  O147  1  0.11726454  0.12142904  0.62454019  1
  O  O148  1  0.09714538  0.61138056  0.15420055  1
  O  O149  1  0.11016349  0.62851405  0.60751121  1
  O  O150  1  0.62057779  0.12244728  0.10969192  1
  O  O151  1  0.61824786  0.11510075  0.62296109  1
  O  O152  1  0.60729569  0.64017518  0.12087694  1
  O  O153  1  0.61181453  0.62579613  0.61137909  1
  O  O154  1  0.37584459  0.38454214  0.37150290  1
  O  O155  1  0.35720974  0.39864541  0.89667407  1
  O  O156  1  0.39507897  0.89476096  0.36172118  1
  O  O157  1  0.40514651  0.88011725  0.88208714  1
  O  O158  1  0.90074626  0.35905538  0.39953642  1
  O  O159  1  0.88774986  0.37227230  0.87061018  1
  O  O160  1  0.87906056  0.88711096  0.38488723  1
  O  O161  1  0.89072757  0.87579999  0.87678495  1
  O  O162  1  0.27007540  0.00684608  0.37203270  1
  O  O163  1  0.26162670  0.00236304  0.86300082  1
  O  O164  1  0.25317504  0.50161887  0.37381416  1
  O  O165  1  0.24977521  0.51501827  0.86956318  1
  O  O166  1  0.76092432  0.00437719  0.37138572  1
  O  O167  1  0.76792376  0.01310362  0.87491954  1
  O  O168  1  0.78874050  0.46738283  0.36279397  1
  O  O169  1  0.73360693  0.48970018  0.85454682  1
  O  O170  1  0.24529994  0.50639711  0.14301816  1
  O  O171  1  0.25829820  0.49240272  0.64121754  1
  O  O172  1  0.25909067  0.96612795  0.14707094  1
  O  O173  1  0.23531558  1.01537968  0.64081228  1
  O  O174  1  0.76743936  0.51313163  0.12918933  1
  O  O175  1  0.74879523  0.48842570  0.62240109  1
  O  O176  1  0.74623991  1.01724452  0.12989423  1
  O  O177  1  0.73928577  0.98932482  0.61991466  1
  O  O178  1  0.01400970  0.37498827  0.25511095  1
  O  O179  1  0.00370253  0.36635747  0.76226041  1
  O  O180  1  -0.00380885  0.87557930  0.26907349  1
  O  O181  1  0.01293028  0.87920216  0.76468460  1
  O  O182  1  0.49977240  0.36489242  0.26122176  1
  O  O183  1  0.46137038  0.34588687  0.76036708  1
  O  O184  1  0.51830839  0.88353534  0.23701821  1
  O  O185  1  0.51236869  0.85834631  0.73847893  1
  O  O186  1  0.49011075  0.13501942  0.23852484  1
  O  O187  1  0.49454319  0.11157790  0.72680131  1
  O  O188  1  0.48718479  0.60809176  0.23649592  1
  O  O189  1  0.49970984  0.63009059  0.73921564  1
  O  O190  1  1.01828572  0.09906725  0.22474970  1
  O  O191  1  0.99624585  0.12886878  0.74572523  1
  O  O192  1  0.97804150  0.64947321  0.26374387  1
  O  O193  1  1.00416745  0.63004485  0.73199253  1
  O  O194  1  0.37072417  0.27591638  -0.00468088  1
  O  O195  1  0.36373093  0.24500216  0.49665762  1
  O  O196  1  0.37865686  0.74484901  0.01061449  1
  O  O197  1  0.35834325  0.75604885  0.46011978  1
  O  O198  1  0.85588495  0.26825507  -0.01139264  1
  O  O199  1  0.88621203  0.25889879  0.51833997  1
  O  O200  1  0.88325483  0.76161011  0.02627115  1
  O  O201  1  0.86735251  0.76157549  0.50749311  1
  O  O202  1  0.13561896  0.24124179  0.49574333  1
  O  O203  1  0.10385442  0.13414462  1.06852208  1
  O  O204  1  0.11049733  0.73527635  0.48372452  1
  O  O205  1  0.05862979  0.68268576  1.01893582  1
  O  O206  1  0.62590420  0.23975702  0.49455832  1
  O  O207  1  0.63486334  0.25285608  0.99591749  1
  O  O208  1  0.63442774  0.75372063  0.50563523  1
  O  O209  1  0.61896413  0.74946611  0.99249349  1
  O  O210  1  0.50373816  0.24183587  0.13796230  1
  O  O211  1  0.49107540  0.23205584  0.61707813  1
  O  O212  1  0.48231271  0.73781327  0.13507184  1
  O  O213  1  0.50636560  0.73253441  0.63822204  1
  O  O214  1  1.00645367  0.27478360  0.10589798  1
  O  O215  1  0.99771308  0.23821753  0.63500633  1
  O  O216  1  0.98826201  0.76805017  0.15195406  1
  O  O217  1  0.99317631  0.75815987  0.61687145  1
  O  O218  1  0.01682358  0.23334082  0.37695034  1
  O  O219  1  -0.00485093  0.23503188  0.87127251  1
  O  O220  1  0.00257245  0.76167209  0.37197826  1
  O  O221  1  0.00839275  0.76149897  0.87308012  1
  O  O222  1  0.49422015  0.26355047  0.36509366  1
  O  O223  1  0.57795486  0.25605731  0.81054594  1
  O  O224  1  0.51185056  0.72591126  0.35664433  1
  O  O225  1  0.51005271  0.73889516  0.85811944  1
  O  O226  1  0.24924859  0.12706028  0.49215394  1
  O  O227  1  0.27708275  0.11887928  0.98689504  1
  O  O228  1  0.23377564  0.61389524  0.49254151  1
  O  O229  1  0.24122623  0.62612535  1.00057846  1
  O  O230  1  0.73987333  0.12869315  0.50528639  1
  O  O231  1  0.74938650  0.13478288  0.97925073  1
  O  O232  1  0.73888374  0.63538575  0.51344074  1
  O  O233  1  0.73337371  0.64210655  1.01458755  1
  O  O234  1  0.24221526  0.39217369  0.01311727  1
  O  O235  1  0.23903816  0.36267436  0.51404537  1
  O  O236  1  0.25437496  0.88212692  0.00882899  1
  O  O237  1  0.27358911  0.91859347  0.51790506  1
  O  O238  1  0.74896407  0.35699788  -0.01602364  1
  O  O239  1  0.77437910  0.37316571  0.51243800  1
  O  O240  1  0.77727647  0.87007856  -0.01154304  1
  O  O241  1  0.75542813  0.86946652  0.50862995  1
  O  O242  1  0.13582004  0.48434476  0.26742268  1
  O  O243  1  0.13848312  0.49142303  0.75459445  1
  O  O244  1  0.15283548  0.98969314  0.26756509  1
  O  O245  1  0.13328207  0.99771214  0.74693360  1
  O  O246  1  0.62767417  0.50631884  0.24371596  1
  O  O247  1  0.62875437  0.50054712  0.74070415  1
  O  O248  1  0.63937009  1.00468876  0.23998226  1
  O  O249  1  0.61046206  0.98351730  0.73862576  1
  O  O250  1  0.37006397  0.01381599  0.25951947  1
  O  O251  1  0.35972909  -0.01058621  0.73545642  1
  O  O252  1  0.35567122  0.50780966  0.26125670  1
  O  O253  1  0.35996044  0.49529007  0.76925803  1
  O  O254  1  0.86357467  0.00182191  0.26321450  1
  O  O255  1  0.88029251  0.01029204  0.75232613  1
  O  O256  1  0.86190612  0.54175722  0.25609749  1
  O  O257  1  0.85456986  0.50414235  0.74542994  1
  O  O258  1  0.13485927  0.35765691  0.36438615  1
  O  O259  1  0.10381823  0.38947620  0.86961528  1
  O  O260  1  0.11866763  0.86259836  0.38998211  1
  O  O261  1  0.11487548  0.88333152  0.86914425  1
  O  O262  1  0.61480392  0.37735932  0.37713262  1
  O  O263  1  0.57360978  0.42747194  0.93048740  1
  O  O264  1  0.62826146  0.87720473  0.35956785  1
  O  O265  1  0.62748530  0.87231933  0.85772630  1
  O  O266  1  0.36229746  0.11462706  0.13793400  1
  O  O267  1  0.38733337  0.11057755  0.60831733  1
  O  O268  1  0.37668061  0.63205568  0.13354373  1
  O  O269  1  0.38765261  0.62981925  0.61808046  1
  O  O270  1  0.91064410  0.13888884  0.05601616  1
  O  O271  1  0.88178033  0.13003099  0.63138861  1
  O  O272  1  0.86223776  0.65506432  0.14963613  1
  O  O273  1  0.89214921  0.63998925  0.61325415  1
  O  O274  1  0.24226414  0.26467421  0.11726344  1
  O  O275  1  0.25759766  0.25141436  0.62191424  1
  O  O276  1  0.25782583  0.74861229  0.12716808  1
  O  O277  1  0.22541133  0.76617651  0.59981117  1
  O  O278  1  0.75387356  0.23593440  0.10637271  1
  O  O279  1  0.76376828  0.25871314  0.63488109  1
  O  O280  1  0.76446976  0.77624190  0.13029177  1
  O  O281  1  0.75735426  0.75823323  0.61439270  1
  O  O282  1  0.24646156  0.24146665  0.38150573  1
  O  O283  1  0.23716493  0.24576545  0.87655473  1
  O  O284  1  0.22827691  0.73576533  0.36938800  1
  O  O285  1  0.25859428  0.74407146  0.88384446  1
  O  O286  1  0.76316894  0.28286558  0.33492062  1
  O  O287  1  0.74751642  0.23310417  0.86880204  1
  O  O288  1  0.74717594  0.75951747  0.39576691  1
  O  O289  1  0.73161860  0.75651385  0.87739153  1
  O  O290  1  0.08291320  0.05042309  0.01501306  1
  O  O291  1  0.00666140  0.12116062  0.51205542  1
  O  O292  1  -0.05616022  0.58673500  0.02702657  1
  O  O293  1  0.00333487  0.61886032  0.50361451  1
  O  O294  1  0.48612945  0.13555705  0.01919396  1
  O  O295  1  0.51894307  0.11870115  0.50414413  1
  O  O296  1  0.50753303  0.62187352  0.00898844  1
  O  O297  1  0.50623416  0.61377961  0.51013805  1
  O  O298  1  0.50084005  0.37972897  0.48884308  1
  O  O299  1  0.47467786  0.38757782  1.02439188  1
  O  O300  1  0.52456246  0.89716247  0.48221256  1
  O  O301  1  0.47909993  0.88967984  1.04020567  1
  O  O302  1  0.99669519  0.37900286  0.52189364  1
  O  O303  1  0.98188538  0.39508138  0.97963838  1
  O  O304  1  0.98817379  0.88449423  0.49166521  1
  O  O305  1  0.99427737  0.86869445  0.98811053  1
  O  O306  1  0.49253243  0.48718525  0.38186248  1
  O  O307  1  0.47763674  0.52376526  0.88276485  1
  O  O308  1  0.50110439  1.01562109  0.37391968  1
  O  O309  1  0.49425167  0.98047543  0.88886250  1
  O  O310  1  0.97203646  0.50019842  0.34661403  1
  O  O311  1  0.98901240  0.50631638  0.85879740  1
  O  O312  1  0.99266064  0.99781588  0.38209890  1
  O  O313  1  0.98690267  0.99835915  0.87431861  1
  O  O314  1  0.00409495  0.04693301  0.16457083  1
  O  O315  1  0.00496832  0.01182608  0.62402793  1
  O  O316  1  -0.00699998  0.49682797  0.14165409  1
  O  O317  1  -0.00564036  0.50916880  0.63251659  1
  O  O318  1  0.52117867  0.01974609  0.12995440  1
  O  O319  1  0.50997563  0.00467028  0.60470196  1
  O  O320  1  0.49633903  0.51552852  0.10759738  1
  O  O321  1  0.48860950  0.50658986  0.61983212  1
  O  O322  1  0.24771933  0.38341007  0.24074218  1
  O  O323  1  0.24166411  0.37998368  0.75114202  1
  O  O324  1  0.26067776  0.87354566  0.27784481  1
  O  O325  1  0.23587033  0.88965765  0.76077067  1
  O  O326  1  0.78458477  0.35270913  0.22542051  1
  O  O327  1  0.75197733  0.38441806  0.73035854  1
  O  O328  1  0.73973619  0.89987986  0.24862123  1
  O  O329  1  0.73248937  0.86835390  0.73550681  1
  O  O330  1  0.26074530  0.12547248  0.26044768  1
  O  O331  1  0.24999894  0.11707850  0.76119174  1
  O  O332  1  0.24823178  0.61329052  0.26264679  1
  O  O333  1  0.24487284  0.61326162  0.74346722  1
  O  O334  1  0.74993520  0.11985016  0.24983915  1
  O  O335  1  0.76197683  0.12801658  0.75444117  1
  O  O336  1  0.74626714  0.65265307  0.26260169  1
  O  O337  1  0.74873771  0.60943918  0.74338237  1
  O  O338  1  0.37231816  0.12311448  0.36648919  1
  O  O339  1  0.35730729  0.14408604  0.86157276  1
  O  O340  1  0.36356109  0.60978685  0.37189371  1
  O  O341  1  0.35386712  0.61750504  0.88338778  1
  O  O342  1  0.87829268  0.11390920  0.38166997  1
  O  O343  1  0.87285754  0.11723958  0.86452621  1
  O  O344  1  0.86440021  0.62740800  0.37755937  1
  O  O345  1  0.87363097  0.67037710  0.87980011  1
  O  O346  1  0.13253183  0.38004952  0.14560494  1
  O  O347  1  0.13803431  0.37093683  0.64416060  1
  O  O348  1  0.14043152  0.84970134  0.11292198  1
  O  O349  1  0.11224260  0.89095242  0.64351238  1
  O  O350  1  0.61824474  0.38470362  0.12242887  1
  O  O351  1  0.64189244  0.36632788  0.61144769  1
  O  O352  1  0.63043254  0.89507998  0.12916008  1
  O  O353  1  0.62769144  0.88206501  0.62703187  1
  O  O354  1  0.11987373  0.25436914  0.25643312  1
  O  O355  1  0.11448983  0.25923821  0.75212655  1
  O  O356  1  0.10827348  0.74422845  0.26566055  1
  O  O357  1  0.13411429  0.76824236  0.74436306  1
  O  O358  1  0.61168989  0.24286552  0.25174896  1
  O  O359  1  0.61641985  0.26930722  0.74906212  1
  O  O360  1  0.63309804  0.77359771  0.24503296  1
  O  O361  1  0.61951471  0.75629602  0.75422172  1
  O  O362  1  0.38000703  0.23704106  0.24804362  1
  O  O363  1  0.40622762  0.28761280  0.76131332  1
  O  O364  1  0.37046395  0.72987756  0.26187955  1
  O  O365  1  0.38890920  0.75917066  0.75710622  1
  O  O366  1  0.90150962  0.23085854  0.22519880  1
  O  O367  1  0.88603173  0.23988288  0.74343601  1
  O  O368  1  0.87577855  0.76031393  0.25441487  1
  O  O369  1  0.87301803  0.75818751  0.72684023  1
  O  O370  1  0.38312745  0.50324298  0.49172672  1
  O  O371  1  0.38382074  0.49925860  0.99314640  1
  O  O372  1  0.40127059  1.00856945  0.47869651  1
  O  O373  1  0.41764143  0.95754016  0.87762453  1
  O  O374  1  0.88193602  0.49295925  0.48893557  1
  O  O375  1  0.83186933  0.48152880  0.97584062  1
  O  O376  1  0.87741236  0.99532198  0.49338089  1
  O  O377  1  0.87765295  0.98705366  0.99104764  1
  O  O378  1  0.14127371  0.00284461  0.02549176  1
  O  O379  1  0.11930819  0.00546202  0.51045615  1
  O  O380  1  0.10131625  0.51776493  0.01103137  1
  O  O381  1  0.11578370  0.50504204  0.49426079  1
  O  O382  1  0.63920709  -0.00704711  0.00706675  1
  O  O383  1  0.62499012  0.01273520  0.50302845  1
  O  O384  1  0.62348150  0.52710112  0.01347542  1
  O  O385  1  0.61129657  0.50437607  0.50212525  1
  O  O386  1  0.34667452  0.38527225  0.11549415  1
  O  O387  1  0.35845081  0.37058129  0.62989389  1
  O  O388  1  0.36122622  0.84915689  0.13790336  1
  O  O389  1  0.41687556  0.85402076  0.59765966  1
  O  O390  1  0.87725856  0.38069488  0.09294463  1
  O  O391  1  0.87421674  0.36650491  0.62143403  1
  O  O392  1  0.88875486  0.88478825  0.11610467  1
  O  O393  1  0.87067232  0.87261405  0.61705980  1
  O  O394  1  0.13992760  0.12705009  0.38136087  1
  O  O395  1  0.14775724  0.11261818  0.88263759  1
  O  O396  1  0.12608826  0.62865434  0.38685202  1
  O  O397  1  0.14099498  0.63254783  0.87283756  1
  O  O398  1  0.63172287  0.12627536  0.38218158  1
  O  O399  1  0.63738595  0.10913378  0.85858931  1
  O  O400  1  0.62503656  0.62665006  0.40204432  1
  O  O401  1  0.62081179  0.63233754  0.89207421  1
