# generated using pymatgen
data_V73Zn73O256
_symmetry_space_group_name_H-M   'P 1'
_cell_length_a   16.88080234
_cell_length_b   16.90493738
_cell_length_c   16.91171711
_cell_angle_alpha   89.90968112
_cell_angle_beta   90.07806136
_cell_angle_gamma   90.04885938
_symmetry_Int_Tables_number   1
_chemical_formula_structural   V73Zn73O256
_chemical_formula_sum   'V73 Zn73 O256'
_cell_volume   4826.06599421
_cell_formula_units_Z   1
loop_
 _symmetry_equiv_pos_site_id
 _symmetry_equiv_pos_as_xyz
  1  'x, y, z'
loop_
 _atom_site_type_symbol
 _atom_site_label
 _atom_site_symmetry_multiplicity
 _atom_site_fract_x
 _atom_site_fract_y
 _atom_site_fract_z
 _atom_site_occupancy
  V  V0  1  0.49540379  0.02843558  0.00867330  1
  V  V1  1  0.25261483  0.76481833  0.00251775  1
  V  V2  1  0.38005704  0.24121963  0.61777894  1
  V  V3  1  0.50897221  0.86321650  0.36210494  1
  V  V4  1  0.12131328  0.75375958  0.38395940  1
  V  V5  1  0.62137965  0.50154816  0.62829320  1
  V  V6  1  0.86591133  0.10826677  0.73713803  1
  V  V7  1  0.49430104  0.24628055  0.24225178  1
  V  V8  1  0.74860823  0.49932517  0.75607644  1
  V  V9  1  0.62722724  0.23801044  0.88437944  1
  V  V10  1  0.62551809  0.26608970  0.37377769  1
  V  V11  1  0.63012527  0.64007858  -0.00421601  1
  V  V12  1  0.01392283  0.11527590  0.11605951  1
  V  V13  1  0.12553568  0.62534333  0.00603317  1
  V  V14  1  0.51388562  0.75628778  0.75951048  1
  V  V15  1  0.13153359  0.38271537  0.74952904  1
  V  V16  1  0.25456641  0.49618941  0.25314975  1
  V  V17  1  0.25691725  0.62250665  0.88174717  1
  V  V18  1  0.00828529  0.75821012  0.24329316  1
  V  V19  1  0.37332562  0.76143293  0.12721805  1
  V  V20  1  0.00382196  0.37308347  0.88037361  1
  V  V21  1  0.86625591  0.75356205  0.11507969  1
  V  V22  1  0.38083962  0.49715888  0.38159022  1
  V  V23  1  0.38614027  0.62691962  0.24928353  1
  V  V24  1  0.00978435  0.74444585  0.73319226  1
  V  V25  1  0.37725748  0.63870011  0.75510271  1
  V  V26  1  0.49549590  0.49308660  0.50633661  1
  V  V27  1  0.13095933  0.88313085  0.74774766  1
  V  V28  1  0.61826209  0.12277430  0.48911780  1
  V  V29  1  0.49514260  0.63433992  0.62968689  1
  V  V30  1  -0.01095500  0.00971686  0.49709017  1
  V  V31  1  0.69020327  0.43023377  0.18395938  1
  V  V32  1  0.50279521  0.62258997  0.12651950  1
  V  V33  1  0.25508308  0.38566355  0.60933251  1
  V  V34  1  0.25081576  0.22839468  0.49282959  1
  V  V35  1  0.86245137  0.61662227  0.25256976  1
  V  V36  1  -0.03957976  -0.05320354  -0.05288049  1
  V  V37  1  0.49736669  0.37917754  0.87336205  1
  V  V38  1  0.62892768  0.03134685  0.12458581  1
  V  V39  1  0.63401561  0.63457559  0.50113762  1
  V  V40  1  0.62550707  0.37263295  0.74976407  1
  V  V41  1  0.50826292  0.50036787  0.00006501  1
  V  V42  1  0.85726431  -0.00590730  0.37220647  1
  V  V43  1  0.86503657  0.36477089  0.00526333  1
  V  V44  1  0.37453811  0.38404346  -0.00251372  1
  V  V45  1  0.74311798  0.88002769  0.11497634  1
  V  V46  1  0.27224407  0.75527188  0.50077716  1
  V  V47  1  -0.01115700  0.24878768  0.74244011  1
  V  V48  1  0.00136453  0.49901583  0.00587032  1
  V  V49  1  0.35754877  0.11919550  0.24570202  1
  V  V50  1  0.25683310  0.37410152  0.12582547  1
  V  V51  1  0.75222508  0.11661741  0.88250850  1
  V  V52  1  0.12639841  0.49325009  0.13585787  1
  V  V53  1  0.49776656  0.87613878  0.89961340  1
  V  V54  1  0.01568211  0.25524243  0.25437188  1
  V  V55  1  0.86257788  0.12119500  0.25405981  1
  V  V56  1  0.12079610  0.01083235  0.61314936  1
  V  V57  1  0.11470028  0.74966913  0.87664388  1
  V  V58  1  0.75890716  0.24835143  0.50354959  1
  V  V59  1  0.87445397  0.50198158  0.88148235  1
  V  V60  1  0.26081813  0.49984179  0.75636886  1
  V  V61  1  0.12942674  0.23891332  0.87978037  1
  V  V62  1  0.49436637  0.24297975  0.74783328  1
  V  V63  1  0.25311105  0.24263203  0.00104141  1
  V  V64  1  0.86891389  0.24419771  0.12248769  1
  V  V65  1  0.25587975  0.87938057  0.61458089  1
  V  V66  1  0.00095801  0.62417954  0.13413113  1
  V  V67  1  0.49349281  -0.00766143  0.49597289  1
  V  V68  1  0.75494840  0.64413452  0.88175520  1
  V  V69  1  0.88580452  0.62184333  0.74945933  1
  V  V70  1  0.86769660  0.75021412  0.62137446  1
  V  V71  1  0.25067984  0.62535573  0.37993802  1
  V  V72  1  0.62404950  0.00853046  0.63516698  1
  Zn  Zn73  1  -0.01368079  0.38167991  0.37010292  1
  Zn  Zn74  1  0.75088570  0.88065744  0.62640604  1
  Zn  Zn75  1  0.49369158  0.37169795  0.37644659  1
  Zn  Zn76  1  0.63850784  0.89457542  0.25583137  1
  Zn  Zn77  1  0.76036769  0.60448363  0.39930819  1
  Zn  Zn78  1  0.63695415  0.88271886  0.75867538  1
  Zn  Zn79  1  0.77604323  0.36139917  0.62353702  1
  Zn  Zn80  1  -0.00722597  0.87799130  0.37681319  1
  Zn  Zn81  1  0.37874061  -0.00040324  0.36699256  1
  Zn  Zn82  1  0.18886393  0.18442475  0.18555278  1
  Zn  Zn83  1  0.18240136  0.20051499  0.68086840  1
  Zn  Zn84  1  0.19297083  0.68742003  0.19126025  1
  Zn  Zn85  1  0.20590298  0.69890779  0.69293961  1
  Zn  Zn86  1  0.68689554  0.20764754  0.19162668  1
  Zn  Zn87  1  0.68579330  0.17997114  0.68396396  1
  Zn  Zn88  1  0.68652766  0.68309483  0.18371953  1
  Zn  Zn89  1  0.69165482  0.68419730  0.69214195  1
  Zn  Zn90  1  0.32178392  0.31132744  0.31087189  1
  Zn  Zn91  1  0.31525455  0.30898596  0.81472480  1
  Zn  Zn92  1  0.33006242  0.80814835  0.32247806  1
  Zn  Zn93  1  0.33082434  0.95742461  0.83005525  1
  Zn  Zn94  1  0.81385001  0.30662150  0.30928051  1
  Zn  Zn95  1  0.80830017  0.31086893  0.81945489  1
  Zn  Zn96  1  0.81599668  0.81565174  0.29283686  1
  Zn  Zn97  1  0.80987046  0.93498858  0.81080797  1
  Zn  Zn98  1  0.16735797  0.34045777  0.40703848  1
  Zn  Zn99  1  0.18664722  0.43851327  0.93983851  1
  Zn  Zn100  1  0.16440219  0.95578278  0.41590375  1
  Zn  Zn101  1  0.16139029  0.94635743  0.93594275  1
  Zn  Zn102  1  0.79676706  0.42567689  0.42449517  1
  Zn  Zn103  1  0.68365487  0.43488071  0.94267174  1
  Zn  Zn104  1  0.68492213  0.92875807  0.44744995  1
  Zn  Zn105  1  0.67384183  0.94185662  0.94270403  1
  Zn  Zn106  1  0.30500351  0.04175376  -0.01622872  1
  Zn  Zn107  1  0.31719504  0.05921843  0.56685669  1
  Zn  Zn108  1  0.31667892  0.56125448  0.06420416  1
  Zn  Zn109  1  0.31207983  0.56719215  0.56649232  1
  Zn  Zn110  1  0.81813031  0.05849431  0.05985112  1
  Zn  Zn111  1  0.80383281  0.06631083  0.55786624  1
  Zn  Zn112  1  0.81019057  0.56192421  0.06701897  1
  Zn  Zn113  1  0.82391439  0.54183489  0.57612250  1
  Zn  Zn114  1  0.44857953  0.43730437  0.18989749  1
  Zn  Zn115  1  0.43239952  0.43554965  0.68693910  1
  Zn  Zn116  1  0.44737237  0.94639504  0.18618028  1
  Zn  Zn117  1  0.44020128  0.93548048  0.67955897  1
  Zn  Zn118  1  0.92783213  0.43470839  0.19102058  1
  Zn  Zn119  1  0.93248521  0.42274522  0.69362006  1
  Zn  Zn120  1  0.93104673  0.93847360  0.18253445  1
  Zn  Zn121  1  0.94672454  0.93018509  0.68207922  1
  Zn  Zn122  1  0.05054389  0.06998878  0.30981428  1
  Zn  Zn123  1  0.05863795  0.06632711  0.80323036  1
  Zn  Zn124  1  0.09676436  0.52487369  0.35587531  1
  Zn  Zn125  1  0.06722825  0.56132920  0.81778109  1
  Zn  Zn126  1  0.56212819  0.06469179  0.30991019  1
  Zn  Zn127  1  0.50634662  0.03969906  0.79869094  1
  Zn  Zn128  1  0.61891626  0.50162721  0.34994596  1
  Zn  Zn129  1  0.56419348  0.56631190  0.81857930  1
  Zn  Zn130  1  0.43736983  0.17945750  0.42869898  1
  Zn  Zn131  1  0.42593155  0.19177807  1.07040247  1
  Zn  Zn132  1  0.45145111  0.68368737  0.43577118  1
  Zn  Zn133  1  0.43743412  0.69461490  0.94014687  1
  Zn  Zn134  1  0.94008934  0.18597374  0.43132482  1
  Zn  Zn135  1  0.93650237  0.17241414  0.93262708  1
  Zn  Zn136  1  0.92859678  0.69709850  0.42733889  1
  Zn  Zn137  1  0.89097734  0.78786503  0.92063309  1
  Zn  Zn138  1  0.06307940  0.30485702  0.06737322  1
  Zn  Zn139  1  0.07744161  0.29880294  0.56885602  1
  Zn  Zn140  1  0.06311044  0.83310743  0.05222309  1
  Zn  Zn141  1  0.06022202  0.82331847  0.55643497  1
  Zn  Zn142  1  0.56557555  0.31235861  0.06287674  1
  Zn  Zn143  1  0.56835595  0.31178439  0.56366347  1
  Zn  Zn144  1  0.56361912  0.80689677  0.07295044  1
  Zn  Zn145  1  0.56687942  0.81997926  0.56401095  1
  O  O146  1  0.11430241  0.12699889  0.12318326  1
  O  O147  1  0.13081145  0.10879206  0.63609425  1
  O  O148  1  0.12282323  0.61556547  0.12380350  1
  O  O149  1  0.14203294  0.62238014  0.60567714  1
  O  O150  1  0.63649250  0.13001965  0.12102617  1
  O  O151  1  0.61713310  0.11567115  0.61504273  1
  O  O152  1  0.61348778  0.63411951  0.11176882  1
  O  O153  1  0.61336235  0.61709521  0.63142442  1
  O  O154  1  0.37365361  0.39472604  0.37675021  1
  O  O155  1  0.38748334  0.36833080  0.88436470  1
  O  O156  1  0.39948722  0.88355531  0.36802166  1
  O  O157  1  0.39965078  0.87576833  0.87290510  1
  O  O158  1  0.87844111  0.36250466  0.38276223  1
  O  O159  1  0.88484332  0.37948096  0.88545586  1
  O  O160  1  0.87198862  0.88866267  0.36452905  1
  O  O161  1  0.89190112  0.89268184  0.87636888  1
  O  O162  1  0.25660867  -0.04936069  0.33257972  1
  O  O163  1  0.25032147  -0.00040041  0.89581220  1
  O  O164  1  0.26138065  0.51123818  0.36761919  1
  O  O165  1  0.24353531  0.51339078  0.87057303  1
  O  O166  1  0.75916478  -0.00092885  0.38095178  1
  O  O167  1  0.74358294  0.01162436  0.87434701  1
  O  O168  1  0.72963420  0.49924465  0.37888453  1
  O  O169  1  0.75733218  0.49853589  0.87058741  1
  O  O170  1  0.24605535  0.49518688  0.13404777  1
  O  O171  1  0.25567593  0.49087678  0.63643199  1
  O  O172  1  0.16683769  0.93556893  0.13071604  1
  O  O173  1  0.23594439  0.98809354  0.61156062  1
  O  O174  1  0.75293697  0.49053171  0.12936487  1
  O  O175  1  0.73323230  0.51147909  0.64833398  1
  O  O176  1  0.73669178  0.99319673  0.11388052  1
  O  O177  1  0.72966396  1.00582263  0.62436535  1
  O  O178  1  -0.00712010  0.35866467  0.24611292  1
  O  O179  1  0.00979133  0.37268782  0.75959378  1
  O  O180  1  -0.00744229  0.85934661  0.25091338  1
  O  O181  1  0.01920855  0.85485750  0.74008204  1
  O  O182  1  0.48884953  0.35692145  0.25658266  1
  O  O183  1  0.50719678  0.37602707  0.75639493  1
  O  O184  1  0.51367718  0.87862213  0.25673669  1
  O  O185  1  0.50380504  0.85677976  0.74236022  1
  O  O186  1  0.49874672  0.14219667  0.25167624  1
  O  O187  1  0.50334809  0.14613884  0.75425966  1
  O  O188  1  0.49031269  0.62340171  0.23819113  1
  O  O189  1  0.49631747  0.63230185  0.75175553  1
  O  O190  1  0.99210693  0.13792306  0.24132948  1
  O  O191  1  0.98077267  0.14295245  0.75632726  1
  O  O192  1  0.99445799  0.63375522  0.23872484  1
  O  O193  1  0.99766904  0.62966285  0.75712204  1
  O  O194  1  0.35922026  0.26517408  0.00382842  1
  O  O195  1  0.36852371  0.24512965  0.51002161  1
  O  O196  1  0.36091260  0.74778654  0.01102537  1
  O  O197  1  0.37038701  0.75561086  0.49311451  1
  O  O198  1  0.88444367  0.25874019  0.00616317  1
  O  O199  1  0.85692937  0.23137059  0.49571942  1
  O  O200  1  0.87541511  0.72921612  0.01914054  1
  O  O201  1  0.89424197  0.72575696  0.52636298  1
  O  O202  1  0.14636802  0.25470168  0.49514926  1
  O  O203  1  0.13405717  0.25593414  0.98696305  1
  O  O204  1  0.11513542  0.74496597  0.48460688  1
  O  O205  1  0.13219872  0.74272922  0.99954106  1
  O  O206  1  0.62031506  0.24078695  0.49110960  1
  O  O207  1  0.61562903  0.24865878  0.98192891  1
  O  O208  1  0.62222665  0.73369564  0.51375165  1
  O  O209  1  0.62410798  0.73826773  0.99707065  1
  O  O210  1  0.49997288  0.25383806  0.13597701  1
  O  O211  1  0.48821507  0.25912437  0.63327316  1
  O  O212  1  0.48168067  0.73579007  0.11619501  1
  O  O213  1  0.50443756  0.73889166  0.63764318  1
  O  O214  1  0.99491534  0.24065776  0.13379591  1
  O  O215  1  1.00739245  0.25581659  0.64401204  1
  O  O216  1  0.99883936  0.74523364  0.13331553  1
  O  O217  1  1.01332226  0.74121250  0.63251364  1
  O  O218  1  0.00301490  0.24853048  0.35904576  1
  O  O219  1  0.01066093  0.25791588  0.86957040  1
  O  O220  1  0.00875733  0.74439767  0.36245570  1
  O  O221  1  0.01382174  0.74687676  0.86460219  1
  O  O222  1  0.50782230  0.25301226  0.37264432  1
  O  O223  1  0.51351115  0.26309382  0.85772566  1
  O  O224  1  0.50284612  0.76254374  0.37360493  1
  O  O225  1  0.50139877  0.75862888  0.86709883  1
  O  O226  1  0.25266294  0.12998241  0.49555882  1
  O  O227  1  0.25747516  0.14391724  1.00588411  1
  O  O228  1  0.26040351  0.64119222  0.49186462  1
  O  O229  1  0.24008049  0.62156681  0.99933298  1
  O  O230  1  0.72934128  0.13677741  0.50352476  1
  O  O231  1  0.76318280  0.12512572  0.98149571  1
  O  O232  1  0.73651458  0.61615467  0.51664530  1
  O  O233  1  0.73716652  0.61941145  0.99655644  1
  O  O234  1  0.25791100  0.37692911  0.00566849  1
  O  O235  1  0.24420393  0.38800257  0.51204923  1
  O  O236  1  0.24123237  0.86138577  -0.00056150  1
  O  O237  1  0.24319899  0.86200501  0.50349132  1
  O  O238  1  0.76708521  0.37199146  -0.00813576  1
  O  O239  1  0.74983843  0.35500844  0.50438487  1
  O  O240  1  0.74251764  0.87535613  0.01281985  1
  O  O241  1  0.75205731  0.87398417  0.51471190  1
  O  O242  1  0.14136507  0.50643853  0.24442668  1
  O  O243  1  0.13633592  0.49082531  0.75581678  1
  O  O244  1  0.17246360  0.98279677  0.18780075  1
  O  O245  1  0.11753891  0.98703281  0.74006160  1
  O  O246  1  0.61967043  0.48414068  0.23736528  1
  O  O247  1  0.62982158  0.49301019  0.75263820  1
  O  O248  1  0.62500789  1.01100020  0.22898404  1
  O  O249  1  0.60264218  1.00710469  0.73625871  1
  O  O250  1  0.37959012  0.01406522  0.24606811  1
  O  O251  1  0.40219025  0.00524624  0.75859136  1
  O  O252  1  0.37345271  0.50851645  0.25849920  1
  O  O253  1  0.36512381  0.50684472  0.75483328  1
  O  O254  1  0.87507296  0.01151280  0.25805845  1
  O  O255  1  0.88095001  0.00594204  0.74276010  1
  O  O256  1  0.88495139  0.51815582  0.25350480  1
  O  O257  1  0.87070225  0.50151409  0.76479577  1
  O  O258  1  0.09290549  0.41561569  0.38691048  1
  O  O259  1  0.11713201  0.37236869  0.87053219  1
  O  O260  1  0.12033572  0.85529337  0.37288946  1
  O  O261  1  0.13581541  0.86227634  0.85262562  1
  O  O262  1  0.61713178  0.36587834  0.38149320  1
  O  O263  1  0.62042688  0.36779648  0.86643496  1
  O  O264  1  0.61715115  0.88316018  0.37020210  1
  O  O265  1  0.60340571  0.88522595  0.86957783  1
  O  O266  1  0.36712445  0.13192747  0.14358686  1
  O  O267  1  0.36920007  0.14253848  0.62994569  1
  O  O268  1  0.38169986  0.62782456  0.13211539  1
  O  O269  1  0.38564087  0.61974283  0.64034669  1
  O  O270  1  0.88196316  0.13207409  0.13056243  1
  O  O271  1  0.86890705  0.12418016  0.63872342  1
  O  O272  1  0.88252586  0.63047432  0.13316610  1
  O  O273  1  0.87418896  0.62253075  0.64640126  1
  O  O274  1  0.23618443  0.26555491  0.11040186  1
  O  O275  1  0.25882745  0.25729495  0.61104885  1
  O  O276  1  0.25882483  0.74473027  0.11394029  1
  O  O277  1  0.24769461  0.75848106  0.60709026  1
  O  O278  1  0.77011104  0.24534488  0.12044313  1
  O  O279  1  0.74198812  0.25165127  0.61246042  1
  O  O280  1  0.76104336  0.75489214  0.12712850  1
  O  O281  1  0.76657976  0.74307454  0.62971928  1
  O  O282  1  0.25485218  0.26763443  0.39272113  1
  O  O283  1  0.23964859  0.25679020  0.88686633  1
  O  O284  1  0.24360676  0.74729043  0.38431503  1
  O  O285  1  0.23851076  0.73582914  0.89426869  1
  O  O286  1  0.73212506  0.25290063  0.38580635  1
  O  O287  1  0.73365856  0.24449620  0.87043474  1
  O  O288  1  0.71925406  0.74631512  0.33561209  1
  O  O289  1  0.78287890  0.73861476  0.88131840  1
  O  O290  1  -0.00280365  0.12874557  0.01582994  1
  O  O291  1  0.00203981  0.11075612  0.49334795  1
  O  O292  1  0.01393448  0.61751423  0.01639923  1
  O  O293  1  -0.04694349  0.55231766  0.45960159  1
  O  O294  1  0.48908954  0.12775207  -0.00233165  1
  O  O295  1  0.50939164  0.11356588  0.49608789  1
  O  O296  1  0.51022935  0.62004735  0.00026861  1
  O  O297  1  0.50636672  0.61920240  0.51518482  1
  O  O298  1  0.50141370  0.39075210  0.50836481  1
  O  O299  1  0.49433986  0.38126264  0.99457008  1
  O  O300  1  0.50896207  0.88617148  0.48700175  1
  O  O301  1  0.49986971  0.86620002  0.99940610  1
  O  O302  1  1.01003837  0.39024921  0.52139167  1
  O  O303  1  0.99838965  0.37846108  0.99364765  1
  O  O304  1  1.00071309  0.89510537  0.49261427  1
  O  O305  1  0.97152774  0.84374514  0.98777598  1
  O  O306  1  0.49793258  0.49807709  0.39006301  1
  O  O307  1  0.50578389  0.48770156  0.88259353  1
  O  O308  1  0.50470774  0.99542338  0.38446475  1
  O  O309  1  0.50000873  0.99291816  0.90410726  1
  O  O310  1  0.97897369  0.52416950  0.38837514  1
  O  O311  1  0.99450915  0.49200140  0.88317611  1
  O  O312  1  0.98639764  0.99992603  0.38232641  1
  O  O313  1  0.99469020  1.01295241  0.87677265  1
  O  O314  1  0.00077967  0.01622021  0.13945798  1
  O  O315  1  0.00925384  -0.00141261  0.61195598  1
  O  O316  1  0.00766862  0.50422109  0.12646095  1
  O  O317  1  0.08161870  0.58098404  0.61748209  1
  O  O318  1  0.51753364  0.00916364  0.11837992  1
  O  O319  1  0.50959562  -0.00780617  0.60429230  1
  O  O320  1  0.49351343  0.51218466  0.11311486  1
  O  O321  1  0.50257564  0.50839889  0.62696005  1
  O  O322  1  0.26118278  0.38688131  0.24190702  1
  O  O323  1  0.24732417  0.38454707  0.75678183  1
  O  O324  1  0.25549753  0.89528263  0.27955093  1
  O  O325  1  0.23436611  0.86820394  0.72738713  1
  O  O326  1  0.74553680  0.36783963  0.24362671  1
  O  O327  1  0.74308973  0.38321590  0.75006487  1
  O  O328  1  0.75191470  0.88195421  0.22781818  1
  O  O329  1  0.74831335  0.87423220  0.74094305  1
  O  O330  1  0.25706743  0.13032511  0.25456573  1
  O  O331  1  0.24982056  0.11627814  0.74972765  1
  O  O332  1  0.26258939  0.61649717  0.25694005  1
  O  O333  1  0.25805546  0.62148242  0.75974110  1
  O  O334  1  0.76459342  0.13331830  0.24425270  1
  O  O335  1  0.76151410  0.12603658  0.75390747  1
  O  O336  1  0.76307351  0.61832424  0.23738410  1
  O  O337  1  0.76000925  0.61769421  0.76578919  1
  O  O338  1  0.37398628  0.11620834  0.36059315  1
  O  O339  1  0.30158264  0.13441235  0.79985105  1
  O  O340  1  0.37306309  0.62225568  0.36738409  1
  O  O341  1  0.36454608  0.63056226  0.87333750  1
  O  O342  1  0.87487857  0.11758860  0.35905446  1
  O  O343  1  0.85925233  0.13577355  0.85813539  1
  O  O344  1  0.85643894  0.64990745  0.35591717  1
  O  O345  1  0.87080769  0.60836624  0.87344271  1
  O  O346  1  0.13512749  0.38855608  0.11863085  1
  O  O347  1  0.14696436  0.36495074  0.64052523  1
  O  O348  1  0.12392413  0.86590995  0.14649913  1
  O  O349  1  0.12935812  0.88514624  0.62828322  1
  O  O350  1  0.64118924  0.37076983  0.11676050  1
  O  O351  1  0.62241461  0.38726305  0.63794826  1
  O  O352  1  0.63786697  0.86519162  0.13303441  1
  O  O353  1  0.62536990  0.89164161  0.63073974  1
  O  O354  1  0.11583457  0.25345591  0.24629891  1
  O  O355  1  0.12174959  0.26082193  0.76275403  1
  O  O356  1  0.11330024  0.74226660  0.25624287  1
  O  O357  1  0.12178953  0.74373498  0.75624492  1
  O  O358  1  0.61329040  0.24894699  0.26653770  1
  O  O359  1  0.61548629  0.26085906  0.74466377  1
  O  O360  1  0.65987635  0.74567669  0.28500875  1
  O  O361  1  0.61561772  0.74640482  0.75291151  1
  O  O362  1  0.38628984  0.23781131  0.25664470  1
  O  O363  1  0.38726052  0.25727259  0.74133950  1
  O  O364  1  0.36337339  0.73855734  0.23665063  1
  O  O365  1  0.38783197  0.73756700  0.75122404  1
  O  O366  1  0.88082324  0.23978356  0.23624371  1
  O  O367  1  0.88853492  0.26982068  0.74749541  1
  O  O368  1  0.88772225  0.73984431  0.23673250  1
  O  O369  1  0.89901089  0.73840575  0.73821083  1
  O  O370  1  0.38513614  0.51391269  0.49276603  1
  O  O371  1  0.38530765  0.49181141  0.99853474  1
  O  O372  1  0.38941568  1.00415381  0.49648060  1
  O  O373  1  0.39700336  0.99990060  1.02685061  1
  O  O374  1  0.87195363  0.53039149  0.46934124  1
  O  O375  1  0.88127937  0.48777370  0.99809066  1
  O  O376  1  0.87870364  1.01010301  0.48694764  1
  O  O377  1  0.89572467  0.99372492  1.00826492  1
  O  O378  1  0.06836020  -0.05736381  -0.00504970  1
  O  O379  1  0.11545333  0.00330419  0.50921692  1
  O  O380  1  0.12141072  0.50685405  0.01145006  1
  O  O381  1  0.01226398  0.45111842  0.56579434  1
  O  O382  1  0.61211357  0.00764185  0.01524902  1
  O  O383  1  0.61901945  0.01250438  0.50316046  1
  O  O384  1  0.61323091  0.50609189  -0.00101163  1
  O  O385  1  0.61221899  0.51067147  0.52116413  1
  O  O386  1  0.36468141  0.38262710  0.11516154  1
  O  O387  1  0.35967908  0.36557434  0.62828564  1
  O  O388  1  0.38139630  0.85900453  0.13564229  1
  O  O389  1  0.35457330  0.88307698  0.62338583  1
  O  O390  1  0.88186828  0.36202454  0.11164501  1
  O  O391  1  0.86278653  0.43167378  0.61105320  1
  O  O392  1  0.86558354  0.86134460  0.12385514  1
  O  O393  1  0.88092983  0.85240158  0.62883105  1
  O  O394  1  0.14869401  0.04620798  0.34954125  1
  O  O395  1  0.12414444  0.14107898  0.86687493  1
  O  O396  1  0.14345425  0.63017624  0.37298897  1
  O  O397  1  0.13043715  0.62979269  0.88882835  1
  O  O398  1  0.62263468  0.13214442  0.38604682  1
  O  O399  1  0.63671238  0.13575570  0.86903762  1
  O  O400  1  0.62438249  0.61813897  0.40106645  1
  O  O401  1  0.63784596  0.62563966  0.88671339  1
