# generated using pymatgen
data_V73Zn73O256
_symmetry_space_group_name_H-M   'P 1'
_cell_length_a   16.93072952
_cell_length_b   16.90482155
_cell_length_c   16.90897393
_cell_angle_alpha   89.99249777
_cell_angle_beta   89.91316046
_cell_angle_gamma   90.06764125
_symmetry_Int_Tables_number   1
_chemical_formula_structural   V73Zn73O256
_chemical_formula_sum   'V73 Zn73 O256'
_cell_volume   4839.52470853
_cell_formula_units_Z   1
loop_
 _symmetry_equiv_pos_site_id
 _symmetry_equiv_pos_as_xyz
  1  'x, y, z'
loop_
 _atom_site_type_symbol
 _atom_site_label
 _atom_site_symmetry_multiplicity
 _atom_site_fract_x
 _atom_site_fract_y
 _atom_site_fract_z
 _atom_site_occupancy
  V  V0  1  0.24798250  0.49281114  0.24488271  1
  V  V1  1  0.75024945  0.02617613  0.74791212  1
  V  V2  1  0.49751765  0.14165933  0.12831345  1
  V  V3  1  -0.00237511  -0.00175162  0.49754972  1
  V  V4  1  0.51200129  0.74206748  0.76284067  1
  V  V5  1  0.37552219  0.24381651  0.62785366  1
  V  V6  1  0.62576751  0.86459407  0.23058920  1
  V  V7  1  -0.00349983  0.62427148  0.12260207  1
  V  V8  1  0.36313735  0.76408710  0.12524975  1
  V  V9  1  0.51608463  0.63058549  0.11699623  1
  V  V10  1  -0.01428144  0.49825880  -0.01401080  1
  V  V11  1  0.13274734  0.24848837  0.37074515  1
  V  V12  1  0.62520396  0.37329452  0.75174958  1
  V  V13  1  0.12161888  0.24570819  0.86908023  1
  V  V14  1  0.13201794  0.75043650  0.87213225  1
  V  V15  1  0.85567188  0.24926213  0.12436785  1
  V  V16  1  0.86533373  0.36972822  -0.00215419  1
  V  V17  1  0.62024916  0.23834507  0.36802434  1
  V  V18  1  0.87244148  0.49504737  0.37788965  1
  V  V19  1  0.35869909  0.26222358  0.11487661  1
  V  V20  1  0.13817361  0.87113274  0.74935864  1
  V  V21  1  -0.00417386  0.37327523  0.37896039  1
  V  V22  1  0.63629819  0.24047533  0.87411191  1
  V  V23  1  0.37334582  0.88977139  0.49966300  1
  V  V24  1  0.75466342  0.38378622  0.60387557  1
  V  V25  1  0.25609713  0.25658120  0.49645169  1
  V  V26  1  0.35058401  0.12049642  0.25914888  1
  V  V27  1  0.13114757  -0.00785167  0.62405004  1
  V  V28  1  0.75304258  0.50732415  0.76144950  1
  V  V29  1  0.87780602  0.86832671  0.51276962  1
  V  V30  1  0.11251870  0.50239262  0.63135816  1
  V  V31  1  0.73325275  0.87828889  0.63091926  1
  V  V32  1  0.88983815  0.00465165  0.86502252  1
  V  V33  1  -0.00730488  0.87688598  0.37605026  1
  V  V34  1  0.13806733  0.12849577  0.00484875  1
  V  V35  1  0.00103613  -0.00681564  0.01333717  1
  V  V36  1  0.87783579  0.11921750  0.26047296  1
  V  V37  1  0.48335552  0.24532818  0.75716691  1
  V  V38  1  0.87129097  0.62873442  0.24948674  1
  V  V39  1  0.12417611  0.49930366  0.12401768  1
  V  V40  1  0.25976374  0.74645348  0.50526202  1
  V  V41  1  0.87004794  0.63319072  0.72235531  1
  V  V42  1  0.74692054  0.62285422  0.37584754  1
  V  V43  1  -0.00187531  0.75297732  0.24733717  1
  V  V44  1  0.12513530  0.74723690  0.37491300  1
  V  V45  1  0.24592790  0.02480866  0.75535099  1
  V  V46  1  0.39149247  0.00270536  0.86385850  1
  V  V47  1  -0.01380904  0.75965030  0.74426204  1
  V  V48  1  0.12446567  0.37417325  0.24054372  1
  V  V49  1  0.74159068  0.49048703  0.24092083  1
  V  V50  1  0.00019118  0.24690866  0.23799902  1
  V  V51  1  0.11604112  0.62110307  0.50220494  1
  V  V52  1  0.61403616  0.50558873  0.62697642  1
  V  V53  1  0.50633648  -0.01392487  0.01847567  1
  V  V54  1  0.60874991  0.62223960  0.50673338  1
  V  V55  1  0.60129496  0.37096147  0.24469739  1
  V  V56  1  0.50014114  0.88999932  0.37507647  1
  V  V57  1  0.00520933  0.12906770  0.63548583  1
  V  V58  1  0.24749429  0.61720443  0.37320414  1
  V  V59  1  0.12464700  0.62951074  -0.00879611  1
  V  V60  1  0.61238531  0.75131224  0.37558516  1
  V  V61  1  0.13935956  0.88043756  0.25044711  1
  V  V62  1  0.86991580  0.76226374  0.10608458  1
  V  V63  1  0.37672328  0.62561976  0.24007528  1
  V  V64  1  0.14860127  0.00278171  0.12801111  1
  V  V65  1  0.25053793  0.38074124  0.63557151  1
  V  V66  1  0.63420130  0.12729090  0.00397192  1
  V  V67  1  0.75209702  0.74996094  0.50573501  1
  V  V68  1  0.14426658  0.10949347  0.48044933  1
  V  V69  1  0.10066081  0.37367274  0.75329947  1
  V  V70  1  0.49017373  0.38606841  0.88892964  1
  V  V71  1  0.38477673  0.48869826  0.38157839  1
  V  V72  1  0.74525382  -0.00045207  0.24452054  1
  Zn  Zn73  1  0.53034119  -0.00562636  0.54404266  1
  Zn  Zn74  1  0.76803462  0.22765981  0.47295164  1
  Zn  Zn75  1  0.32190444  0.56901122  0.83746720  1
  Zn  Zn76  1  -0.00976697  0.49749540  0.50249065  1
  Zn  Zn77  1  0.62949323  0.11872062  0.50959907  1
  Zn  Zn78  1  0.88260946  0.25524475  0.61592719  1
  Zn  Zn79  1  0.34110837  0.87399015  -0.00271984  1
  Zn  Zn80  1  0.37628744  0.75024943  0.65067870  1
  Zn  Zn81  1  0.45025689  0.32735874  0.44181420  1
  Zn  Zn82  1  0.19159061  0.19050694  0.18243566  1
  Zn  Zn83  1  0.17586747  0.19422222  0.67726266  1
  Zn  Zn84  1  0.18727063  0.68607622  0.18471025  1
  Zn  Zn85  1  0.18659344  0.68377980  0.68659691  1
  Zn  Zn86  1  0.68446331  0.18576578  0.19451129  1
  Zn  Zn87  1  0.70608981  0.18039847  0.65070907  1
  Zn  Zn88  1  0.69331471  0.69670292  0.18455403  1
  Zn  Zn89  1  0.68044060  0.69355651  0.69330886  1
  Zn  Zn90  1  0.32134692  0.30691709  0.30026553  1
  Zn  Zn91  1  0.28397776  0.36204844  0.84272853  1
  Zn  Zn92  1  0.31724513  0.80882814  0.32023201  1
  Zn  Zn93  1  0.32514577  0.81181018  0.81846216  1
  Zn  Zn94  1  0.80892025  0.31102715  0.31119091  1
  Zn  Zn95  1  0.82050193  0.30668808  0.80238376  1
  Zn  Zn96  1  0.80490617  0.81989724  0.31617191  1
  Zn  Zn97  1  0.80450249  0.82709775  0.82163672  1
  Zn  Zn98  1  0.18417958  0.43376547  0.43836589  1
  Zn  Zn99  1  0.17094441  0.46544455  0.91914939  1
  Zn  Zn100  1  0.18652504  0.93110681  0.43569204  1
  Zn  Zn101  1  0.19012154  0.94248538  0.93028578  1
  Zn  Zn102  1  0.62116387  0.40697458  0.45762618  1
  Zn  Zn103  1  0.70697440  0.41088327  0.92259488  1
  Zn  Zn104  1  0.69895583  0.94419840  0.43145055  1
  Zn  Zn105  1  0.68819354  0.96380739  0.92155184  1
  Zn  Zn106  1  0.32579079  0.06510799  0.05401400  1
  Zn  Zn107  1  0.31293904  0.06692564  0.56622536  1
  Zn  Zn108  1  0.33268162  0.58982414  0.02856631  1
  Zn  Zn109  1  0.30623407  0.55169792  0.56248063  1
  Zn  Zn110  1  0.82048727  0.05698795  0.07213156  1
  Zn  Zn111  1  0.81999466  0.05818441  0.56520062  1
  Zn  Zn112  1  0.80631000  0.56522362  0.05946205  1
  Zn  Zn113  1  0.80216528  0.55765338  0.56011904  1
  Zn  Zn114  1  0.44052469  0.44835609  0.16610967  1
  Zn  Zn115  1  0.43910679  0.43370806  0.69372629  1
  Zn  Zn116  1  0.43713835  0.94163184  0.19949163  1
  Zn  Zn117  1  0.42003660  0.91835726  0.69347480  1
  Zn  Zn118  1  0.93305512  0.43415993  0.18659202  1
  Zn  Zn119  1  0.92507059  0.43944349  0.68569432  1
  Zn  Zn120  1  0.94135346  0.93831418  0.18512722  1
  Zn  Zn121  1  0.94104112  0.94066196  0.68683812  1
  Zn  Zn122  1  0.06112099  0.06136127  0.30754384  1
  Zn  Zn123  1  0.06596113  0.06147730  0.82190876  1
  Zn  Zn124  1  0.05824915  0.56034728  0.31252887  1
  Zn  Zn125  1  0.04674354  0.57033971  0.80898789  1
  Zn  Zn126  1  0.56778117  0.05491923  0.29966369  1
  Zn  Zn127  1  0.54156289  0.04094218  0.73731448  1
  Zn  Zn128  1  0.56168477  0.55906900  0.30832204  1
  Zn  Zn129  1  0.56482349  0.56454721  0.82357170  1
  Zn  Zn130  1  0.45906374  0.14425105  0.41908293  1
  Zn  Zn131  1  0.43943521  0.18594151  0.94034100  1
  Zn  Zn132  1  0.43388228  0.67665511  0.42872888  1
  Zn  Zn133  1  0.44663684  0.69457100  0.93634724  1
  Zn  Zn134  1  0.94574529  0.18737301  0.43905032  1
  Zn  Zn135  1  0.94839222  0.18164823  0.94788300  1
  Zn  Zn136  1  0.93420096  0.68841663  0.43573592  1
  Zn  Zn137  1  0.95702706  0.82482305  0.93025394  1
  Zn  Zn138  1  0.05454364  0.31061027  0.04740918  1
  Zn  Zn139  1  0.07209503  0.31110434  0.55584423  1
  Zn  Zn140  1  0.12602969  0.83630486  0.04150093  1
  Zn  Zn141  1  0.06363476  0.80612023  0.56647816  1
  Zn  Zn142  1  0.57022825  0.31485312  0.06109249  1
  Zn  Zn143  1  0.56825764  0.27247656  0.56504723  1
  Zn  Zn144  1  0.53312038  0.78892568  0.05823149  1
  Zn  Zn145  1  0.55085219  0.80753960  0.57171892  1
  O  O146  1  0.13103841  0.10834812  0.12295421  1
  O  O147  1  0.12322762  0.11135507  0.60418564  1
  O  O148  1  0.11315538  0.62232818  0.11733364  1
  O  O149  1  0.13121252  0.60960876  0.61811241  1
  O  O150  1  0.61547181  0.13595107  0.11121516  1
  O  O151  1  0.60179303  0.17484769  0.61377092  1
  O  O152  1  0.60948414  0.62882136  0.15277372  1
  O  O153  1  0.62871255  0.61866345  0.61458366  1
  O  O154  1  0.37568366  0.38275889  0.37103380  1
  O  O155  1  0.39183070  0.36751506  0.87381604  1
  O  O156  1  0.39371470  0.86699984  0.38288224  1
  O  O157  1  0.34923257  0.90248586  0.88473895  1
  O  O158  1  0.88391693  0.38465602  0.36388007  1
  O  O159  1  0.86800686  0.36113334  0.89785586  1
  O  O160  1  0.88894499  0.86532168  0.38408022  1
  O  O161  1  0.87566624  0.89148431  0.88200196  1
  O  O162  1  0.20343255  0.04422903  0.42620640  1
  O  O163  1  0.23062896  0.01425632  0.85531125  1
  O  O164  1  0.25066699  0.50268214  0.36625718  1
  O  O165  1  0.26039369  0.47708454  0.85788966  1
  O  O166  1  0.76620287  -0.03478813  0.34243247  1
  O  O167  1  0.76842578  0.00298384  0.85376292  1
  O  O168  1  0.75651127  0.51373462  0.36221750  1
  O  O169  1  0.74708868  0.50284666  0.86119266  1
  O  O170  1  0.22929767  0.50814459  0.13540125  1
  O  O171  1  0.23050496  0.48593216  0.62024349  1
  O  O172  1  0.24669101  0.99879633  0.12339072  1
  O  O173  1  0.23818929  1.00449189  0.63513764  1
  O  O174  1  0.74879742  0.51492946  0.14421442  1
  O  O175  1  0.73752702  0.49770698  0.63370179  1
  O  O176  1  0.77158787  0.98303316  0.14725122  1
  O  O177  1  0.76522315  0.98393804  0.64173286  1
  O  O178  1  0.00727590  0.36835667  0.25614644  1
  O  O179  1  0.00239162  0.37797839  0.74010553  1
  O  O180  1  0.00624314  0.86764257  0.25919634  1
  O  O181  1  0.00466467  0.86385578  0.74504176  1
  O  O182  1  0.50333003  0.38921903  0.24486315  1
  O  O183  1  0.50894590  0.37034594  0.76051378  1
  O  O184  1  0.51441376  0.87828773  0.26709275  1
  O  O185  1  0.41891831  0.81887003  0.74704319  1
  O  O186  1  0.50721424  0.11853179  0.22733545  1
  O  O187  1  0.50282857  0.14864189  0.75182382  1
  O  O188  1  0.47903733  0.61365499  0.24457757  1
  O  O189  1  0.50413282  0.64022151  0.76605601  1
  O  O190  1  0.98879940  0.13488819  0.25381489  1
  O  O191  1  1.02263414  0.12127221  0.73380415  1
  O  O192  1  0.99269461  0.63228912  0.24606605  1
  O  O193  1  0.97196333  0.63323830  0.75332392  1
  O  O194  1  0.37782363  0.24497639  0.01523685  1
  O  O195  1  0.36920751  0.26521991  0.51738531  1
  O  O196  1  0.38194155  0.76598596  0.01997673  1
  O  O197  1  0.36203730  0.73833092  0.49403939  1
  O  O198  1  0.88117587  0.25618510  0.01561918  1
  O  O199  1  0.87607407  0.24788379  0.50300553  1
  O  O200  1  0.89184062  0.76295333  0.00875683  1
  O  O201  1  0.86275156  0.75493604  0.49458270  1
  O  O202  1  0.13462438  0.23672185  0.48587687  1
  O  O203  1  0.12861819  0.22786997  1.02203345  1
  O  O204  1  0.13626206  0.74223478  0.49614052  1
  O  O205  1  0.10987051  0.73643160  0.98588971  1
  O  O206  1  0.64299689  0.24290799  0.47545461  1
  O  O207  1  0.62467698  0.23957211  0.98718425  1
  O  O208  1  0.62838862  0.73835755  0.49440741  1
  O  O209  1  0.71768281  0.82072810  0.97003300  1
  O  O210  1  0.49542181  0.24242121  0.12180505  1
  O  O211  1  0.47775838  0.26974110  0.64233329  1
  O  O212  1  0.47160536  0.73184952  0.14354951  1
  O  O213  1  0.49095421  0.74309157  0.64098474  1
  O  O214  1  1.00257060  0.25311669  0.13733014  1
  O  O215  1  1.01710037  0.23011970  0.61372049  1
  O  O216  1  0.98954923  0.73998038  0.13866204  1
  O  O217  1  1.01273957  0.74204606  0.64650895  1
  O  O218  1  0.00862630  0.25885807  0.36351251  1
  O  O219  1  0.02826928  0.26250765  0.91144860  1
  O  O220  1  0.00577529  0.75406368  0.36610034  1
  O  O221  1  0.01219738  0.75224726  0.85369785  1
  O  O222  1  0.51164678  0.24449626  0.38536157  1
  O  O223  1  0.50615090  0.25727142  0.86768994  1
  O  O224  1  0.51024136  0.75036178  0.38115324  1
  O  O225  1  0.49620617  0.76368251  0.86380768  1
  O  O226  1  0.25000395  0.14994137  0.51325908  1
  O  O227  1  0.23737706  0.11198390  0.99929279  1
  O  O228  1  0.24178872  0.62800634  0.49162104  1
  O  O229  1  0.22143742  0.61695236  1.00396447  1
  O  O230  1  0.74345065  0.13451353  0.53975838  1
  O  O231  1  0.73145618  0.10547547  1.01048788  1
  O  O232  1  0.74194469  0.63155062  0.49044762  1
  O  O233  1  0.72027329  0.62650570  1.00350285  1
  O  O234  1  0.27917038  0.41626970  0.01048726  1
  O  O235  1  0.23302872  0.36355218  0.51691510  1
  O  O236  1  0.22827969  0.87235885  0.00609137  1
  O  O237  1  0.26302241  0.85552989  0.47965312  1
  O  O238  1  0.76530508  0.38708990  0.01298422  1
  O  O239  1  0.72958325  0.38869944  0.50690950  1
  O  O240  1  0.72281014  0.88397273  0.01504570  1
  O  O241  1  0.76018722  0.86977463  0.50810488  1
  O  O242  1  0.12677606  0.49360916  0.24432109  1
  O  O243  1  0.11094835  0.49855465  0.73680602  1
  O  O244  1  0.12422075  0.98898886  0.24326874  1
  O  O245  1  0.13055054  0.98893626  0.74399090  1
  O  O246  1  0.63508723  0.48655958  0.25840318  1
  O  O247  1  0.63504247  0.50468049  0.74471459  1
  O  O248  1  0.63665242  0.97955546  0.24236081  1
  O  O249  1  0.65105032  1.01384548  0.75320966  1
  O  O250  1  0.37705870  0.02167127  0.24764069  1
  O  O251  1  0.35161371  -0.00053463  0.75671458  1
  O  O252  1  0.36103225  0.50535777  0.25322486  1
  O  O253  1  0.37265885  0.53398033  0.71785734  1
  O  O254  1  0.88371819  0.01694048  0.24832614  1
  O  O255  1  0.87910788  0.00356175  0.75917230  1
  O  O256  1  0.86771202  0.51262101  0.25516276  1
  O  O257  1  0.86159687  0.51894696  0.74487671  1
  O  O258  1  0.11676281  0.36918211  0.36190375  1
  O  O259  1  0.10937504  0.39004173  0.85341208  1
  O  O260  1  0.11525460  0.86709383  0.36774507  1
  O  O261  1  0.12354125  0.86498250  0.85800394  1
  O  O262  1  0.62170965  0.35993087  0.35534392  1
  O  O263  1  0.61762467  0.36931424  0.86911356  1
  O  O264  1  0.61374373  0.86105019  0.38400307  1
  O  O265  1  0.69867532  0.84238088  0.89084967  1
  O  O266  1  0.38560491  0.13080486  0.12817164  1
  O  O267  1  0.37394749  0.14481387  0.62493958  1
  O  O268  1  0.36045105  0.62542605  0.13563208  1
  O  O269  1  0.37372487  0.58351754  0.65503792  1
  O  O270  1  0.87199798  0.14154189  0.13582405  1
  O  O271  1  0.90451722  0.12041557  0.62027927  1
  O  O272  1  0.88154198  0.63075047  0.13202552  1
  O  O273  1  0.87155194  0.62901478  0.62348189  1
  O  O274  1  0.25703064  0.25709925  0.11966976  1
  O  O275  1  0.25551048  0.26248694  0.62246224  1
  O  O276  1  0.26142723  0.74932572  0.12913777  1
  O  O277  1  0.25623832  0.73915728  0.60822021  1
  O  O278  1  0.75708943  0.25111068  0.12992759  1
  O  O279  1  0.75336219  0.28321983  0.62865599  1
  O  O280  1  0.77058504  0.73760003  0.11547200  1
  O  O281  1  0.74020578  0.75900641  0.61101086  1
  O  O282  1  0.24150693  0.26553256  0.38195537  1
  O  O283  1  0.21181555  0.28483407  0.89464264  1
  O  O284  1  0.24459134  0.73294291  0.38035385  1
  O  O285  1  0.23072040  0.75402471  0.87758717  1
  O  O286  1  0.73675468  0.24544967  0.36322967  1
  O  O287  1  0.73466921  0.25970293  0.86491151  1
  O  O288  1  0.73821861  0.74364358  0.38545751  1
  O  O289  1  0.79448053  0.71030376  0.89004313  1
  O  O290  1  0.02352131  0.10214359  -0.00367651  1
  O  O291  1  0.01992416  0.10730571  0.48979460  1
  O  O292  1  0.00266099  0.61064957  0.01269234  1
  O  O293  1  0.01332611  0.62721142  0.49269365  1
  O  O294  1  0.50713752  0.11526906  0.01447446  1
  O  O295  1  0.51062942  0.10242233  0.50448860  1
  O  O296  1  0.53064844  0.67383492  0.02033448  1
  O  O297  1  0.51050549  0.62788758  0.49982610  1
  O  O298  1  0.52902332  0.36491775  0.51193738  1
  O  O299  1  0.50883790  0.37521530  0.98798660  1
  O  O300  1  0.48900649  0.88103644  0.49434787  1
  O  O301  1  0.51900962  0.88728113  1.00352306  1
  O  O302  1  1.00976594  0.37555983  0.48222352  1
  O  O303  1  0.98939034  0.39411822  1.00576860  1
  O  O304  1  0.99589210  0.87306555  0.49550890  1
  O  O305  1  1.02636601  0.88840127  0.99817897  1
  O  O306  1  0.48357037  0.50443255  0.37400986  1
  O  O307  1  0.50039190  0.48604952  0.87159238  1
  O  O308  1  0.50508980  0.98916447  0.37492512  1
  O  O309  1  0.48810250  0.99280687  0.84158580  1
  O  O310  1  0.98956184  0.49193980  0.37302301  1
  O  O311  1  0.99002351  0.50755635  0.88769520  1
  O  O312  1  1.01080309  0.98594975  0.38401955  1
  O  O313  1  0.99614048  0.99396736  0.88108562  1
  O  O314  1  0.01511044  -0.00643678  0.11728814  1
  O  O315  1  0.01141483  0.00665912  0.61813774  1
  O  O316  1  0.00663152  0.51016523  0.13093913  1
  O  O317  1  0.00906132  0.49634452  0.61764379  1
  O  O318  1  0.50489884  -0.00155882  0.11897451  1
  O  O319  1  0.49548184  -0.01364374  0.65046192  1
  O  O320  1  0.48490234  0.53329093  0.10369806  1
  O  O321  1  0.51626827  0.49925423  0.63638991  1
  O  O322  1  0.23635677  0.38360558  0.25279159  1
  O  O323  1  0.22667181  0.37115910  0.73636870  1
  O  O324  1  0.23651017  0.87389023  0.27037459  1
  O  O325  1  0.23760103  0.87544336  0.74734238  1
  O  O326  1  0.75743355  0.39183446  0.24545841  1
  O  O327  1  0.74339505  0.39478002  0.75022883  1
  O  O328  1  0.72920036  0.86039089  0.23996782  1
  O  O329  1  0.74781063  0.86105946  0.72948255  1
  O  O330  1  0.24973771  0.12014197  0.25149552  1
  O  O331  1  0.23801910  0.12306297  0.74339526  1
  O  O332  1  0.24770743  0.61301522  0.25831034  1
  O  O333  1  0.26787340  0.64627727  0.76245265  1
  O  O334  1  0.75619461  0.10678035  0.24730175  1
  O  O335  1  0.76306697  0.12410057  0.73218752  1
  O  O336  1  0.75516579  0.62699189  0.26085740  1
  O  O337  1  0.75841969  0.62180234  0.74244429  1
  O  O338  1  0.36807322  0.13760781  0.35899640  1
  O  O339  1  0.37931466  0.10095717  0.88715874  1
  O  O340  1  0.36390951  0.61165721  0.36186089  1
  O  O341  1  0.37777221  0.60728323  0.92750395  1
  O  O342  1  0.87369824  0.13384295  0.35951397  1
  O  O343  1  0.88469842  0.10427283  0.89025569  1
  O  O344  1  0.86722052  0.62008820  0.36699541  1
  O  O345  1  0.83778448  0.65153616  0.87893671  1
  O  O346  1  0.11331421  0.38509601  0.13295389  1
  O  O347  1  0.12319384  0.38371528  0.63329020  1
  O  O348  1  0.13051363  0.88184170  0.14594070  1
  O  O349  1  0.12123561  0.88003653  0.63755011  1
  O  O350  1  0.62391356  0.36870076  0.14457463  1
  O  O351  1  0.63370161  0.39248498  0.63900390  1
  O  O352  1  0.60832677  0.84215402  0.13649195  1
  O  O353  1  0.63511785  0.87798026  0.61500661  1
  O  O354  1  0.12084176  0.25762372  0.25103905  1
  O  O355  1  0.11670677  0.26082775  0.76024517  1
  O  O356  1  0.11708253  0.75761298  0.25280861  1
  O  O357  1  0.12479484  0.75580189  0.75505818  1
  O  O358  1  0.61953794  0.25905229  0.25461508  1
  O  O359  1  0.61638587  0.26371552  0.75968609  1
  O  O360  1  0.62546811  0.75402989  0.26963770  1
  O  O361  1  0.61145840  0.76148449  0.75012562  1
  O  O362  1  0.36880914  0.23163482  0.23065021  1
  O  O363  1  0.37976800  0.25352356  0.74511354  1
  O  O364  1  0.36267407  0.72899683  0.25129688  1
  O  O365  1  0.32643020  0.70731887  0.75560607  1
  O  O366  1  0.88112155  0.24504892  0.24020978  1
  O  O367  1  0.89094221  0.27904673  0.72433105  1
  O  O368  1  0.88088579  0.73981299  0.25722132  1
  O  O369  1  0.87765227  0.74633767  0.74743817  1
  O  O370  1  0.36661318  0.50215311  0.47998467  1
  O  O371  1  0.33953560  0.45837194  1.01740620  1
  O  O372  1  0.36117157  0.98858692  0.49813098  1
  O  O373  1  0.39852414  0.99108677  0.99491694  1
  O  O374  1  0.87356820  0.51064559  0.48156639  1
  O  O375  1  0.88074907  0.49328948  1.00825720  1
  O  O376  1  0.89051422  0.98653248  0.50400954  1
  O  O377  1  0.89758433  0.99801875  1.00595280  1
  O  O378  1  0.12698375  0.00325553  0.01654326  1
  O  O379  1  0.11139448  -0.01713445  0.51348067  1
  O  O380  1  0.10746940  0.50763623  0.00390185  1
  O  O381  1  0.12056271  0.50730133  0.50585404  1
  O  O382  1  0.60663289  0.01707001  -0.02072969  1
  O  O383  1  0.63569386  0.00389044  0.49838204  1
  O  O384  1  0.66847672  0.58357740  -0.04034496  1
  O  O385  1  0.62364930  0.51408125  0.51280081  1
  O  O386  1  0.37888430  0.36085802  0.13247916  1
  O  O387  1  0.35376680  0.38004752  0.63744179  1
  O  O388  1  0.37523407  0.86333734  0.14457659  1
  O  O389  1  0.36792262  0.86546454  0.59773030  1
  O  O390  1  0.87922838  0.35833109  0.12079841  1
  O  O391  1  0.85675599  0.40001805  0.60499569  1
  O  O392  1  0.87882919  0.85663835  0.13932794  1
  O  O393  1  0.87607390  0.87094037  0.61453019  1
  O  O394  1  0.11601104  0.14445155  0.36826408  1
  O  O395  1  0.12783629  0.14007832  0.88505681  1
  O  O396  1  0.13070140  0.62504962  0.38007914  1
  O  O397  1  0.11806393  0.63082099  0.88168003  1
  O  O398  1  0.62164463  0.13461935  0.35909242  1
  O  O399  1  0.62753996  0.13954148  0.88332025  1
  O  O400  1  0.62667144  0.63064965  0.38360507  1
  O  O401  1  0.63499085  0.62724884  0.90208000  1
