# generated using pymatgen
data_V73Zn73O256
_symmetry_space_group_name_H-M   'P 1'
_cell_length_a   16.92418863
_cell_length_b   16.92535951
_cell_length_c   16.91835047
_cell_angle_alpha   89.83932553
_cell_angle_beta   89.97292519
_cell_angle_gamma   90.11734725
_symmetry_Int_Tables_number   1
_chemical_formula_structural   V73Zn73O256
_chemical_formula_sum   'V73 Zn73 O256'
_cell_volume   4846.19749268
_cell_formula_units_Z   1
loop_
 _symmetry_equiv_pos_site_id
 _symmetry_equiv_pos_as_xyz
  1  'x, y, z'
loop_
 _atom_site_type_symbol
 _atom_site_label
 _atom_site_symmetry_multiplicity
 _atom_site_fract_x
 _atom_site_fract_y
 _atom_site_fract_z
 _atom_site_occupancy
  V  V0  1  0.36829126  0.38989561  -0.01391540  1
  V  V1  1  0.86687961  0.25206647  0.11675854  1
  V  V2  1  0.25415024  0.61600299  0.87352692  1
  V  V3  1  0.85600234  0.36724447  0.48550231  1
  V  V4  1  0.72816660  0.75899227  0.00866772  1
  V  V5  1  0.87610577  0.76216069  0.10616630  1
  V  V6  1  0.62347222  0.75409002  0.86719775  1
  V  V7  1  0.24471176  0.87563399  0.13251550  1
  V  V8  1  0.25756986  0.76064827  0.00102107  1
  V  V9  1  0.42309277  0.56332481  0.19951146  1
  V  V10  1  0.74474070  0.85456402  0.63401920  1
  V  V11  1  -0.02811634  0.40169629  0.85794364  1
  V  V12  1  0.37859491  0.61597347  0.75678245  1
  V  V13  1  0.62487550  0.01233129  0.62673104  1
  V  V14  1  0.74291337  0.59988357  0.88810314  1
  V  V15  1  0.26326607  0.88095092  0.62380754  1
  V  V16  1  0.50540295  0.62748545  0.62457861  1
  V  V17  1  0.85736162  0.24715572  0.61871125  1
  V  V18  1  -0.00301246  0.24101905  0.23760941  1
  V  V19  1  0.25798497  0.75721976  0.50349960  1
  V  V20  1  0.11552555  0.50023258  0.11537854  1
  V  V21  1  0.37750331  -0.01184237  0.38419876  1
  V  V22  1  0.12297191  0.12265770  0.01025901  1
  V  V23  1  0.50234880  0.01546721  0.50446708  1
  V  V24  1  -0.00799279  0.00278750  0.00545606  1
  V  V25  1  0.13142722  0.88128173  0.74560379  1
  V  V26  1  -0.00431302  0.62686266  0.12551811  1
  V  V27  1  0.24315646  -0.00704464  0.25699078  1
  V  V28  1  0.78357652  0.62359946  0.37926497  1
  V  V29  1  0.12515170  0.75516197  0.36923367  1
  V  V30  1  0.37745826  0.37451528  0.49824664  1
  V  V31  1  0.58879850  0.24804965  0.90242246  1
  V  V32  1  0.26000619  0.12486669  0.37747492  1
  V  V33  1  0.25051660  0.00571616  0.74444642  1
  V  V34  1  0.79290280  0.50138271  0.24596588  1
  V  V35  1  0.11601443  0.63025169  -0.00412553  1
  V  V36  1  0.37369721  0.25272801  0.13352834  1
  V  V37  1  0.39048982  0.13184439  0.74913446  1
  V  V38  1  0.37662017  0.00052024  0.88861375  1
  V  V39  1  0.36699076  0.50402387  0.37935805  1
  V  V40  1  0.00290185  0.87979187  0.36976632  1
  V  V41  1  -0.00839671  0.12943238  0.62840536  1
  V  V42  1  0.23751411  0.25438971  -0.00298565  1
  V  V43  1  0.86140850  0.00741266  0.36747110  1
  V  V44  1  0.12151207  0.25920657  0.37491181  1
  V  V45  1  -0.00159595  -0.00424505  0.50762482  1
  V  V46  1  0.00390978  0.48117323  0.50303746  1
  V  V47  1  0.62503097  0.88516005  0.24972357  1
  V  V48  1  0.24699798  0.38807604  0.63414436  1
  V  V49  1  0.24050010  0.13092658  0.87173231  1
  V  V50  1  0.57593596  0.31960995  0.35890527  1
  V  V51  1  0.63041185  0.72812834  0.38401412  1
  V  V52  1  -0.00962637  0.75365099  0.25070096  1
  V  V53  1  0.50053494  0.74001928  0.24895832  1
  V  V54  1  0.87665907  0.00509730  0.85600624  1
  V  V55  1  0.23775504  0.37602838  0.12952114  1
  V  V56  1  0.12834365  0.11648575  0.50749643  1
  V  V57  1  0.37702013  0.75177931  0.13054346  1
  V  V58  1  0.22252104  0.50152781  0.25355101  1
  V  V59  1  0.24218573  0.62758346  0.37435914  1
  V  V60  1  0.85954139  0.86647575  0.50250134  1
  V  V61  1  0.69150343  0.17350601  0.39441142  1
  V  V62  1  0.60833242  0.35832169  0.74634845  1
  V  V63  1  0.62483669  0.48754033  0.62091815  1
  V  V64  1  0.49689121  0.50249445  0.49927189  1
  V  V65  1  0.50018660  0.86437751  0.38992906  1
  V  V66  1  0.13196631  0.75717233  0.87130934  1
  V  V67  1  0.51034033  0.89175517  0.88606907  1
  V  V68  1  0.74901930  0.14904091  0.86713160  1
  V  V69  1  0.25551806  0.24824889  0.50651753  1
  V  V70  1  0.12130002  0.62459399  0.52043032  1
  V  V71  1  -0.00086173  0.87231687  0.87623144  1
  V  V72  1  0.39296445  0.24773334  0.62471519  1
  Zn  Zn73  1  0.11259589  0.36760501  0.74884232  1
  Zn  Zn74  1  0.75071518  0.89642480  0.13532432  1
  Zn  Zn75  1  0.74622288  -0.00450142  0.74497229  1
  Zn  Zn76  1  0.75499436  0.49366213  0.73463057  1
  Zn  Zn77  1  0.11521528  -0.00404331  0.13831854  1
  Zn  Zn78  1  -0.03038738  0.72245984  0.71186070  1
  Zn  Zn79  1  0.37754915  0.12342950  0.24588361  1
  Zn  Zn80  1  0.38124667  0.75460419  0.62793823  1
  Zn  Zn81  1  0.50050877  0.76395734  0.74896700  1
  Zn  Zn82  1  0.18791916  0.18473169  0.19244705  1
  Zn  Zn83  1  0.18362364  0.19434307  0.68965449  1
  Zn  Zn84  1  0.18255371  0.68843486  0.18856679  1
  Zn  Zn85  1  0.19825662  0.69521417  0.69299801  1
  Zn  Zn86  1  0.75211190  0.14414011  0.20560439  1
  Zn  Zn87  1  0.68897308  0.17683427  0.68701694  1
  Zn  Zn88  1  0.70424240  0.69042947  0.21043052  1
  Zn  Zn89  1  0.78841120  0.67570348  0.70658379  1
  Zn  Zn90  1  0.30665630  0.31938818  0.31316160  1
  Zn  Zn91  1  0.31573921  0.30835347  0.81121599  1
  Zn  Zn92  1  0.31555435  0.80893412  0.31173742  1
  Zn  Zn93  1  0.32225044  0.81579255  0.81024595  1
  Zn  Zn94  1  0.81667074  0.31561572  0.30402449  1
  Zn  Zn95  1  0.82065436  0.31292755  0.77992438  1
  Zn  Zn96  1  0.80983957  0.81823455  0.31677311  1
  Zn  Zn97  1  0.81461748  0.81292244  0.81976103  1
  Zn  Zn98  1  0.18474361  0.44024332  0.44813477  1
  Zn  Zn99  1  0.17482598  0.43763854  0.93134344  1
  Zn  Zn100  1  0.18646861  0.93626192  0.44252560  1
  Zn  Zn101  1  0.19156656  0.94273984  0.93999668  1
  Zn  Zn102  1  0.68864924  0.44777098  0.42310442  1
  Zn  Zn103  1  0.72769211  0.39209998  0.88201537  1
  Zn  Zn104  1  0.67740446  0.93278156  0.43708672  1
  Zn  Zn105  1  0.69868433  0.94006824  0.94591875  1
  Zn  Zn106  1  0.30684518  0.06528691  0.06832454  1
  Zn  Zn107  1  0.32298769  0.06416207  0.56556750  1
  Zn  Zn108  1  0.29856011  0.56612963  0.06175814  1
  Zn  Zn109  1  0.31181934  0.57039158  0.56693279  1
  Zn  Zn110  1  0.82121812  0.10083097  0.04325076  1
  Zn  Zn111  1  0.80205298  0.06798049  0.54385133  1
  Zn  Zn112  1  0.79148922  0.59334628  0.07647384  1
  Zn  Zn113  1  0.81561773  0.54938464  0.55309105  1
  Zn  Zn114  1  0.49769580  0.39072709  0.10669782  1
  Zn  Zn115  1  0.43448502  0.43487158  0.68945797  1
  Zn  Zn116  1  0.43139667  0.92824600  0.20280787  1
  Zn  Zn117  1  0.44446209  0.94322711  0.69700941  1
  Zn  Zn118  1  0.95481324  0.41590245  0.18801737  1
  Zn  Zn119  1  0.93066722  0.43555549  0.66385437  1
  Zn  Zn120  1  0.93331819  0.94180110  0.19087940  1
  Zn  Zn121  1  0.94397253  0.90855659  0.67972491  1
  Zn  Zn122  1  0.06310176  0.06793237  0.32220683  1
  Zn  Zn123  1  0.06195798  0.06227152  0.81137624  1
  Zn  Zn124  1  -0.03293521  0.56180682  0.31500051  1
  Zn  Zn125  1  0.07056714  0.55142998  0.69588532  1
  Zn  Zn126  1  0.60167563  0.10028385  0.26500340  1
  Zn  Zn127  1  0.57062873  0.06740370  0.81337919  1
  Zn  Zn128  1  0.57006301  0.53668480  0.31789147  1
  Zn  Zn129  1  0.60288730  0.59333823  0.77583384  1
  Zn  Zn130  1  0.47770714  0.17913792  0.40388857  1
  Zn  Zn131  1  0.42394174  0.18189308  0.95602822  1
  Zn  Zn132  1  0.43552814  0.68374310  0.43671938  1
  Zn  Zn133  1  0.43609064  0.69750691  0.93533734  1
  Zn  Zn134  1  0.93515168  0.18688780  0.43590618  1
  Zn  Zn135  1  0.93683586  0.18615123  0.92696800  1
  Zn  Zn136  1  0.94653996  0.69453575  0.44926699  1
  Zn  Zn137  1  0.93815478  0.58729812  0.82205597  1
  Zn  Zn138  1  0.04115442  0.31085527  0.06557727  1
  Zn  Zn139  1  0.06959945  0.30399463  0.56583456  1
  Zn  Zn140  1  0.06519621  0.81632773  0.05879463  1
  Zn  Zn141  1  0.06933067  0.81326420  0.56603117  1
  Zn  Zn142  1  0.59462800  0.23069522  0.11483328  1
  Zn  Zn143  1  0.57342980  0.30814238  0.54626527  1
  Zn  Zn144  1  0.55081798  0.82530016  0.06736207  1
  Zn  Zn145  1  0.57772714  0.80410748  0.56516492  1
  O  O146  1  0.13617345  0.11416410  0.11333379  1
  O  O147  1  0.11696689  0.12767904  0.61167542  1
  O  O148  1  0.11775756  0.62408763  0.11556801  1
  O  O149  1  0.13615004  0.62874874  0.62401792  1
  O  O150  1  0.64372155  0.14863956  0.16964550  1
  O  O151  1  0.61833254  0.11149158  0.62176835  1
  O  O152  1  0.63371698  0.58931954  0.16437398  1
  O  O153  1  0.60515261  0.60869513  0.63308136  1
  O  O154  1  0.35573260  0.39426172  0.38696021  1
  O  O155  1  0.35663191  0.37849236  0.88680626  1
  O  O156  1  0.38531721  0.87860647  0.37273426  1
  O  O157  1  0.37619014  0.89747472  0.87682483  1
  O  O158  1  0.88206322  0.36638284  0.38916744  1
  O  O159  1  0.86778348  0.38551368  0.85530249  1
  O  O160  1  0.88392951  0.87895398  0.38609480  1
  O  O161  1  0.89552590  0.88136322  0.87338113  1
  O  O162  1  0.25748709  0.00342102  0.37790451  1
  O  O163  1  0.26146312  0.00961189  0.86819242  1
  O  O164  1  0.24475020  0.50881975  0.37114812  1
  O  O165  1  0.24593967  0.51939952  0.88108296  1
  O  O166  1  0.76515529  -0.01717591  0.38540732  1
  O  O167  1  0.77413687  -0.01914095  0.87055933  1
  O  O168  1  0.76093456  0.51964835  0.36650629  1
  O  O169  1  0.71709234  0.50521570  0.90474679  1
  O  O170  1  0.23296719  0.49857931  0.13500875  1
  O  O171  1  0.25692282  0.48736911  0.62373260  1
  O  O172  1  0.25437681  0.99039186  0.14001311  1
  O  O173  1  0.25894776  0.99681118  0.63560429  1
  O  O174  1  0.78114174  0.50882544  0.14446321  1
  O  O175  1  0.72534937  0.50302761  0.61395277  1
  O  O176  1  0.72494551  1.00860986  0.09293612  1
  O  O177  1  0.73377773  1.00393122  0.61865573  1
  O  O178  1  0.01467808  0.34283730  0.25362352  1
  O  O179  1  -0.01190662  0.39390309  0.75324050  1
  O  O180  1  -0.00063184  0.87129039  0.26231361  1
  O  O181  1  0.02062565  0.89333473  0.77073805  1
  O  O182  1  0.60499072  0.35633833  0.14019307  1
  O  O183  1  0.50846601  0.37137884  0.74905134  1
  O  O184  1  0.50692588  0.85968620  0.26389465  1
  O  O185  1  0.49266947  0.87637750  0.77607489  1
  O  O186  1  0.48948905  0.08367139  0.21192480  1
  O  O187  1  0.48771512  0.12455968  0.75597142  1
  O  O188  1  0.49250623  0.61986574  0.25244767  1
  O  O189  1  0.49419051  0.62913219  0.74296015  1
  O  O190  1  0.99648261  0.14569711  0.28026572  1
  O  O191  1  1.00449250  0.11109811  0.72610983  1
  O  O192  1  1.00287757  0.63948534  0.23463160  1
  O  O193  1  1.01441422  0.63060207  0.75470463  1
  O  O194  1  0.35142730  0.25711091  0.01115948  1
  O  O195  1  0.36910248  0.25892938  0.50552688  1
  O  O196  1  0.36737193  0.74084120  0.01632731  1
  O  O197  1  0.36112019  0.74566707  0.50230727  1
  O  O198  1  0.87676242  0.21301503  0.01855493  1
  O  O199  1  0.87783863  0.25957823  0.50340400  1
  O  O200  1  0.86730295  0.76465845  0.00920626  1
  O  O201  1  0.88168671  0.76912710  0.50328945  1
  O  O202  1  0.14161729  0.23850110  0.49551251  1
  O  O203  1  0.12713813  0.23389670  1.00644872  1
  O  O204  1  0.13747698  0.74774726  0.49934678  1
  O  O205  1  0.13696635  0.74919433  0.99308653  1
  O  O206  1  0.61909334  0.27675637  0.44845089  1
  O  O207  1  0.60776780  0.24962960  1.00003884  1
  O  O208  1  0.62759106  0.74049361  0.48236512  1
  O  O209  1  0.62702021  0.75373201  1.00956662  1
  O  O210  1  0.47503034  0.26696223  0.12795469  1
  O  O211  1  0.49081513  0.25446657  0.60943398  1
  O  O212  1  0.48883099  0.75084296  0.13547466  1
  O  O213  1  0.50415910  0.73754790  0.62580385  1
  O  O214  1  1.01390454  0.22213562  0.13883175  1
  O  O215  1  0.99687589  0.23141792  0.61512892  1
  O  O216  1  0.99192525  0.75434041  0.12834008  1
  O  O217  1  0.99043560  0.80554058  0.64322434  1
  O  O218  1  0.02317589  0.25058962  0.39478967  1
  O  O219  1  -0.00400509  0.27956167  0.89012409  1
  O  O220  1  0.00666221  0.75930568  0.36952063  1
  O  O221  1  0.01881611  0.77073933  0.87928612  1
  O  O222  1  0.47726856  0.28609882  0.36050851  1
  O  O223  1  0.49137424  0.24285339  0.88450742  1
  O  O224  1  0.50711955  0.74414621  0.36917536  1
  O  O225  1  0.51361591  0.76406267  0.88362155  1
  O  O226  1  0.25077054  0.12731624  0.49700727  1
  O  O227  1  0.23869795  0.13132838  0.99262916  1
  O  O228  1  0.24049712  0.63622554  0.49974814  1
  O  O229  1  0.24406706  0.64027241  0.99090047  1
  O  O230  1  0.72702178  0.12576208  0.47665331  1
  O  O231  1  0.74375396  0.11321645  0.96146612  1
  O  O232  1  0.77098148  0.62450998  0.48010059  1
  O  O233  1  0.74224235  0.64490430  0.99124430  1
  O  O234  1  0.24009169  0.36804237  0.00290087  1
  O  O235  1  0.25881977  0.36746355  0.51171741  1
  O  O236  1  0.25007736  0.86709849  0.01195403  1
  O  O237  1  0.24775942  0.87058583  0.51259360  1
  O  O238  1  0.77482349  0.36701096  -0.00791115  1
  O  O239  1  0.75705963  0.38457124  0.48801733  1
  O  O240  1  0.74059102  0.86207202  0.02218222  1
  O  O241  1  0.75666904  0.86684183  0.50080950  1
  O  O242  1  0.12314482  0.50219309  0.23932595  1
  O  O243  1  0.13504502  0.48060652  0.75493639  1
  O  O244  1  0.13792672  1.00623284  0.25614448  1
  O  O245  1  0.14287704  0.99470435  0.75866659  1
  O  O246  1  0.63495527  0.53007007  0.21309850  1
  O  O247  1  0.61583598  0.48500955  0.73066095  1
  O  O248  1  0.61813264  0.98167077  0.26621413  1
  O  O249  1  0.61994034  0.99982201  0.73240344  1
  O  O250  1  0.36243589  -0.00170173  0.26831235  1
  O  O251  1  0.36872306  0.01633306  0.75743545  1
  O  O252  1  0.35766239  0.51118209  0.26262812  1
  O  O253  1  0.38321655  0.51659772  0.75398318  1
  O  O254  1  0.87169619  -0.00414910  0.26633792  1
  O  O255  1  0.88345313  -0.00977889  0.75680322  1
  O  O256  1  0.89783320  0.49175391  0.25446868  1
  O  O257  1  0.86684911  0.52830724  0.71215406  1
  O  O258  1  0.14463967  0.35683155  0.38266832  1
  O  O259  1  0.09769377  0.39940110  0.86159265  1
  O  O260  1  0.11521669  0.86545077  0.38453915  1
  O  O261  1  0.12976937  0.87343633  0.86982321  1
  O  O262  1  0.59796196  0.42602777  0.35502575  1
  O  O263  1  0.62027828  0.34345103  0.86197538  1
  O  O264  1  0.61819244  0.85481309  0.36849540  1
  O  O265  1  0.61590181  0.88189054  0.88561285  1
  O  O266  1  0.35826444  0.14784469  0.12731266  1
  O  O267  1  0.37678503  0.13215805  0.64031461  1
  O  O268  1  0.36996269  0.62595175  0.13412227  1
  O  O269  1  0.38230038  0.62774067  0.64085954  1
  O  O270  1  0.84506434  0.13870792  0.14652820  1
  O  O271  1  0.88541525  0.12979709  0.60454747  1
  O  O272  1  0.89092846  0.64442274  0.11173283  1
  O  O273  1  0.85931342  0.59372833  0.65336750  1
  O  O274  1  0.23920501  0.26144930  0.11950049  1
  O  O275  1  0.26190465  0.24745942  0.61469922  1
  O  O276  1  0.25517143  0.75479193  0.12314358  1
  O  O277  1  0.25665995  0.76267162  0.61927008  1
  O  O278  1  0.77590691  0.28410000  0.12465081  1
  O  O279  1  0.75792005  0.23272285  0.61443367  1
  O  O280  1  0.76262063  0.73613864  0.11771689  1
  O  O281  1  0.74505540  0.75520392  0.63305744  1
  O  O282  1  0.25313121  0.23929846  0.38633372  1
  O  O283  1  0.25127374  0.24052269  0.88480590  1
  O  O284  1  0.24428748  0.74857822  0.38148171  1
  O  O285  1  0.25022249  0.75630523  0.88552550  1
  O  O286  1  0.75331023  0.25179413  0.37311194  1
  O  O287  1  0.76633377  0.24787067  0.86834613  1
  O  O288  1  0.74042135  0.73045194  0.36118631  1
  O  O289  1  0.73305889  0.76884713  0.89517710  1
  O  O290  1  0.01577666  0.11333002  -0.00949622  1
  O  O291  1  0.00849061  0.11032876  0.50344197  1
  O  O292  1  0.01581207  0.63815554  0.00723986  1
  O  O293  1  0.02082507  0.64100876  0.51501984  1
  O  O294  1  0.48901530  0.11594818  0.01756825  1
  O  O295  1  0.49316335  0.11359529  0.50215979  1
  O  O296  1  0.49966866  0.59952629  -0.01115461  1
  O  O297  1  0.48772790  0.61715490  0.51718965  1
  O  O298  1  0.48383698  0.38787275  0.50278536  1
  O  O299  1  0.46847913  0.37918591  0.99834985  1
  O  O300  1  0.50339442  0.85740884  0.49039120  1
  O  O301  1  0.49311154  0.87987411  0.98640300  1
  O  O302  1  1.01708391  0.38164506  0.49989895  1
  O  O303  1  0.99357792  0.33635405  0.95278221  1
  O  O304  1  0.99834512  0.88620330  0.49251920  1
  O  O305  1  1.01358092  0.89330451  0.98560559  1
  O  O306  1  0.47563772  0.51927289  0.38787797  1
  O  O307  1  0.51549752  0.54268317  0.94439335  1
  O  O308  1  0.49297977  0.98350593  0.39460712  1
  O  O309  1  0.49170456  1.00086219  0.87554139  1
  O  O310  1  1.00875351  0.51461362  0.40648550  1
  O  O311  1  0.97353496  0.49757970  0.88636411  1
  O  O312  1  0.99336644  0.99246290  0.38165746  1
  O  O313  1  0.99110479  0.99854495  0.88259133  1
  O  O314  1  -0.00023518  -0.00860098  0.11050702  1
  O  O315  1  -0.00744713  0.00114773  0.60976706  1
  O  O316  1  0.00832020  0.51288899  0.12769553  1
  O  O317  1  0.00826117  0.50295916  0.60918988  1
  O  O318  1  0.48637469  0.02568695  0.15759268  1
  O  O319  1  0.50727899  -0.01102128  0.61096420  1
  O  O320  1  0.47449918  0.49250229  0.15216090  1
  O  O321  1  0.49828100  0.50670096  0.61696632  1
  O  O322  1  0.24548724  0.38871819  0.23909527  1
  O  O323  1  0.25971205  0.36766965  0.73282317  1
  O  O324  1  0.25152456  0.88109653  0.24715710  1
  O  O325  1  0.25072953  0.88724542  0.74606015  1
  O  O326  1  0.76028733  0.40706904  0.26192068  1
  O  O327  1  0.72967286  0.38592509  0.76291504  1
  O  O328  1  0.73179205  0.86582752  0.24726410  1
  O  O329  1  0.75765626  0.87726962  0.73532810  1
  O  O330  1  0.25317874  0.11448633  0.26516818  1
  O  O331  1  0.25101137  0.12109820  0.75564851  1
  O  O332  1  0.23552451  0.61792693  0.26453407  1
  O  O333  1  0.26431069  0.63056950  0.76408079  1
  O  O334  1  0.72008364  0.11601318  0.31150992  1
  O  O335  1  0.74343815  0.11100447  0.76620176  1
  O  O336  1  0.77141785  0.61348202  0.26121966  1
  O  O337  1  0.72448272  0.60322152  0.77432322  1
  O  O338  1  0.37320121  0.11523414  0.37263005  1
  O  O339  1  0.36414085  0.12189447  0.86471622  1
  O  O340  1  0.35156898  0.61748296  0.38790832  1
  O  O341  1  0.36676324  0.63106735  0.86975799  1
  O  O342  1  0.87270791  0.10577375  0.38823444  1
  O  O343  1  0.86931861  0.11232877  0.86542992  1
  O  O344  1  0.88706018  0.63129623  0.37371201  1
  O  O345  1  0.84209822  0.60318911  0.87904210  1
  O  O346  1  0.12450797  0.38841141  0.10899374  1
  O  O347  1  0.14473025  0.36792096  0.62405532  1
  O  O348  1  0.13936051  0.87704990  0.12538831  1
  O  O349  1  0.14394136  0.87651832  0.63950407  1
  O  O350  1  0.66051602  0.40297987  0.09590521  1
  O  O351  1  0.61575834  0.38125140  0.62652116  1
  O  O352  1  0.61529402  0.87601563  0.14633715  1
  O  O353  1  0.64291882  0.88006274  0.61721976  1
  O  O354  1  0.12571741  0.23820267  0.27180723  1
  O  O355  1  0.11854851  0.25632167  0.75167886  1
  O  O356  1  0.11521775  0.74909103  0.26298368  1
  O  O357  1  0.13879497  0.76665651  0.76219377  1
  O  O358  1  0.61905453  0.28124752  0.28118355  1
  O  O359  1  0.62261382  0.26152728  0.72628455  1
  O  O360  1  0.61234769  0.74485750  0.25680331  1
  O  O361  1  0.62335471  0.75874029  0.76834827  1
  O  O362  1  0.35883201  0.25190576  0.23741451  1
  O  O363  1  0.37565453  0.23837619  0.74145856  1
  O  O364  1  0.38683809  0.74505473  0.24567128  1
  O  O365  1  0.38330787  0.74003258  0.75037421  1
  O  O366  1  0.88792480  0.25693890  0.23363043  1
  O  O367  1  0.87728883  0.24093462  0.71893643  1
  O  O368  1  0.88806723  0.75580554  0.24950768  1
  O  O369  1  0.86794268  0.73219046  0.76445030  1
  O  O370  1  0.37422080  0.49460105  0.49799670  1
  O  O371  1  0.35375645  0.48861741  1.00406890  1
  O  O372  1  0.38527732  0.99887233  0.49387516  1
  O  O373  1  0.36832814  1.01287221  0.98698084  1
  O  O374  1  0.89155375  0.47459717  0.50878655  1
  O  O375  1  0.81628394  0.42038987  1.02099477  1
  O  O376  1  0.88552486  0.98910935  0.49184234  1
  O  O377  1  0.89060093  1.01172012  0.99440145  1
  O  O378  1  0.12127141  0.01019650  0.00283477  1
  O  O379  1  0.11107916  0.00477675  0.49526580  1
  O  O380  1  0.13126912  0.51710498  0.00837709  1
  O  O381  1  0.12413166  0.51955167  0.50557374  1
  O  O382  1  0.66372675  0.00344044  0.04397202  1
  O  O383  1  0.60824924  -0.00490258  0.50552089  1
  O  O384  1  0.62901974  0.45491385  0.05140820  1
  O  O385  1  0.60614998  0.49319042  0.50884440  1
  O  O386  1  0.34817731  0.36575960  0.11289015  1
  O  O387  1  0.36852428  0.36644384  0.61787186  1
  O  O388  1  0.36484850  0.86065353  0.13390123  1
  O  O389  1  0.36710292  0.87584241  0.63612476  1
  O  O390  1  0.92820264  0.34473861  0.10146012  1
  O  O391  1  0.86880666  0.35588876  0.60957380  1
  O  O392  1  0.86682766  0.86394848  0.13384145  1
  O  O393  1  0.85195273  0.88759138  0.60963752  1
  O  O394  1  0.14239447  0.12864705  0.39054491  1
  O  O395  1  0.13574730  0.11706407  0.88395933  1
  O  O396  1  0.13348721  0.64296637  0.39492266  1
  O  O397  1  0.14361015  0.64316289  0.88053329  1
  O  O398  1  0.58393558  0.14395869  0.37035002  1
  O  O399  1  0.63110067  0.15529559  0.86253611  1
  O  O400  1  0.62330034  0.62732210  0.37068838  1
  O  O401  1  0.62908891  0.64928640  0.88019991  1
