# generated using pymatgen
data_V73Zn73O256
_symmetry_space_group_name_H-M   'P 1'
_cell_length_a   16.97175778
_cell_length_b   16.93200277
_cell_length_c   16.85150644
_cell_angle_alpha   89.97196594
_cell_angle_beta   89.94410620
_cell_angle_gamma   90.30310730
_symmetry_Int_Tables_number   1
_chemical_formula_structural   V73Zn73O256
_chemical_formula_sum   'V73 Zn73 O256'
_cell_volume   4842.47680791
_cell_formula_units_Z   1
loop_
 _symmetry_equiv_pos_site_id
 _symmetry_equiv_pos_as_xyz
  1  'x, y, z'
loop_
 _atom_site_type_symbol
 _atom_site_label
 _atom_site_symmetry_multiplicity
 _atom_site_fract_x
 _atom_site_fract_y
 _atom_site_fract_z
 _atom_site_occupancy
  V  V0  1  0.50718303  0.75989796  0.25522124  1
  V  V1  1  0.62398836  0.63050169  -0.00593741  1
  V  V2  1  0.00438005  0.62828115  0.63016894  1
  V  V3  1  0.37427045  0.37923362  -0.00025833  1
  V  V4  1  0.75345395  0.26245540  0.50721730  1
  V  V5  1  0.62944781  -0.01104330  0.12759231  1
  V  V6  1  0.63119366  0.48570192  0.63571934  1
  V  V7  1  0.25181751  0.75475851  0.49299430  1
  V  V8  1  0.24436364  0.88745596  0.13196227  1
  V  V9  1  -0.01101235  0.48460818  0.50999415  1
  V  V10  1  0.49837435  0.62244970  0.62490451  1
  V  V11  1  0.37972485  0.25422456  0.13566451  1
  V  V12  1  0.22693848  0.87064592  0.63672161  1
  V  V13  1  0.74700793  0.62294211  0.86183172  1
  V  V14  1  0.11716404  0.75137345  0.86491926  1
  V  V15  1  0.12951976  0.50106260  0.63638161  1
  V  V16  1  0.00069920  0.37729570  0.89196045  1
  V  V17  1  0.64133610  0.00355008  0.63922597  1
  V  V18  1  0.89562937  0.25299621  0.15516308  1
  V  V19  1  0.36591068  0.50493469  0.37431262  1
  V  V20  1  0.12920509  0.62540626  0.48778539  1
  V  V21  1  0.25673477  0.38474594  0.63291833  1
  V  V22  1  0.36925013  0.62614490  0.25894323  1
  V  V23  1  0.50027694  0.49769644  -0.00225554  1
  V  V24  1  0.50451793  0.50164528  0.49283097  1
  V  V25  1  0.37386297  0.37414069  0.49695920  1
  V  V26  1  -0.01439166  0.62690838  0.14124984  1
  V  V27  1  0.37836893  0.50197468  0.87084540  1
  V  V28  1  0.74374328  -0.01021457  0.25280335  1
  V  V29  1  0.64000410  0.50199577  0.13043078  1
  V  V30  1  0.75064351  0.86431945  0.62054149  1
  V  V31  1  0.88774085  0.63212921  0.75718835  1
  V  V32  1  0.37338976  0.75068788  0.11575603  1
  V  V33  1  0.39833860  0.78917809  0.63194573  1
  V  V34  1  0.24411953  0.75103147  0.00083872  1
  V  V35  1  0.75287901  0.76327685  0.00758223  1
  V  V36  1  0.49864665  0.12071450  0.63840968  1
  V  V37  1  0.37714233  -0.01293446  0.39759091  1
  V  V38  1  0.60503790  0.24981372  0.37422249  1
  V  V39  1  0.01207287  0.02040599  0.48669918  1
  V  V40  1  0.39181982  0.27118289  0.65364310  1
  V  V41  1  0.11912612  0.11718434  0.01954406  1
  V  V42  1  0.63634353  0.63938025  0.49317552  1
  V  V43  1  0.24965921  0.38196000  0.13181973  1
  V  V44  1  0.76668671  0.26497373  0.00408219  1
  V  V45  1  0.51260807  0.87523481  0.39337003  1
  V  V46  1  0.35929933  -0.01925188  0.87544932  1
  V  V47  1  0.49889596  0.62546089  0.12696768  1
  V  V48  1  0.24979118  0.62049872  0.87694907  1
  V  V49  1  0.37604989  0.62422425  0.74237606  1
  V  V50  1  0.00330455  0.85412366  0.38278849  1
  V  V51  1  0.00161056  0.24879646  0.73582849  1
  V  V52  1  0.11733206  0.86651016  0.25311602  1
  V  V53  1  0.62371618  0.36095381  0.23464272  1
  V  V54  1  0.51638159  0.13685921  0.12700903  1
  V  V55  1  0.13021174  0.01613593  0.63257137  1
  V  V56  1  0.75597590  0.13225908  0.37150056  1
  V  V57  1  0.84537581  0.50367709  0.33556892  1
  V  V58  1  -0.02794200  0.88886366  0.88246957  1
  V  V59  1  0.61484538  0.77359424  0.85741525  1
  V  V60  1  0.37959537  0.09761807  0.24187355  1
  V  V61  1  0.87431058  -0.01198529  0.37625909  1
  V  V62  1  0.13247117  0.24232286  0.87820379  1
  V  V63  1  0.87311160  0.74470668  0.60815727  1
  V  V64  1  0.33960514  0.11301597  0.75880408  1
  V  V65  1  0.25442947  0.24320064  0.00257090  1
  V  V66  1  0.63396652  0.13118254  -0.01234420  1
  V  V67  1  0.78082248  0.12363285  0.86428583  1
  V  V68  1  0.13396458  0.37693223  0.75357935  1
  V  V69  1  0.61235837  0.11512904  0.49748879  1
  V  V70  1  0.11815546  0.50980704  0.11295542  1
  V  V71  1  0.11199702  0.37497446  0.25407998  1
  V  V72  1  -0.04446839  0.07412132  0.67502262  1
  Zn  Zn73  1  0.49911466  -0.02270277  -0.01805546  1
  Zn  Zn74  1  0.23252638  0.51104654  0.26046394  1
  Zn  Zn75  1  0.12355860  0.24362536  0.37856616  1
  Zn  Zn76  1  0.49179652  0.37212549  0.36589217  1
  Zn  Zn77  1  0.51339399  0.26773557  0.79664123  1
  Zn  Zn78  1  0.24836710  0.23940520  0.50178081  1
  Zn  Zn79  1  0.87412438  0.48969765  0.87760203  1
  Zn  Zn80  1  -0.02589330  0.36691036  0.36611780  1
  Zn  Zn81  1  0.24665689  0.11813438  0.37417758  1
  Zn  Zn82  1  0.17366143  0.16855326  0.21858678  1
  Zn  Zn83  1  0.18969774  0.19858240  0.67798782  1
  Zn  Zn84  1  0.18163684  0.68795151  0.19174847  1
  Zn  Zn85  1  0.19247550  0.68539345  0.68978361  1
  Zn  Zn86  1  0.70310642  0.19229978  0.18811888  1
  Zn  Zn87  1  0.69403352  0.19378314  0.69307772  1
  Zn  Zn88  1  0.68455547  0.69265674  0.18849375  1
  Zn  Zn89  1  0.67980700  0.68660896  0.68183949  1
  Zn  Zn90  1  0.30366871  0.31347386  0.31596262  1
  Zn  Zn91  1  0.32480816  0.31072773  0.81672817  1
  Zn  Zn92  1  0.31753313  0.81568435  0.30815178  1
  Zn  Zn93  1  0.30976446  0.81322840  0.80842495  1
  Zn  Zn94  1  0.80189311  0.32532930  0.31142071  1
  Zn  Zn95  1  0.82229178  0.30578628  0.81351772  1
  Zn  Zn96  1  0.82631457  0.81350685  0.27998425  1
  Zn  Zn97  1  0.80230641  0.80811564  0.81263302  1
  Zn  Zn98  1  0.16110195  0.40416825  0.46424730  1
  Zn  Zn99  1  0.18994514  0.43714718  0.93823262  1
  Zn  Zn100  1  0.18852985  0.93290619  0.42974985  1
  Zn  Zn101  1  0.17788529  0.93213381  0.94144369  1
  Zn  Zn102  1  0.68983703  0.44553246  0.43383524  1
  Zn  Zn103  1  0.68618348  0.44046762  0.93297571  1
  Zn  Zn104  1  0.69160762  0.93327080  0.44462505  1
  Zn  Zn105  1  0.69920321  0.94505526  0.93319252  1
  Zn  Zn106  1  0.31971290  0.06170907  0.05981756  1
  Zn  Zn107  1  0.31035959  0.05641721  0.56392366  1
  Zn  Zn108  1  0.30925333  0.56457440  0.06404901  1
  Zn  Zn109  1  0.30976856  0.56058192  0.55643805  1
  Zn  Zn110  1  0.80472495  0.08470699  0.07732453  1
  Zn  Zn111  1  0.81223295  0.06958519  0.55053183  1
  Zn  Zn112  1  0.81146397  0.59010665  0.06497319  1
  Zn  Zn113  1  0.80747258  0.55900267  0.56968450  1
  Zn  Zn114  1  0.44279387  0.43990670  0.18858349  1
  Zn  Zn115  1  0.45189947  0.44045949  0.69119312  1
  Zn  Zn116  1  0.45006555  0.92512238  0.15128155  1
  Zn  Zn117  1  0.42954364  0.94926630  0.68059129  1
  Zn  Zn118  1  0.93195446  0.43693645  0.17231620  1
  Zn  Zn119  1  0.93174516  0.43496534  0.70309317  1
  Zn  Zn120  1  0.92590061  0.92518627  0.19758436  1
  Zn  Zn121  1  0.90761436  0.89007029  0.72085587  1
  Zn  Zn122  1  0.07191858  0.04629075  0.30660943  1
  Zn  Zn123  1  0.06190892  0.05875788  0.82631954  1
  Zn  Zn124  1  0.04161624  0.55256979  0.31630335  1
  Zn  Zn125  1  0.06042470  0.56534774  0.82056408  1
  Zn  Zn126  1  0.55441876  0.05761070  0.30922620  1
  Zn  Zn127  1  0.56539889  0.05517730  0.80955075  1
  Zn  Zn128  1  0.56413888  0.56988431  0.31450022  1
  Zn  Zn129  1  0.55874743  0.56754789  0.80882820  1
  Zn  Zn130  1  0.41300659  0.16778107  0.44755605  1
  Zn  Zn131  1  0.45136856  0.13475166  0.91636443  1
  Zn  Zn132  1  0.43586006  0.69761840  0.44754223  1
  Zn  Zn133  1  0.43916717  0.69328454  0.93256265  1
  Zn  Zn134  1  0.92924993  0.19339230  0.42706076  1
  Zn  Zn135  1  0.94470490  0.19148810  0.94335376  1
  Zn  Zn136  1  0.93288205  0.66149264  0.43462301  1
  Zn  Zn137  1  0.95768993  0.72219551  0.97883079  1
  Zn  Zn138  1  0.06513402  0.30415874  0.07498993  1
  Zn  Zn139  1  0.03615106  0.28384153  0.52958210  1
  Zn  Zn140  1  0.06826740  0.81295940  0.05954776  1
  Zn  Zn141  1  0.06068731  0.81385852  0.55701868  1
  Zn  Zn142  1  0.53300326  0.28210934  -0.00509675  1
  Zn  Zn143  1  0.56254394  0.31104540  0.55526773  1
  Zn  Zn144  1  0.56544100  0.81333659  0.05586068  1
  Zn  Zn145  1  0.56577379  0.81781517  0.57664607  1
  O  O146  1  0.13722364  0.12813652  0.11873059  1
  O  O147  1  0.14369931  0.11510696  0.61192123  1
  O  O148  1  0.12977584  0.61018025  0.12482168  1
  O  O149  1  0.11985070  0.61680470  0.62933942  1
  O  O150  1  0.62101836  0.13355360  0.12579084  1
  O  O151  1  0.62074496  0.12190624  0.61594541  1
  O  O152  1  0.61659818  0.62109765  0.11392305  1
  O  O153  1  0.61271548  0.61443489  0.61788675  1
  O  O154  1  0.37542050  0.38571569  0.37979733  1
  O  O155  1  0.36745229  0.38996810  0.88949398  1
  O  O156  1  0.38380005  0.88504787  0.37228315  1
  O  O157  1  0.38459002  0.88324376  0.85994972  1
  O  O158  1  0.86642536  0.40446010  0.36899195  1
  O  O159  1  0.89702793  0.37339603  0.88134619  1
  O  O160  1  0.88416937  0.88339810  0.36984682  1
  O  O161  1  0.86928842  0.88034996  0.87536425  1
  O  O162  1  0.27170321  -0.00090050  0.38302976  1
  O  O163  1  0.25932976  -0.02312608  0.87357239  1
  O  O164  1  0.26615279  0.50228184  0.37502834  1
  O  O165  1  0.26326018  0.51336745  0.88250222  1
  O  O166  1  0.75697791  0.00664750  0.37447988  1
  O  O167  1  0.75473518  0.02545681  0.88052469  1
  O  O168  1  0.75029365  0.51654591  0.36926629  1
  O  O169  1  0.75779506  0.51920589  0.88471086  1
  O  O170  1  0.24143300  0.49598645  0.12732059  1
  O  O171  1  0.24391475  0.49490094  0.62856123  1
  O  O172  1  0.25663395  0.98453305  0.12014073  1
  O  O173  1  0.23439862  0.98597348  0.61330745  1
  O  O174  1  0.73663905  0.51447828  0.11338652  1
  O  O175  1  0.73063815  0.49901857  0.62823891  1
  O  O176  1  0.74367167  1.00880278  0.14430761  1
  O  O177  1  0.74071908  1.01148999  0.62191194  1
  O  O178  1  0.00927329  0.38640080  0.25309977  1
  O  O179  1  0.01798448  0.36364400  0.75382320  1
  O  O180  1  0.00930079  0.87464649  0.26672061  1
  O  O181  1  -0.00670445  0.85587857  0.78651482  1
  O  O182  1  0.52055802  0.38760442  0.25378261  1
  O  O183  1  0.44325910  0.33645533  0.73638453  1
  O  O184  1  0.49613002  0.85886100  0.24019845  1
  O  O185  1  0.47948186  0.84874964  0.66290496  1
  O  O186  1  0.49347626  0.12777365  0.23414056  1
  O  O187  1  0.51985774  0.14409460  0.73731690  1
  O  O188  1  0.49123205  0.63342382  0.24241039  1
  O  O189  1  0.48870904  0.62772218  0.73782106  1
  O  O190  1  1.00150251  0.07600251  0.19942097  1
  O  O191  1  1.01107122  0.13442949  0.74676254  1
  O  O192  1  1.01263601  0.63432762  0.23783133  1
  O  O193  1  0.99443927  0.63090011  0.74728833  1
  O  O194  1  0.36397146  0.26404093  0.01124807  1
  O  O195  1  0.38235910  0.27220273  0.49826294  1
  O  O196  1  0.36972512  0.74512844  0.00886816  1
  O  O197  1  0.36031741  0.74644855  0.52685002  1
  O  O198  1  0.86885586  0.25000256  0.00719219  1
  O  O199  1  0.85221147  0.24641456  0.49347261  1
  O  O200  1  0.84894285  0.74075881  -0.00631786  1
  O  O201  1  0.86834125  0.71919011  0.51106917  1
  O  O202  1  0.14399388  0.28782790  0.49402842  1
  O  O203  1  0.14148113  0.24652476  1.00051140  1
  O  O204  1  0.13078357  0.73230831  0.49892831  1
  O  O205  1  0.14412597  0.73886779  0.99148532  1
  O  O206  1  0.62607232  0.23878416  0.48663825  1
  O  O207  1  0.63671472  0.23556450  0.99954975  1
  O  O208  1  0.62271846  0.73759164  0.51456883  1
  O  O209  1  0.62586738  0.74285403  0.98967895  1
  O  O210  1  0.49364646  0.24062137  0.10924539  1
  O  O211  1  0.48577433  0.23964704  0.61584022  1
  O  O212  1  0.49313288  0.73977174  0.13070733  1
  O  O213  1  0.48838207  0.72488083  0.60346749  1
  O  O214  1  0.99668545  0.24531901  0.14131288  1
  O  O215  1  1.01767223  0.24778502  0.63640685  1
  O  O216  1  1.01099021  0.71455875  0.08844530  1
  O  O217  1  0.99036872  0.73572391  0.61360329  1
  O  O218  1  0.01038075  0.26949844  0.40966055  1
  O  O219  1  0.01661401  0.26018788  0.86884641  1
  O  O220  1  -0.01459202  0.75714774  0.38900450  1
  O  O221  1  0.02410212  0.71495095  0.88421581  1
  O  O222  1  0.50508400  0.24123214  0.37811039  1
  O  O223  1  0.48288418  0.24135154  0.90025430  1
  O  O224  1  0.48858587  0.76481489  0.36427367  1
  O  O225  1  0.51706299  0.74893644  0.87447791  1
  O  O226  1  0.29987876  0.13682372  0.48570350  1
  O  O227  1  0.25165175  0.14205034  1.00788273  1
  O  O228  1  0.23610940  0.63225462  0.50703538  1
  O  O229  1  0.26306452  0.63447804  0.98392226  1
  O  O230  1  0.73377258  0.13070796  0.48668690  1
  O  O231  1  0.74529937  0.13619916  0.99249413  1
  O  O232  1  0.73417046  0.62200236  0.50812486  1
  O  O233  1  0.73443515  0.63464656  0.98906368  1
  O  O234  1  0.25906574  0.37633209  0.01203457  1
  O  O235  1  0.26641959  0.38707238  0.51432940  1
  O  O236  1  0.24405152  0.85770855  0.01595140  1
  O  O237  1  0.23510452  0.85704013  0.50478915  1
  O  O238  1  0.74820101  0.36261333  -0.01586918  1
  O  O239  1  0.73921412  0.36065347  0.48896544  1
  O  O240  1  0.74338596  0.86280075  -0.00330232  1
  O  O241  1  0.76351322  0.89065687  0.52161096  1
  O  O242  1  0.12127456  0.49411410  0.23919869  1
  O  O243  1  0.12169889  0.49054885  0.74618844  1
  O  O244  1  0.13552478  0.96998890  0.25538181  1
  O  O245  1  0.11477551  1.01079841  0.73071509  1
  O  O246  1  0.62476502  0.51685590  0.23058301  1
  O  O247  1  0.60662022  0.49702744  0.73523916  1
  O  O248  1  0.63442518  1.00520781  0.24278926  1
  O  O249  1  0.63602590  1.00580994  0.73881919  1
  O  O250  1  0.38485923  0.00050178  0.22434169  1
  O  O251  1  0.37471592  0.00927223  0.75851387  1
  O  O252  1  0.38089397  0.51556996  0.25587346  1
  O  O253  1  0.38548000  0.50745818  0.76319750  1
  O  O254  1  0.85826092  0.00008900  0.26481845  1
  O  O255  1  0.90879629  0.00516439  0.72771198  1
  O  O256  1  0.85272468  0.49317195  0.23522831  1
  O  O257  1  0.88175984  0.52640619  0.76261323  1
  O  O258  1  0.13608126  0.38392216  0.35378685  1
  O  O259  1  0.12665547  0.36837999  0.86910558  1
  O  O260  1  0.11268219  0.86532626  0.37013379  1
  O  O261  1  0.12052315  0.85255276  0.88335720  1
  O  O262  1  0.61484286  0.35488340  0.37570429  1
  O  O263  1  0.61998962  0.37229448  0.85127893  1
  O  O264  1  0.61242931  0.87971995  0.38282078  1
  O  O265  1  0.62477121  0.87287122  0.87558692  1
  O  O266  1  0.38842132  0.13255086  0.12880002  1
  O  O267  1  0.38987499  0.11564059  0.64404050  1
  O  O268  1  0.38321558  0.62887815  0.13252388  1
  O  O269  1  0.38213529  0.60861068  0.63363372  1
  O  O270  1  0.86342563  0.15284259  0.13980790  1
  O  O271  1  0.88824689  0.12197123  0.61961867  1
  O  O272  1  0.88512031  0.62652897  0.14130375  1
  O  O273  1  0.88341859  0.62627520  0.63821395  1
  O  O274  1  0.25999215  0.26528789  0.11687376  1
  O  O275  1  0.27472308  0.26591425  0.62571945  1
  O  O276  1  0.25676096  0.73666814  0.11056590  1
  O  O277  1  0.23531343  0.76384273  0.61747434  1
  O  O278  1  0.74996160  0.25675170  0.10922455  1
  O  O279  1  0.73653625  0.24998662  0.60620507  1
  O  O280  1  0.73867017  0.74641847  0.10824670  1
  O  O281  1  0.75541156  0.75752074  0.62140229  1
  O  O282  1  0.24684635  0.24067436  0.37839673  1
  O  O283  1  0.24722569  0.26180387  0.89488219  1
  O  O284  1  0.26814009  0.75153272  0.39405349  1
  O  O285  1  0.25129132  0.74315917  0.88364422  1
  O  O286  1  0.73620966  0.23847016  0.37661712  1
  O  O287  1  0.76561043  0.23779059  0.88766441  1
  O  O288  1  0.78046233  0.71537770  0.32638223  1
  O  O289  1  0.73022898  0.74276002  0.87937301  1
  O  O290  1  0.02089254  0.13408957  0.00648742  1
  O  O291  1  0.00400638  0.11905458  0.48104082  1
  O  O292  1  -0.03881192  0.59169343  -0.00499537  1
  O  O293  1  0.01598178  0.61184094  0.51243894  1
  O  O294  1  0.51969161  0.11719065  0.01509761  1
  O  O295  1  0.50831880  0.12727649  0.51328791  1
  O  O296  1  0.50529369  0.62023960  0.00673903  1
  O  O297  1  0.50092864  0.61450079  0.50385924  1
  O  O298  1  0.49049242  0.38714554  0.49582628  1
  O  O299  1  0.48825429  0.38834066  1.00616742  1
  O  O300  1  0.50007612  0.86576259  0.49191845  1
  O  O301  1  0.48536425  0.88750410  1.04444296  1
  O  O302  1  0.98679398  0.38892807  0.54064180  1
  O  O303  1  1.01550438  0.36645208  0.99002050  1
  O  O304  1  1.00464596  0.88786688  0.48309007  1
  O  O305  1  0.99274191  0.84225292  0.97867707  1
  O  O306  1  0.49349067  0.50085155  0.38170858  1
  O  O307  1  0.49131823  0.50945248  0.88812924  1
  O  O308  1  0.49280096  0.98105219  0.37006541  1
  O  O309  1  0.48406251  1.02428380  0.87885833  1
  O  O310  1  1.01499487  0.47441393  0.40804651  1
  O  O311  1  1.00624917  0.48053818  0.87254404  1
  O  O312  1  0.98770525  1.00027110  0.37356568  1
  O  O313  1  1.00230830  0.98647151  0.88750983  1
  O  O314  1  -0.01065130  0.01943766  0.15117305  1
  O  O315  1  0.01524561  0.01528655  0.60280862  1
  O  O316  1  0.00878875  0.51403188  0.12583661  1
  O  O317  1  0.00648697  0.51045353  0.63190578  1
  O  O318  1  0.52430473  0.01727236  0.13101060  1
  O  O319  1  0.51606587  0.01676313  0.63588041  1
  O  O320  1  0.50437997  0.51171854  0.11563115  1
  O  O321  1  0.50436446  0.50643897  0.61246743  1
  O  O322  1  0.24992228  0.38582834  0.23962861  1
  O  O323  1  0.24831847  0.37140650  0.74523995  1
  O  O324  1  0.24231199  0.86597740  0.23748428  1
  O  O325  1  0.23778660  0.86906346  0.73606511  1
  O  O326  1  0.71604118  0.38553460  0.26461068  1
  O  O327  1  0.66544300  0.33906404  0.79435921  1
  O  O328  1  0.74013087  0.89147783  0.26458427  1
  O  O329  1  0.78334873  0.88376011  0.72004327  1
  O  O330  1  0.28114773  0.12445068  0.24686152  1
  O  O331  1  0.24311084  0.11406585  0.74217802  1
  O  O332  1  0.26692348  0.62600598  0.24702591  1
  O  O333  1  0.26682237  0.63037607  0.76240088  1
  O  O334  1  0.73710401  0.11748024  0.26998430  1
  O  O335  1  0.75792403  0.13881998  0.76498292  1
  O  O336  1  0.76435075  0.66046989  0.27382664  1
  O  O337  1  0.74417566  0.62473482  0.75931325  1
  O  O338  1  0.39581949  0.09511669  0.35348078  1
  O  O339  1  0.34962037  0.11315378  0.86215238  1
  O  O340  1  0.38351487  0.62346804  0.36416249  1
  O  O341  1  0.37351822  0.62175281  0.86481461  1
  O  O342  1  0.85784023  0.11979740  0.37385417  1
  O  O343  1  0.88129607  0.12405597  0.87526773  1
  O  O344  1  0.91213429  0.58175657  0.35826560  1
  O  O345  1  0.85549582  0.64495404  0.85995960  1
  O  O346  1  0.13162279  0.38677989  0.13315867  1
  O  O347  1  0.14139767  0.38350914  0.63835031  1
  O  O348  1  0.13399660  0.87040254  0.13244585  1
  O  O349  1  0.12328024  0.88955937  0.61921569  1
  O  O350  1  0.62505831  0.39266482  0.13284278  1
  O  O351  1  0.61277567  0.38665858  0.62123032  1
  O  O352  1  0.62854785  0.89117890  0.12389377  1
  O  O353  1  0.64307902  0.89097782  0.62475220  1
  O  O354  1  0.12883740  0.27446464  0.24332360  1
  O  O355  1  0.12948850  0.25758201  0.75916647  1
  O  O356  1  0.12765613  0.76318524  0.25054730  1
  O  O357  1  0.12971670  0.74221720  0.76529602  1
  O  O358  1  0.62428245  0.25497279  0.25681853  1
  O  O359  1  0.62533666  0.27411973  0.75848530  1
  O  O360  1  0.60529276  0.74302403  0.25042951  1
  O  O361  1  0.62826643  0.75743180  0.75715677  1
  O  O362  1  0.37748099  0.26095766  0.23646633  1
  O  O363  1  0.36254140  0.22090455  0.75174748  1
  O  O364  1  0.38176068  0.73723926  0.24161555  1
  O  O365  1  0.36858454  0.74526837  0.72325214  1
  O  O366  1  0.87740994  0.26171599  0.25858816  1
  O  O367  1  0.90409696  0.24810731  0.74768302  1
  O  O368  1  0.88051299  0.82515696  0.18495156  1
  O  O369  1  0.86478041  0.73607149  0.73238799  1
  O  O370  1  0.38403365  0.49802094  0.49106344  1
  O  O371  1  0.38232538  0.49830508  0.99631248  1
  O  O372  1  0.38738767  0.99495885  0.49644891  1
  O  O373  1  0.37559571  1.00384891  0.98043090  1
  O  O374  1  0.89186192  0.51191744  0.51039971  1
  O  O375  1  0.89484536  0.54766257  0.98737231  1
  O  O376  1  0.88694641  1.00748046  0.48181395  1
  O  O377  1  0.87579618  0.99843535  1.02101584  1
  O  O378  1  0.13596901  0.01974016  -0.00173068  1
  O  O379  1  0.11337543  0.00565235  0.48375247  1
  O  O380  1  0.12744642  0.49610383  0.01336722  1
  O  O381  1  0.12014537  0.50228015  0.52157200  1
  O  O382  1  0.63964761  0.01545519  0.01872339  1
  O  O383  1  0.62529758  0.01367513  0.50668270  1
  O  O384  1  0.61626069  0.50731751  0.00475497  1
  O  O385  1  0.61497071  0.50592661  0.50436904  1
  O  O386  1  0.37098100  0.37653963  0.11976169  1
  O  O387  1  0.37356286  0.38151378  0.61566395  1
  O  O388  1  0.35283016  0.85533577  0.13469261  1
  O  O389  1  0.34373897  0.87837432  0.62154670  1
  O  O390  1  0.87881798  0.35211914  0.12374846  1
  O  O391  1  0.83567270  0.37625666  0.72420019  1
  O  O392  1  0.88958195  0.93624972  0.05892639  1
  O  O393  1  0.88172477  0.84753635  0.61199024  1
  O  O394  1  0.13566483  0.13514262  0.32943437  1
  O  O395  1  0.12649140  0.13958089  0.88520122  1
  O  O396  1  0.11997233  0.60908286  0.39073480  1
  O  O397  1  0.14811960  0.62402377  0.86932759  1
  O  O398  1  0.61944867  0.12809794  0.38419794  1
  O  O399  1  0.62494652  0.12077598  0.88850167  1
  O  O400  1  0.61875255  0.62943703  0.39278772  1
  O  O401  1  0.63119043  0.62408229  0.87950519  1
