# generated using pymatgen
data_V73Zn73O256
_symmetry_space_group_name_H-M   'P 1'
_cell_length_a   16.88006614
_cell_length_b   16.86798055
_cell_length_c   16.85998544
_cell_angle_alpha   90.24042801
_cell_angle_beta   89.76674569
_cell_angle_gamma   90.12174155
_symmetry_Int_Tables_number   1
_chemical_formula_structural   V73Zn73O256
_chemical_formula_sum   'V73 Zn73 O256'
_cell_volume   4800.49524184
_cell_formula_units_Z   1
loop_
 _symmetry_equiv_pos_site_id
 _symmetry_equiv_pos_as_xyz
  1  'x, y, z'
loop_
 _atom_site_type_symbol
 _atom_site_label
 _atom_site_symmetry_multiplicity
 _atom_site_fract_x
 _atom_site_fract_y
 _atom_site_fract_z
 _atom_site_occupancy
  V  V0  1  0.26774817  0.62568600  0.86742045  1
  V  V1  1  0.64482765  0.37658819  0.25111708  1
  V  V2  1  0.11469369  0.11278546  0.50593271  1
  V  V3  1  0.26197924  -0.00370974  0.25026190  1
  V  V4  1  -0.02695912  0.74888869  0.24961487  1
  V  V5  1  0.34651482  0.24647305  0.11865201  1
  V  V6  1  0.76244718  0.87780513  0.61177796  1
  V  V7  1  0.24562006  0.13391035  0.88582967  1
  V  V8  1  0.13292983  0.74162554  0.87679641  1
  V  V9  1  0.63687085  0.63211807  0.50925776  1
  V  V10  1  0.12321758  0.39266527  0.24400430  1
  V  V11  1  0.50468813  0.62564962  0.13868902  1
  V  V12  1  0.63398300  0.00430569  0.12523777  1
  V  V13  1  -0.00232129  0.37455591  0.85623169  1
  V  V14  1  0.62568199  0.75091468  0.37381382  1
  V  V15  1  0.74824448  -0.00723141  0.75325387  1
  V  V16  1  0.87536427  0.00282645  0.33626570  1
  V  V17  1  0.36505717  -0.00676283  0.87226651  1
  V  V18  1  0.63005660  0.24387007  0.37975978  1
  V  V19  1  0.00485517  0.00280379  0.00521763  1
  V  V20  1  0.37619051  0.74634654  0.64001449  1
  V  V21  1  0.62245755  0.65086865  -0.00437809  1
  V  V22  1  0.87112346  0.14392299  0.76111385  1
  V  V23  1  0.75791461  0.47149877  0.74173993  1
  V  V24  1  0.75086963  0.85744577  0.12454438  1
  V  V25  1  0.49896146  0.86881888  0.37110287  1
  V  V26  1  0.86135570  0.49925256  0.37276413  1
  V  V27  1  -0.00092208  0.13032585  0.64987770  1
  V  V28  1  0.50186087  0.49588479  0.49189395  1
  V  V29  1  0.24097943  0.74543574  0.49637535  1
  V  V30  1  0.37433429  0.87794218  0.49723361  1
  V  V31  1  0.73936886  0.11961914  0.89917456  1
  V  V32  1  0.36815793  0.85888132  0.00228436  1
  V  V33  1  0.58459545  0.26962113  0.87413059  1
  V  V34  1  0.75444204  0.12158368  0.35797295  1
  V  V35  1  0.87003278  0.85781955  0.00079019  1
  V  V36  1  0.25957805  0.11775791  0.37397071  1
  V  V37  1  0.74950837  0.62433484  0.36051902  1
  V  V38  1  0.12779407  -0.00670853  0.12624364  1
  V  V39  1  -0.00152986  0.38296174  0.38415976  1
  V  V40  1  0.12332761  0.24840671  0.37414060  1
  V  V41  1  0.37867290  0.25600526  0.62606419  1
  V  V42  1  0.37874996  0.74553932  0.14689420  1
  V  V43  1  0.50974354  0.00275944  0.49399907  1
  V  V44  1  0.24972188  0.61349944  0.36531717  1
  V  V45  1  0.85848864  0.24351496  0.11770393  1
  V  V46  1  0.36292905  0.12205887  0.74771105  1
  V  V47  1  0.25301046  0.25340124  0.49632135  1
  V  V48  1  0.87819020  -0.00473070  0.86994629  1
  V  V49  1  0.62567250  0.87233556  0.24960895  1
  V  V50  1  0.87435199  0.74883356  0.60513884  1
  V  V51  1  0.23612402  0.40396852  0.11346151  1
  V  V52  1  0.24752608  0.88729599  0.63167738  1
  V  V53  1  -0.00132817  0.23961845  0.23742850  1
  V  V54  1  0.12064526  0.26191729  0.86867679  1
  V  V55  1  0.50391398  0.12522469  0.62787619  1
  V  V56  1  0.85105917  0.35782024  0.50775019  1
  V  V57  1  0.12859810  0.88571369  0.74622329  1
  V  V58  1  0.25679643  0.50035255  0.74883799  1
  V  V59  1  0.13237451  0.62109341  0.00718786  1
  V  V60  1  0.61695006  -0.01846612  0.63856412  1
  V  V61  1  0.63475252  0.48761571  0.11145342  1
  V  V62  1  -0.02533994  0.62450457  0.12826352  1
  V  V63  1  0.22844485  0.37398184  0.62777566  1
  V  V64  1  0.11204139  0.51953791  0.62158485  1
  V  V65  1  0.48903511  0.12060248  0.13426048  1
  V  V66  1  -0.00151969  0.74280683  0.73906035  1
  V  V67  1  0.49835788  0.00217469  -0.00901669  1
  V  V68  1  0.49693659  0.25609887  0.24958516  1
  V  V69  1  0.87885529  0.50628396  0.87780302  1
  V  V70  1  0.00057926  0.86771306  0.87324187  1
  V  V71  1  0.63033913  0.48846209  0.63815116  1
  V  V72  1  0.12521406  0.86450557  0.25630108  1
  Zn  Zn73  1  0.10511350  0.62884354  0.49504843  1
  Zn  Zn74  1  0.49730668  0.63238161  0.62112612  1
  Zn  Zn75  1  0.86515368  0.62894209  0.74461453  1
  Zn  Zn76  1  0.37887117  0.50212584  0.35444842  1
  Zn  Zn77  1  -0.01008927  0.87689717  0.38897292  1
  Zn  Zn78  1  0.86746969  0.37324418  0.00906222  1
  Zn  Zn79  1  0.40299309  0.39808191  0.97629479  1
  Zn  Zn80  1  0.00550456  0.49302369  0.01644096  1
  Zn  Zn81  1  0.12759916  0.14430870  0.01786410  1
  Zn  Zn82  1  0.17588243  0.17637336  0.19786950  1
  Zn  Zn83  1  0.18711844  0.18469331  0.68862053  1
  Zn  Zn84  1  0.20004228  0.68692742  0.18536722  1
  Zn  Zn85  1  0.19240525  0.69260321  0.68843978  1
  Zn  Zn86  1  0.68336559  0.18847308  0.18446510  1
  Zn  Zn87  1  0.68664874  0.19576151  0.71097067  1
  Zn  Zn88  1  0.68273091  0.68386631  0.18609682  1
  Zn  Zn89  1  0.69062838  0.69667321  0.69181659  1
  Zn  Zn90  1  0.33633725  0.35798490  0.27160047  1
  Zn  Zn91  1  0.31975754  0.31142642  0.81165985  1
  Zn  Zn92  1  0.30831669  0.81274277  0.31880879  1
  Zn  Zn93  1  0.44357164  0.81538134  0.81524828  1
  Zn  Zn94  1  0.81814943  0.30425867  0.31110216  1
  Zn  Zn95  1  0.79586472  0.31336151  0.85311796  1
  Zn  Zn96  1  0.80341469  0.81943716  0.32030392  1
  Zn  Zn97  1  0.79994567  0.79742074  0.80124906  1
  Zn  Zn98  1  0.18704723  0.43857069  0.44104156  1
  Zn  Zn99  1  0.18811761  0.44292484  0.93085596  1
  Zn  Zn100  1  0.18247821  0.93290269  0.43570149  1
  Zn  Zn101  1  0.19166043  0.92925132  0.93776139  1
  Zn  Zn102  1  0.68063397  0.43438993  0.43903638  1
  Zn  Zn103  1  0.68053009  0.42831402  0.92532928  1
  Zn  Zn104  1  0.74548612  1.00251120  0.48362776  1
  Zn  Zn105  1  0.68886272  0.94634533  0.94703244  1
  Zn  Zn106  1  0.31187890  0.05737732  0.06482018  1
  Zn  Zn107  1  0.31408266  0.06441468  0.55470370  1
  Zn  Zn108  1  0.32251342  0.57222101  0.05855971  1
  Zn  Zn109  1  0.30922874  0.56551270  0.56134499  1
  Zn  Zn110  1  0.82694182  0.05811452  0.07696166  1
  Zn  Zn111  1  0.80705704  0.15620248  0.55703613  1
  Zn  Zn112  1  0.79806249  0.57143286  0.05440508  1
  Zn  Zn113  1  0.82235665  0.55577810  0.55648714  1
  Zn  Zn114  1  0.44879878  0.42963547  0.15665217  1
  Zn  Zn115  1  0.42319166  0.46229536  0.64514407  1
  Zn  Zn116  1  0.43893369  0.92999296  0.18382579  1
  Zn  Zn117  1  0.43341501  0.93541396  0.68962851  1
  Zn  Zn118  1  0.93232561  0.43042416  0.19083788  1
  Zn  Zn119  1  0.93630335  0.43304372  0.67992777  1
  Zn  Zn120  1  0.94136098  0.92668871  0.18102764  1
  Zn  Zn121  1  0.93090435  0.96855430  0.54790272  1
  Zn  Zn122  1  0.06550284  0.05829084  0.31440336  1
  Zn  Zn123  1  0.06259518  0.06292236  0.81948959  1
  Zn  Zn124  1  0.05843050  0.57395739  0.31746936  1
  Zn  Zn125  1  0.06592253  0.55843450  0.80103025  1
  Zn  Zn126  1  0.56623673  0.06043419  0.30798350  1
  Zn  Zn127  1  0.56618572  0.08915130  0.80880658  1
  Zn  Zn128  1  0.56699018  0.55719201  0.31083305  1
  Zn  Zn129  1  0.71790497  0.61716331  0.86731862  1
  Zn  Zn130  1  0.44064507  0.19111895  0.43718620  1
  Zn  Zn131  1  0.43506433  0.18346710  0.94492337  1
  Zn  Zn132  1  0.43536572  0.68336857  0.43965605  1
  Zn  Zn133  1  0.45883116  0.58341230  0.93356837  1
  Zn  Zn134  1  0.93443062  0.18490352  0.42919161  1
  Zn  Zn135  1  0.94109397  0.18764344  0.94003572  1
  Zn  Zn136  1  0.93956885  0.68521894  0.42993099  1
  Zn  Zn137  1  0.94683002  0.68108504  0.93810421  1
  Zn  Zn138  1  0.05708667  0.31911331  0.05186994  1
  Zn  Zn139  1  0.05559351  0.30245498  0.56194941  1
  Zn  Zn140  1  0.06420784  0.80701359  0.06785931  1
  Zn  Zn141  1  0.05921389  0.82270738  0.56032605  1
  Zn  Zn142  1  0.56471154  0.30955044  0.06053812  1
  Zn  Zn143  1  0.56893414  0.31112396  0.56468741  1
  Zn  Zn144  1  0.54922756  0.81622978  0.06021861  1
  Zn  Zn145  1  0.55974191  0.81057559  0.56068494  1
  O  O146  1  0.12750589  0.10177549  0.12341823  1
  O  O147  1  0.11655295  0.13012309  0.61588467  1
  O  O148  1  0.13538931  0.63069673  0.10738149  1
  O  O149  1  0.12744144  0.62281875  0.62018496  1
  O  O150  1  0.61798677  0.10639936  0.12856459  1
  O  O151  1  0.60327111  0.11926626  0.63278933  1
  O  O152  1  0.62526548  0.62038443  0.11121822  1
  O  O153  1  0.63171847  0.63040751  0.61669179  1
  O  O154  1  0.36729391  0.38808198  0.37463681  1
  O  O155  1  0.36403104  0.39111410  0.87328384  1
  O  O156  1  0.38727479  0.86954677  0.38468196  1
  O  O157  1  0.37675451  0.88955171  0.88293596  1
  O  O158  1  0.88302614  0.37342267  0.38400465  1
  O  O159  1  0.88996034  0.39052007  0.86273484  1
  O  O160  1  0.87110688  0.89831756  0.36456433  1
  O  O161  1  0.88065212  0.87601941  0.88376164  1
  O  O162  1  0.24657040  0.00966985  0.36999824  1
  O  O163  1  0.26072918  0.00810061  0.88057330  1
  O  O164  1  0.25374461  0.50939592  0.38199748  1
  O  O165  1  0.24660793  0.51117773  0.85710024  1
  O  O166  1  0.76370173  0.00961923  0.36358567  1
  O  O167  1  0.76249219  -0.00394618  0.87260938  1
  O  O168  1  0.75144243  0.50905149  0.37711640  1
  O  O169  1  0.76290310  0.50392025  0.85307230  1
  O  O170  1  0.25249702  0.50172344  0.12170262  1
  O  O171  1  0.24200803  0.48625665  0.62500653  1
  O  O172  1  0.24580035  1.00059128  0.14207693  1
  O  O173  1  0.25408488  0.98570568  0.61874677  1
  O  O174  1  0.73366255  0.50737116  0.12419034  1
  O  O175  1  0.74574160  0.50082919  0.63343300  1
  O  O176  1  0.73593720  0.99119104  0.11622934  1
  O  O177  1  0.72972810  0.99049130  0.63446480  1
  O  O178  1  0.01103251  0.36526120  0.25896493  1
  O  O179  1  0.00291737  0.37623252  0.75643711  1
  O  O180  1  0.00918996  0.85715067  0.24206451  1
  O  O181  1  0.01515108  0.86392783  0.76196185  1
  O  O182  1  0.51049004  0.35611064  0.24052140  1
  O  O183  1  0.47516389  0.43931743  0.82039307  1
  O  O184  1  0.50812793  0.87963721  0.26255656  1
  O  O185  1  0.50522787  0.88728090  0.75775290  1
  O  O186  1  0.49795701  0.12346908  0.23920309  1
  O  O187  1  0.48021915  0.11568751  0.73334112  1
  O  O188  1  0.52261762  0.63327413  0.23925641  1
  O  O189  1  0.54720517  0.69083863  0.77705512  1
  O  O190  1  1.01113069  0.14168035  0.25514668  1
  O  O191  1  0.98873273  0.12666508  0.75842637  1
  O  O192  1  0.99492207  0.63742645  0.24168894  1
  O  O193  1  0.99890663  0.64125952  0.74808755  1
  O  O194  1  0.37219159  0.24686196  0.02067487  1
  O  O195  1  0.36339188  0.24089588  0.51300755  1
  O  O196  1  0.38489971  0.76428651  -0.01546420  1
  O  O197  1  0.36661153  0.76256388  0.50797907  1
  O  O198  1  0.88264260  0.25009878  0.01243355  1
  O  O199  1  0.86703705  0.25249507  0.49508525  1
  O  O200  1  0.87642640  0.75916165  -0.00976681  1
  O  O201  1  0.87520858  0.75037531  0.50688128  1
  O  O202  1  0.13418894  0.24445843  0.49152967  1
  O  O203  1  0.11831623  0.24958469  0.98009521  1
  O  O204  1  0.13857512  0.75406528  0.50824001  1
  O  O205  1  0.11980203  0.74031836  0.98463833  1
  O  O206  1  0.61167227  0.25131360  0.47835021  1
  O  O207  1  0.60721554  0.25154280  0.97332772  1
  O  O208  1  0.62533111  0.73872873  0.49310401  1
  O  O209  1  0.61929001  0.75162448  0.99768404  1
  O  O210  1  0.51358242  0.22705851  0.13530693  1
  O  O211  1  0.48854396  0.23585862  0.61365582  1
  O  O212  1  0.49237738  0.74056905  0.12673551  1
  O  O213  1  0.48322191  0.75078728  0.62248037  1
  O  O214  1  1.01752851  0.25017715  0.13774076  1
  O  O215  1  0.99696595  0.22931546  0.62076867  1
  O  O216  1  1.00184527  0.73632846  0.13666919  1
  O  O217  1  0.98712090  0.75816446  0.63145314  1
  O  O218  1  0.00735452  0.25979513  0.36673267  1
  O  O219  1  0.00726663  0.26341584  0.87278057  1
  O  O220  1  -0.01149608  0.75539400  0.35469139  1
  O  O221  1  0.00743758  0.75334328  0.86533038  1
  O  O222  1  0.50765477  0.23804473  0.35629931  1
  O  O223  1  0.48152539  0.25995809  0.87450714  1
  O  O224  1  0.51110168  0.75863867  0.38440302  1
  O  O225  1  0.50010590  0.71352238  0.83841604  1
  O  O226  1  0.23939247  0.13051080  0.49318761  1
  O  O227  1  0.24781524  0.12008760  0.98890015  1
  O  O228  1  0.24660022  0.63956135  0.50207648  1
  O  O229  1  0.23899094  0.61856369  0.97901970  1
  O  O230  1  0.73468158  0.11829687  0.47106429  1
  O  O231  1  0.76152145  0.10861464  0.99621892  1
  O  O232  1  0.73811277  0.61885397  0.49387933  1
  O  O233  1  0.73032194  0.62993242  0.98603505  1
  O  O234  1  0.23920161  0.38484537  0.01337732  1
  O  O235  1  0.24495564  0.36436642  0.51472973  1
  O  O236  1  0.26733782  0.87511538  0.00120271  1
  O  O237  1  0.25329356  0.86850685  0.50565289  1
  O  O238  1  0.76837671  0.36553417  -0.04700718  1
  O  O239  1  0.75106997  0.36763736  0.50086911  1
  O  O240  1  0.76270818  0.87651870  0.00827877  1
  O  O241  1  0.74113311  0.88965418  0.51446185  1
  O  O242  1  0.11371151  0.49049681  0.25478928  1
  O  O243  1  0.14172004  0.50580421  0.73103030  1
  O  O244  1  0.12828825  0.98911184  0.24269680  1
  O  O245  1  0.12082844  0.98386220  0.75833607  1
  O  O246  1  0.62738010  0.47946077  0.25177486  1
  O  O247  1  0.65174486  0.50447352  0.74242596  1
  O  O248  1  0.62012433  0.98543910  0.23452930  1
  O  O249  1  0.63017686  1.00770792  0.74226239  1
  O  O250  1  0.36083848  -0.01086701  0.24826467  1
  O  O251  1  0.37375854  0.00556589  0.76604450  1
  O  O252  1  0.38422206  0.46455618  0.24508344  1
  O  O253  1  0.35540367  0.50503693  0.72784954  1
  O  O254  1  0.87472569  0.00183710  0.23590453  1
  O  O255  1  0.86981806  0.00229291  0.76627544  1
  O  O256  1  0.87133938  0.48430268  0.27352594  1
  O  O257  1  0.86426264  0.50611083  0.74510127  1
  O  O258  1  0.11667372  0.37142406  0.36880484  1
  O  O259  1  0.11710139  0.36962765  0.87236346  1
  O  O260  1  0.11034281  0.88150243  0.36026130  1
  O  O261  1  0.12378262  0.86105842  0.86803779  1
  O  O262  1  0.63033492  0.35983417  0.36198860  1
  O  O263  1  0.61209940  0.36636184  0.85528354  1
  O  O264  1  0.61889282  0.86468394  0.36619940  1
  O  O265  1  0.65129614  0.85504153  0.87290346  1
  O  O266  1  0.38260190  0.13146623  0.12765873  1
  O  O267  1  0.37350407  0.13035980  0.63041432  1
  O  O268  1  0.39612631  0.62881642  0.13202829  1
  O  O269  1  0.37285815  0.64172768  0.62739024  1
  O  O270  1  0.88184642  0.14262289  0.12675636  1
  O  O271  1  0.88220763  0.13623932  0.65633041  1
  O  O272  1  0.87674518  0.63106554  0.11603149  1
  O  O273  1  0.85998104  0.64525555  0.62499031  1
  O  O274  1  0.24857058  0.22643075  0.12333510  1
  O  O275  1  0.25482073  0.25948577  0.62059587  1
  O  O276  1  0.28233852  0.72886248  0.11710032  1
  O  O277  1  0.25913872  0.75997287  0.61706513  1
  O  O278  1  0.75799451  0.24658398  0.12201213  1
  O  O279  1  0.74010107  0.22288824  0.62113140  1
  O  O280  1  0.74569409  0.75917846  0.12113510  1
  O  O281  1  0.76122060  0.76941574  0.62882615  1
  O  O282  1  0.24058669  0.23766338  0.38265568  1
  O  O283  1  0.24391718  0.23979223  0.87500224  1
  O  O284  1  0.25355144  0.74188505  0.39148617  1
  O  O285  1  0.23543590  0.73454106  0.86626521  1
  O  O286  1  0.73971899  0.23891342  0.36905492  1
  O  O287  1  0.73450984  0.21854073  0.87853542  1
  O  O288  1  0.74181339  0.73611235  0.37400312  1
  O  O289  1  0.70251447  0.79831115  0.87493261  1
  O  O290  1  0.00953486  0.10421063  -0.01148473  1
  O  O291  1  0.01600268  0.12986656  0.49009479  1
  O  O292  1  0.00897545  0.62512956  0.01734827  1
  O  O293  1  -0.00569306  0.61843574  0.49526425  1
  O  O294  1  0.49438552  0.11028227  0.01622664  1
  O  O295  1  0.48922713  0.10833618  0.51040112  1
  O  O296  1  0.51702432  0.62722992  0.01975362  1
  O  O297  1  0.51774528  0.61808139  0.50184409  1
  O  O298  1  0.51438041  0.39736368  0.50883851  1
  O  O299  1  0.47325541  0.37550589  1.05858262  1
  O  O300  1  0.49607129  0.88392590  0.49330417  1
  O  O301  1  0.48560132  0.89334184  1.00147475  1
  O  O302  1  1.00221015  0.36943847  0.48462425  1
  O  O303  1  0.99192381  0.38438384  0.98347581  1
  O  O304  1  0.99473497  0.88919032  0.50157263  1
  O  O305  1  0.99185729  0.87220563  0.99224400  1
  O  O306  1  0.49827170  0.50633091  0.38925089  1
  O  O307  1  0.48829618  0.51189559  0.82516643  1
  O  O308  1  0.51311518  0.99220061  0.38905201  1
  O  O309  1  0.48775395  1.01662972  0.88808878  1
  O  O310  1  0.98968242  0.48682031  0.37237710  1
  O  O311  1  0.99172042  0.49365741  0.86524076  1
  O  O312  1  0.97783969  1.00384312  0.36433188  1
  O  O313  1  0.99786784  0.98503749  0.88344444  1
  O  O314  1  0.00640267  -0.00829742  0.10976372  1
  O  O315  1  -0.00632959  0.03399413  0.61906422  1
  O  O316  1  -0.01176476  0.51829068  0.13204808  1
  O  O317  1  0.01380340  0.50516505  0.63685644  1
  O  O318  1  0.50120803  0.00758706  0.12194940  1
  O  O319  1  0.50389878  0.00329778  0.62045069  1
  O  O320  1  0.52429413  0.51714976  0.13512193  1
  O  O321  1  0.52370400  0.51851383  0.64087312  1
  O  O322  1  0.22602911  0.37580518  0.23944551  1
  O  O323  1  0.25157549  0.38375323  0.73453023  1
  O  O324  1  0.23746353  0.88853190  0.26513010  1
  O  O325  1  0.23840242  0.87567253  0.73792299  1
  O  O326  1  0.74389434  0.36715823  0.24902475  1
  O  O327  1  0.75955933  0.37383574  0.75080013  1
  O  O328  1  0.74157000  0.87262000  0.23297562  1
  O  O329  1  0.75724248  0.88818951  0.73968518  1
  O  O330  1  0.24575787  0.11080122  0.26511775  1
  O  O331  1  0.25665479  0.12275324  0.76003262  1
  O  O332  1  0.24890766  0.62370146  0.26581791  1
  O  O333  1  0.24966895  0.61765532  0.75817500  1
  O  O334  1  0.74352718  0.12374424  0.25689701  1
  O  O335  1  0.76214230  0.10975302  0.76515995  1
  O  O336  1  0.74423617  0.62226298  0.26163145  1
  O  O337  1  0.76011961  0.67807914  0.78043300  1
  O  O338  1  0.35802236  0.12765581  0.38330320  1
  O  O339  1  0.36236084  0.12027333  0.87002779  1
  O  O340  1  0.36084805  0.61707909  0.38423966  1
  O  O341  1  0.36511962  0.62980933  0.87287896  1
  O  O342  1  0.86488627  0.11855332  0.36369753  1
  O  O343  1  0.87244351  0.11279148  0.87586735  1
  O  O344  1  0.85891606  0.61117332  0.37954979  1
  O  O345  1  0.88642952  0.61050549  0.86724740  1
  O  O346  1  0.12594644  0.38196556  0.13164938  1
  O  O347  1  0.12853351  0.37130862  0.62728585  1
  O  O348  1  0.12356505  0.88203782  0.13664906  1
  O  O349  1  0.13385763  0.87226968  0.63696816  1
  O  O350  1  0.62822680  0.38045149  0.13561039  1
  O  O351  1  0.62090809  0.38937974  0.63290436  1
  O  O352  1  0.63262687  0.87602904  0.12941241  1
  O  O353  1  0.62441798  0.87942034  0.63064225  1
  O  O354  1  0.12042476  0.25620402  0.26162316  1
  O  O355  1  0.12896172  0.24317626  0.76902618  1
  O  O356  1  0.13780194  0.76492097  0.24562464  1
  O  O357  1  0.11608229  0.75455323  0.75628139  1
  O  O358  1  0.61793457  0.25711897  0.25372128  1
  O  O359  1  0.60664159  0.20633690  0.78777529  1
  O  O360  1  0.62918439  0.75964044  0.26009132  1
  O  O361  1  0.59730399  0.74814505  0.75228396  1
  O  O362  1  0.39002590  0.25465469  0.23008173  1
  O  O363  1  0.36765639  0.23885580  0.73324043  1
  O  O364  1  0.37511525  0.75563775  0.24625301  1
  O  O365  1  0.36985549  0.76033870  0.73863408  1
  O  O366  1  0.89235984  0.25397580  0.23758157  1
  O  O367  1  0.86329491  0.24001592  0.78057424  1
  O  O368  1  0.87459689  0.75711588  0.24488552  1
  O  O369  1  0.89340778  0.75765197  0.74621769  1
  O  O370  1  0.40323371  0.50518119  0.53171680  1
  O  O371  1  0.38995524  0.51243270  0.99062796  1
  O  O372  1  0.38876070  0.98606273  0.50707258  1
  O  O373  1  0.38126735  0.99727204  0.99259351  1
  O  O374  1  0.86656450  0.47797260  0.48367986  1
  O  O375  1  0.87138816  0.50447007  0.98202896  1
  O  O376  1  0.84886616  1.04202820  0.52521513  1
  O  O377  1  0.89129093  0.98824397  0.99515843  1
  O  O378  1  0.11395464  -0.01501208  0.00498145  1
  O  O379  1  0.12742234  0.01388751  0.49714970  1
  O  O380  1  0.11814427  0.51851407  -0.01184460  1
  O  O381  1  0.12792133  0.50053948  0.51928473  1
  O  O382  1  0.60711295  -0.01342705  0.01603311  1
  O  O383  1  0.61175315  -0.00147393  0.52218468  1
  O  O384  1  0.62509150  0.48167458  0.01047024  1
  O  O385  1  0.62061616  0.51031839  0.51361292  1
  O  O386  1  0.33408009  0.35615213  0.13350034  1
  O  O387  1  0.38059934  0.35703897  0.62884626  1
  O  O388  1  0.38318420  0.85484659  0.11537255  1
  O  O389  1  0.36274615  0.86967963  0.62048995  1
  O  O390  1  0.88256871  0.35618148  0.12272191  1
  O  O391  1  0.87754240  0.37411756  0.60414014  1
  O  O392  1  0.86364146  0.87252795  0.11210054  1
  O  O393  1  0.86562211  0.87355557  0.61437560  1
  O  O394  1  0.13222899  0.13145195  0.38412204  1
  O  O395  1  0.13802000  0.12798523  0.87718998  1
  O  O396  1  0.14032293  0.62052486  0.38309201  1
  O  O397  1  0.11921330  0.63480565  0.87682035  1
  O  O398  1  0.63110080  0.13566077  0.36418777  1
  O  O399  1  0.64234820  0.08657183  0.89410801  1
  O  O400  1  0.63499135  0.62905261  0.38269766  1
  O  O401  1  0.60557353  0.61382897  0.89908000  1
