# generated using pymatgen
data_V73Zn73O256
_symmetry_space_group_name_H-M   'P 1'
_cell_length_a   16.89733195
_cell_length_b   16.90643257
_cell_length_c   16.88357602
_cell_angle_alpha   90.11685753
_cell_angle_beta   89.96557984
_cell_angle_gamma   90.06347806
_symmetry_Int_Tables_number   1
_chemical_formula_structural   V73Zn73O256
_chemical_formula_sum   'V73 Zn73 O256'
_cell_volume   4823.17813978
_cell_formula_units_Z   1
loop_
 _symmetry_equiv_pos_site_id
 _symmetry_equiv_pos_as_xyz
  1  'x, y, z'
loop_
 _atom_site_type_symbol
 _atom_site_label
 _atom_site_symmetry_multiplicity
 _atom_site_fract_x
 _atom_site_fract_y
 _atom_site_fract_z
 _atom_site_occupancy
  V  V0  1  0.44820269  -0.06090197  -0.06072695  1
  V  V1  1  0.12907024  0.74898787  0.88569764  1
  V  V2  1  0.62528466  0.11955940  0.01498691  1
  V  V3  1  0.76296697  0.25151046  -0.00766649  1
  V  V4  1  0.49257237  0.38375449  0.88316865  1
  V  V5  1  0.87744990  0.13282842  0.23435920  1
  V  V6  1  0.61711862  0.37030135  0.26387721  1
  V  V7  1  0.61668689  0.49449345  0.12118252  1
  V  V8  1  0.00638654  0.60924117  0.62747318  1
  V  V9  1  0.12749356  0.87554874  0.75142722  1
  V  V10  1  0.50106956  0.63317754  0.14108347  1
  V  V11  1  0.50022379  0.49874826  0.49378133  1
  V  V12  1  0.61701319  0.50677373  0.63170727  1
  V  V13  1  0.49382827  0.12201701  0.62802476  1
  V  V14  1  0.75153984  0.62044162  0.87453560  1
  V  V15  1  0.37708954  0.49469200  0.37569590  1
  V  V16  1  -0.00267135  0.87606600  0.37014098  1
  V  V17  1  0.76368708  0.39340384  0.61619419  1
  V  V18  1  0.87653680  0.61612200  0.75413021  1
  V  V19  1  0.50471015  0.85945904  0.37565715  1
  V  V20  1  0.86950324  0.00460940  0.86451075  1
  V  V21  1  0.37589791  0.86689294  0.50519547  1
  V  V22  1  0.37324439  0.76493798  0.12994115  1
  V  V23  1  0.73888471  0.13096677  0.37731539  1
  V  V24  1  0.25611527  0.76536426  0.00627126  1
  V  V25  1  0.36032245  0.62945822  0.25395934  1
  V  V26  1  0.12022980  0.61520972  0.49732393  1
  V  V27  1  0.11721810  0.01025598  0.61338415  1
  V  V28  1  0.25736320  0.00369244  0.75746213  1
  V  V29  1  0.22371857  0.15885859  0.39550799  1
  V  V30  1  0.09004101  0.27270158  0.37097480  1
  V  V31  1  0.37693775  -0.01214653  0.36216846  1
  V  V32  1  0.37774203  0.73549721  0.63156070  1
  V  V33  1  0.24464792  0.47434444  0.25868525  1
  V  V34  1  0.12338723  0.75603177  0.36984718  1
  V  V35  1  0.63113646  0.24733326  0.86623432  1
  V  V36  1  0.73360867  0.00431566  0.25003954  1
  V  V37  1  0.63395979  0.38031140  0.74385039  1
  V  V38  1  0.12210652  0.13184478  0.02100761  1
  V  V39  1  0.87969054  0.74521212  0.14355407  1
  V  V40  1  0.37631361  0.61091787  0.76239529  1
  V  V41  1  0.12746326  0.90149947  0.24109719  1
  V  V42  1  0.73975305  0.88340012  0.12536330  1
  V  V43  1  0.62480427  0.62931661  0.50363299  1
  V  V44  1  0.61580019  0.75418826  0.87533158  1
  V  V45  1  0.61650012  0.87092038  0.24951181  1
  V  V46  1  0.76285292  0.50693508  0.24981056  1
  V  V47  1  0.27531586  0.35586677  0.10523245  1
  V  V48  1  0.74853671  0.75050021  0.00191120  1
  V  V49  1  -0.00766009  0.23835218  0.74089490  1
  V  V50  1  0.01120084  0.37620035  0.87900905  1
  V  V51  1  0.12766360  0.23911983  0.86436356  1
  V  V52  1  0.50626481  -0.01305131  0.51077429  1
  V  V53  1  0.00027128  0.87706192  0.87808466  1
  V  V54  1  0.49527045  0.25675597  0.73932933  1
  V  V55  1  0.24038270  0.39615993  0.64872800  1
  V  V56  1  0.61284424  0.62451746  0.00096084  1
  V  V57  1  0.87186622  0.87973362  0.50350583  1
  V  V58  1  0.87885358  0.00669199  0.37959089  1
  V  V59  1  0.88005887  0.49519253  0.89361516  1
  V  V60  1  0.24671134  0.74083352  0.49782297  1
  V  V61  1  0.49801866  0.75637434  0.75118958  1
  V  V62  1  0.24986491  0.86913059  0.62762452  1
  V  V63  1  0.24585114  0.61042465  0.87909004  1
  V  V64  1  0.61726185  0.13139038  0.49575708  1
  V  V65  1  0.76123228  0.37372711  0.11418581  1
  V  V66  1  0.00400984  0.00552994  0.01383777  1
  V  V67  1  0.87199883  0.75626739  0.62712289  1
  V  V68  1  0.87322036  0.87642188  0.00446378  1
  V  V69  1  0.04371853  0.59020493  0.10890496  1
  V  V70  1  0.64481384  0.87675211  0.74426836  1
  V  V71  1  0.63089143  0.74326044  0.37124712  1
  V  V72  1  0.00296887  0.75157222  0.74860993  1
  Zn  Zn73  1  0.76548917  0.62373168  0.37235051  1
  Zn  Zn74  1  0.30942121  0.30284235  0.52890415  1
  Zn  Zn75  1  0.25427232  0.12698090  0.88610764  1
  Zn  Zn76  1  0.37682851  0.12424530  0.75171117  1
  Zn  Zn77  1  0.75601410  0.11227142  0.83013918  1
  Zn  Zn78  1  0.87595301  0.26351577  0.62465572  1
  Zn  Zn79  1  0.75118173  0.75207700  0.50349655  1
  Zn  Zn80  1  0.64391288  0.00028034  0.63259448  1
  Zn  Zn81  1  0.72043535  0.27648287  0.49190507  1
  Zn  Zn82  1  0.23025992  0.16923299  0.20375986  1
  Zn  Zn83  1  0.19401855  0.19020666  0.68039218  1
  Zn  Zn84  1  0.18922936  0.68530801  0.18451376  1
  Zn  Zn85  1  0.19390409  0.67011828  0.68825869  1
  Zn  Zn86  1  0.68743759  0.19256730  0.18451384  1
  Zn  Zn87  1  0.68535708  0.20011298  0.66622018  1
  Zn  Zn88  1  0.69215150  0.68823086  0.18667185  1
  Zn  Zn89  1  0.68938546  0.68638495  0.69200274  1
  Zn  Zn90  1  0.32670587  0.30346683  0.34376895  1
  Zn  Zn91  1  0.31544479  0.30935586  0.81176534  1
  Zn  Zn92  1  0.30358960  0.81816178  0.31314627  1
  Zn  Zn93  1  0.31931258  0.81523692  0.82178248  1
  Zn  Zn94  1  0.78972869  0.30465726  0.29749513  1
  Zn  Zn95  1  0.81847114  0.32035837  0.80367495  1
  Zn  Zn96  1  0.80578680  0.81884707  0.31618264  1
  Zn  Zn97  1  0.81415151  0.80920855  0.81651036  1
  Zn  Zn98  1  0.18132012  0.42374788  0.43586099  1
  Zn  Zn99  1  0.21550711  0.40778805  0.93086440  1
  Zn  Zn100  1  0.16632938  0.97768093  0.41050665  1
  Zn  Zn101  1  0.18936900  0.94313535  0.94664585  1
  Zn  Zn102  1  0.68875557  0.44931991  0.43633811  1
  Zn  Zn103  1  0.68389978  0.43837303  0.93449127  1
  Zn  Zn104  1  0.68916246  0.93748939  0.43755757  1
  Zn  Zn105  1  0.68184678  0.93846604  0.93177463  1
  Zn  Zn106  1  0.31403124  0.09810937  0.06680385  1
  Zn  Zn107  1  0.30689078  0.05236466  0.56429100  1
  Zn  Zn108  1  0.23696100  0.54507517  0.06311066  1
  Zn  Zn109  1  0.29084623  0.52185564  0.54460132  1
  Zn  Zn110  1  0.80685673  0.06370499  0.05408368  1
  Zn  Zn111  1  0.81273297  0.07135087  0.56178254  1
  Zn  Zn112  1  0.80809796  0.56616708  0.06694737  1
  Zn  Zn113  1  0.81516657  0.57030459  0.56106133  1
  Zn  Zn114  1  0.43634146  0.43762460  0.18731590  1
  Zn  Zn115  1  0.43117469  0.43270242  0.67606359  1
  Zn  Zn116  1  0.30033652  0.96125832  0.18908322  1
  Zn  Zn117  1  0.44111033  0.93169026  0.69374433  1
  Zn  Zn118  1  0.93981091  0.44725733  0.16799468  1
  Zn  Zn119  1  1.06202167  0.42342480  0.69781804  1
  Zn  Zn120  1  0.92915585  0.94128155  0.19437725  1
  Zn  Zn121  1  0.93864893  0.94115730  0.68286744  1
  Zn  Zn122  1  0.08279675  0.10438106  0.28351114  1
  Zn  Zn123  1  0.06047744  0.06145200  0.80774960  1
  Zn  Zn124  1  0.08159957  0.58632122  0.29255381  1
  Zn  Zn125  1  0.06131736  0.56246321  0.82118610  1
  Zn  Zn126  1  0.54016172  0.06255202  0.31910029  1
  Zn  Zn127  1  0.57008093  0.06132644  0.80898215  1
  Zn  Zn128  1  0.56996624  0.55831428  0.31028368  1
  Zn  Zn129  1  0.55647537  0.56690564  0.81466332  1
  Zn  Zn130  1  0.39708141  0.15496884  0.45324740  1
  Zn  Zn131  1  0.44433640  0.11640782  0.92298803  1
  Zn  Zn132  1  0.43890818  0.67931328  0.44158385  1
  Zn  Zn133  1  0.39325567  0.62158281  0.98499257  1
  Zn  Zn134  1  0.94411601  0.18826061  0.42226234  1
  Zn  Zn135  1  0.94221786  0.18464748  0.93059371  1
  Zn  Zn136  1  0.94673888  0.69501053  0.44323666  1
  Zn  Zn137  1  0.94126592  0.68382887  0.94912364  1
  Zn  Zn138  1  0.06949121  0.32330116  0.04883496  1
  Zn  Zn139  1  0.11203080  0.28107941  0.57040452  1
  Zn  Zn140  1  0.06117393  0.81061655  0.06792131  1
  Zn  Zn141  1  0.06017291  0.82166342  0.55618052  1
  Zn  Zn142  1  0.56941441  0.30789105  0.05188958  1
  Zn  Zn143  1  0.50119744  0.28961775  0.52547927  1
  Zn  Zn144  1  0.55459615  0.81396900  0.06205772  1
  Zn  Zn145  1  0.56668950  0.80508574  0.57130016  1
  O  O146  1  0.12069973  0.13980238  0.11847849  1
  O  O147  1  0.13535521  0.10890374  0.61724027  1
  O  O148  1  0.14937838  0.60370227  0.11308433  1
  O  O149  1  0.11341921  0.63012664  0.61912749  1
  O  O150  1  0.62704618  0.12613310  0.11579645  1
  O  O151  1  0.61412754  0.11958207  0.61129934  1
  O  O152  1  0.62028578  0.62251725  0.11960001  1
  O  O153  1  0.63381029  0.61495592  0.62050461  1
  O  O154  1  0.39058511  0.39711967  0.37434287  1
  O  O155  1  0.39423355  0.37151173  0.86390765  1
  O  O156  1  0.38620534  0.86643298  0.38789655  1
  O  O157  1  0.38359669  0.88166601  0.88777400  1
  O  O158  1  0.85839871  0.38125179  0.37473924  1
  O  O159  1  0.87209919  0.39482686  0.87379593  1
  O  O160  1  0.87704125  0.88812093  0.37781814  1
  O  O161  1  0.88245901  0.87852504  0.88514665  1
  O  O162  1  0.27860783  -0.01628183  0.38200745  1
  O  O163  1  0.24169909  0.00016114  0.85975526  1
  O  O164  1  0.27203439  0.50285319  0.37351380  1
  O  O165  1  0.23620319  0.51201954  0.88451877  1
  O  O166  1  0.75003455  0.01030961  0.36800001  1
  O  O167  1  0.76591515  -0.00395297  0.87317654  1
  O  O168  1  0.74941900  0.50267662  0.35424048  1
  O  O169  1  0.75969149  0.51411578  0.88344835  1
  O  O170  1  0.25874314  0.46561277  0.15395528  1
  O  O171  1  0.24648591  0.49966544  0.64711506  1
  O  O172  1  0.26922975  1.06461639  0.16282105  1
  O  O173  1  0.24354847  0.98481827  0.63463636  1
  O  O174  1  0.74048733  0.49259053  0.12721132  1
  O  O175  1  0.74317036  0.49974316  0.61947919  1
  O  O176  1  0.75065046  0.99043075  0.13346430  1
  O  O177  1  0.75789908  1.04276789  0.65969897  1
  O  O178  1  0.01287614  0.35275808  0.20711244  1
  O  O179  1  -0.00193284  0.36011171  0.76974477  1
  O  O180  1  0.00647725  0.88777661  0.26300861  1
  O  O181  1  0.00788531  0.86960886  0.75996752  1
  O  O182  1  0.51866634  0.38427411  0.24821704  1
  O  O183  1  0.51176195  0.36633572  0.73928874  1
  O  O184  1  0.51346422  0.87112664  0.26416082  1
  O  O185  1  0.51056149  0.86149624  0.75176779  1
  O  O186  1  0.50505117  0.15922532  0.25492431  1
  O  O187  1  0.50468765  0.13605149  0.74228848  1
  O  O188  1  0.50215875  0.62753977  0.24376601  1
  O  O189  1  0.48312882  0.63912424  0.76201942  1
  O  O190  1  0.97574912  0.11803167  0.25170513  1
  O  O191  1  0.99736617  0.13693628  0.75104011  1
  O  O192  1  1.01787425  0.61812762  0.20600530  1
  O  O193  1  0.99761924  0.63442232  0.74405900  1
  O  O194  1  0.43699666  0.22236340  0.08393498  1
  O  O195  1  0.40228644  0.26172474  0.47619452  1
  O  O196  1  0.36330862  0.74391865  0.01656996  1
  O  O197  1  0.36924865  0.74668750  0.51042505  1
  O  O198  1  0.86160948  0.24538512  -0.01153096  1
  O  O199  1  0.91797400  0.30792072  0.49939770  1
  O  O200  1  0.86532366  0.76287120  0.00123483  1
  O  O201  1  0.87660556  0.75929620  0.51071726  1
  O  O202  1  0.09516387  0.23437060  0.46711359  1
  O  O203  1  0.10849284  0.23276788  0.98758290  1
  O  O204  1  0.13111188  0.75162852  0.49283083  1
  O  O205  1  0.13448602  0.76091930  0.99360981  1
  O  O206  1  0.60648074  0.23400995  0.49665327  1
  O  O207  1  0.63716837  0.24233438  0.98267256  1
  O  O208  1  0.62971196  0.74559803  0.49448266  1
  O  O209  1  0.63135066  0.74481379  0.99567412  1
  O  O210  1  0.49739358  0.25155689  0.12627065  1
  O  O211  1  0.50823975  0.23849137  0.63200811  1
  O  O212  1  0.48319930  0.74826050  0.12402607  1
  O  O213  1  0.48898416  0.74806272  0.63650615  1
  O  O214  1  1.01953486  0.29491443  0.15773973  1
  O  O215  1  1.01166607  0.25970669  0.64137081  1
  O  O216  1  0.97724978  0.76526310  0.12805124  1
  O  O217  1  0.99537791  0.75439520  0.63847215  1
  O  O218  1  -0.00969561  0.25942799  0.35101067  1
  O  O219  1  0.00615206  0.25303224  0.86357159  1
  O  O220  1  0.00836528  0.76489986  0.37674278  1
  O  O221  1  0.00634765  0.75800887  0.87207605  1
  O  O222  1  0.47151382  0.21529002  0.30068923  1
  O  O223  1  0.51850632  0.26033081  0.85143706  1
  O  O224  1  0.51327115  0.75379422  0.38456153  1
  O  O225  1  0.51528404  0.74727939  0.86924421  1
  O  O226  1  0.28123397  0.12257761  0.47811940  1
  O  O227  1  0.22527684  0.11981912  0.99836066  1
  O  O228  1  0.23181180  0.63182496  0.51124567  1
  O  O229  1  0.24556360  0.64336766  0.98034671  1
  O  O230  1  0.72653041  0.12177141  0.49494361  1
  O  O231  1  0.74238307  0.14287840  0.99934497  1
  O  O232  1  0.73683675  0.62667490  0.49419263  1
  O  O233  1  0.73943917  0.63574096  0.99633173  1
  O  O234  1  0.28250657  0.35008871  0.00347226  1
  O  O235  1  0.25788723  0.40970336  0.51397086  1
  O  O236  1  0.25171667  0.86648317  0.00381310  1
  O  O237  1  0.26315052  0.86080234  0.51377758  1
  O  O238  1  0.74459244  0.36778542  0.00487916  1
  O  O239  1  0.75071683  0.38700883  0.50777841  1
  O  O240  1  0.75251356  0.87065299  0.00580449  1
  O  O241  1  0.76523757  0.87227975  0.49487453  1
  O  O242  1  0.14645153  0.49659557  0.27239088  1
  O  O243  1  0.12079164  0.49647840  0.75817588  1
  O  O244  1  0.12119398  1.00094456  0.24398137  1
  O  O245  1  0.13270087  0.98935235  0.74189217  1
  O  O246  1  0.63557826  0.49441294  0.23556021  1
  O  O247  1  0.61918357  0.50018122  0.73822895  1
  O  O248  1  0.62727162  0.99250837  0.25893586  1
  O  O249  1  0.62822829  0.98108775  0.75190726  1
  O  O250  1  0.38919299  -0.02845672  0.26437510  1
  O  O251  1  0.36031805  -0.00475344  0.74729681  1
  O  O252  1  0.37536755  0.51042853  0.26123567  1
  O  O253  1  0.38653878  0.51404112  0.74949459  1
  O  O254  1  0.85632429  0.00630814  0.26239818  1
  O  O255  1  0.88387908  -0.00881489  0.76653847  1
  O  O256  1  0.86256061  0.49620928  0.23650103  1
  O  O257  1  0.87925326  0.51780002  0.76563478  1
  O  O258  1  0.10535407  0.37314264  0.37219685  1
  O  O259  1  0.11651243  0.35918075  0.88412645  1
  O  O260  1  0.11650462  0.87742813  0.36329363  1
  O  O261  1  0.11779221  0.87218158  0.87075068  1
  O  O262  1  0.63214283  0.37991420  0.36375547  1
  O  O263  1  0.62357229  0.37099510  0.86044826  1
  O  O264  1  0.62397541  0.86281195  0.37108721  1
  O  O265  1  0.63644200  0.86192064  0.86050694  1
  O  O266  1  0.40387748  0.16027192  0.11844967  1
  O  O267  1  0.38885547  0.11570935  0.62572020  1
  O  O268  1  0.38698144  0.63425490  0.14450436  1
  O  O269  1  0.36317421  0.63490747  0.64716957  1
  O  O270  1  0.86498895  0.11689568  0.13571841  1
  O  O271  1  0.88728320  0.15978725  0.56795893  1
  O  O272  1  0.86602607  0.64689194  0.12142415  1
  O  O273  1  0.88986238  0.63304961  0.63371040  1
  O  O274  1  0.24304961  0.26594043  0.14230784  1
  O  O275  1  0.22695554  0.26766160  0.60590538  1
  O  O276  1  0.25549997  0.74646882  0.11361023  1
  O  O277  1  0.25491095  0.75377016  0.62268484  1
  O  O278  1  0.74454061  0.26589772  0.10795083  1
  O  O279  1  0.75426296  0.27050496  0.60621443  1
  O  O280  1  0.75460648  0.76136526  0.11648206  1
  O  O281  1  0.76923475  0.74084659  0.62677603  1
  O  O282  1  0.24119197  0.26384091  0.41192433  1
  O  O283  1  0.23013873  0.25180101  0.86892646  1
  O  O284  1  0.24221460  0.75647805  0.39178795  1
  O  O285  1  0.24323097  0.75738050  0.88719120  1
  O  O286  1  0.75222507  0.23649473  0.38613017  1
  O  O287  1  0.74705998  0.25891647  0.87840993  1
  O  O288  1  0.74387876  0.74375922  0.37825885  1
  O  O289  1  0.74583652  0.74245177  0.88734441  1
  O  O290  1  0.00319865  0.11110531  -0.00125201  1
  O  O291  1  -0.04212773  0.14467189  0.52643831  1
  O  O292  1  0.00972382  0.63980257  0.02526061  1
  O  O293  1  0.01061350  0.63279264  0.51950421  1
  O  O294  1  0.52715669  0.13670564  -0.00862001  1
  O  O295  1  0.50518767  0.10658975  0.50696397  1
  O  O296  1  0.50953350  0.63005336  0.01189701  1
  O  O297  1  0.51707246  0.62173368  0.50344712  1
  O  O298  1  0.50394771  0.40008773  0.50275125  1
  O  O299  1  0.50417734  0.36754680  0.98154088  1
  O  O300  1  0.49411864  0.86930974  0.50243947  1
  O  O301  1  0.52139189  0.88212532  0.97941107  1
  O  O302  1  0.96342836  0.36629723  0.49730875  1
  O  O303  1  0.98761805  0.35794465  0.97655136  1
  O  O304  1  0.98546591  0.87760120  0.48610263  1
  O  O305  1  0.99359123  0.88275268  0.99497062  1
  O  O306  1  0.49804322  0.51083480  0.38699930  1
  O  O307  1  0.50857055  0.48412066  0.87335461  1
  O  O308  1  0.50346241  0.97222057  0.39192740  1
  O  O309  1  0.49194674  1.01127567  0.87628420  1
  O  O310  1  0.92401750  0.41085963  0.35862694  1
  O  O311  1  0.99135569  0.48949200  0.88085974  1
  O  O312  1  0.97886060  0.99988709  0.37580305  1
  O  O313  1  0.99351160  0.99003245  0.88283353  1
  O  O314  1  -0.01030809  -0.00555617  0.11140636  1
  O  O315  1  0.01756275  -0.00171339  0.62897081  1
  O  O316  1  0.01610708  0.49254507  0.10120733  1
  O  O317  1  0.00033497  0.51225578  0.63119784  1
  O  O318  1  0.41363777  -0.02290997  0.03676184  1
  O  O319  1  0.50435247  0.00111022  0.62282835  1
  O  O320  1  0.51330432  0.51238572  0.12967466  1
  O  O321  1  0.51171384  0.50349051  0.61698810  1
  O  O322  1  0.25697184  0.37669903  0.27822556  1
  O  O323  1  0.24211076  0.36951315  0.74702834  1
  O  O324  1  0.23398525  0.88566349  0.25061550  1
  O  O325  1  0.24511155  0.87943964  0.74660185  1
  O  O326  1  0.74054652  0.38599248  0.23144749  1
  O  O327  1  0.74116182  0.37570894  0.73370201  1
  O  O328  1  0.73789222  0.88564990  0.24533611  1
  O  O329  1  0.74477599  0.86576573  0.74667642  1
  O  O330  1  0.27882653  0.14533239  0.31300020  1
  O  O331  1  0.25081661  0.10862394  0.74287108  1
  O  O332  1  0.26049153  0.60980632  0.24652445  1
  O  O333  1  0.26318060  0.63342318  0.76847557  1
  O  O334  1  0.74639203  0.11949601  0.25864021  1
  O  O335  1  0.75828506  0.11613422  0.70871260  1
  O  O336  1  0.75002849  0.61193731  0.24796506  1
  O  O337  1  0.76255355  0.63629289  0.76656562  1
  O  O338  1  0.41495943  0.08463545  0.36888588  1
  O  O339  1  0.36166971  0.15144388  0.86212686  1
  O  O340  1  0.38204553  0.62730818  0.35691507  1
  O  O341  1  0.36064227  0.62189644  0.87085255  1
  O  O342  1  0.86066480  0.11650835  0.37367725  1
  O  O343  1  0.87041959  0.10941810  0.87446157  1
  O  O344  1  0.88152506  0.60260222  0.40806864  1
  O  O345  1  0.87308663  0.62097640  0.87593891  1
  O  O346  1  0.15524264  0.39344606  0.08208550  1
  O  O347  1  0.13244857  0.38476074  0.61870146  1
  O  O348  1  0.11587207  0.87302256  0.14520086  1
  O  O349  1  0.13350504  0.86950632  0.63737996  1
  O  O350  1  0.62552632  0.38930597  0.11955675  1
  O  O351  1  0.63458107  0.39729563  0.62944659  1
  O  O352  1  0.63152335  0.86606240  0.13461426  1
  O  O353  1  0.62999767  0.87382019  0.63840224  1
  O  O354  1  0.13796575  0.21127902  0.29516250  1
  O  O355  1  0.11571776  0.24132902  0.76002904  1
  O  O356  1  0.13836257  0.74528943  0.26829097  1
  O  O357  1  0.11977726  0.75909337  0.76020558  1
  O  O358  1  0.63551906  0.27130210  0.24673019  1
  O  O359  1  0.62684122  0.26233720  0.74660398  1
  O  O360  1  0.63356176  0.75759983  0.26021702  1
  O  O361  1  0.61975515  0.75444303  0.75490467  1
  O  O362  1  0.40519376  0.24510198  0.26997027  1
  O  O363  1  0.39461496  0.25294501  0.74264312  1
  O  O364  1  0.35631109  0.74079091  0.24104401  1
  O  O365  1  0.38179738  0.75214970  0.74749317  1
  O  O366  1  0.85968159  0.23212390  0.24743088  1
  O  O367  1  0.88432690  0.24969962  0.74238672  1
  O  O368  1  0.86467437  0.75514341  0.24325164  1
  O  O369  1  0.88760453  0.74624966  0.74871879  1
  O  O370  1  0.39141349  0.52328236  0.48746647  1
  O  O371  1  0.34342789  0.53030551  1.02675172  1
  O  O372  1  0.38832785  0.97939941  0.50507376  1
  O  O373  1  0.36870248  1.02898669  0.98400459  1
  O  O374  1  0.88359721  0.54406436  0.46618709  1
  O  O375  1  0.87367158  0.50694847  0.99282592  1
  O  O376  1  0.86205394  0.99656944  0.48738236  1
  O  O377  1  0.88134976  0.99105578  0.99215180  1
  O  O378  1  0.11038550  0.00773339  0.00264315  1
  O  O379  1  0.13217858  -0.02223198  0.51874168  1
  O  O380  1  0.15742784  0.45596425  0.02482725  1
  O  O381  1  0.12253523  0.51810708  0.48783796  1
  O  O382  1  0.63990141  0.02121801  -0.00612958  1
  O  O383  1  0.61775936  -0.00333055  0.50886949  1
  O  O384  1  0.63161575  0.51238408  0.01219059  1
  O  O385  1  0.61660621  0.51052277  0.50656918  1
  O  O386  1  0.37252066  0.36263364  0.13549577  1
  O  O387  1  0.34978294  0.37240581  0.62769234  1
  O  O388  1  0.36444252  0.86218695  0.13758367  1
  O  O389  1  0.36887333  0.86238613  0.62290003  1
  O  O390  1  0.85950982  0.37818263  0.11886239  1
  O  O391  1  0.86167931  0.38725958  0.62783217  1
  O  O392  1  0.86030462  0.87156119  0.11988176  1
  O  O393  1  0.88142594  0.86884380  0.61663527  1
  O  O394  1  0.14121395  0.09009319  0.38844697  1
  O  O395  1  0.12539025  0.13146722  0.87647109  1
  O  O396  1  0.10705726  0.64002233  0.39092239  1
  O  O397  1  0.13411360  0.64084648  0.86803694  1
  O  O398  1  0.62349223  0.11488730  0.38793232  1
  O  O399  1  0.64472070  0.13804376  0.85558522  1
  O  O400  1  0.62688191  0.63362571  0.38113837  1
  O  O401  1  0.63212955  0.63120285  0.88199847  1
