# generated using pymatgen
data_V73Zn73O256
_symmetry_space_group_name_H-M   'P 1'
_cell_length_a   16.82057807
_cell_length_b   16.82753737
_cell_length_c   16.82426298
_cell_angle_alpha   89.97672471
_cell_angle_beta   90.02113868
_cell_angle_gamma   90.00750903
_symmetry_Int_Tables_number   1
_chemical_formula_structural   V73Zn73O256
_chemical_formula_sum   'V73 Zn73 O256'
_cell_volume   4762.08847429
_cell_formula_units_Z   1
loop_
 _symmetry_equiv_pos_site_id
 _symmetry_equiv_pos_as_xyz
  1  'x, y, z'
loop_
 _atom_site_type_symbol
 _atom_site_label
 _atom_site_symmetry_multiplicity
 _atom_site_fract_x
 _atom_site_fract_y
 _atom_site_fract_z
 _atom_site_occupancy
  V  V0  1  0.24294177  0.37627900  0.62884969  1
  V  V1  1  0.74603367  0.00481336  0.75417181  1
  V  V2  1  0.11675464  0.87447813  0.25462589  1
  V  V3  1  0.52020854  0.01396664  0.01603237  1
  V  V4  1  0.00108457  0.50790031  0.00234496  1
  V  V5  1  0.87845971  -0.00449166  0.37563761  1
  V  V6  1  0.87646536  0.86229546  0.49876626  1
  V  V7  1  0.36876698  0.61003499  0.25318260  1
  V  V8  1  0.37267910  0.75423272  0.13218258  1
  V  V9  1  0.10054945  0.36703232  0.77875429  1
  V  V10  1  0.73846099  0.63313582  0.38678669  1
  V  V11  1  0.63020584  0.37371757  0.74245277  1
  V  V12  1  0.37092183  0.37228138  0.49649858  1
  V  V13  1  0.51322658  0.13007491  0.60741282  1
  V  V14  1  0.49894377  0.62927910  0.12895360  1
  V  V15  1  0.74880734  0.50257226  0.24982267  1
  V  V16  1  0.23118384  0.13057923  0.87369998  1
  V  V17  1  0.27288345  0.75557677  0.51510329  1
  V  V18  1  0.73371596  0.24815405  0.49117514  1
  V  V19  1  0.87990708  0.50132021  0.87495877  1
  V  V20  1  0.87102207  0.37179171  0.49399944  1
  V  V21  1  0.50462166  0.23997136  0.75209427  1
  V  V22  1  0.02127353  0.77321960  0.74975515  1
  V  V23  1  0.24607059  0.74926850  -0.01361204  1
  V  V24  1  0.50504503  0.88690177  0.38672136  1
  V  V25  1  0.49916310  0.37833342  0.37291180  1
  V  V26  1  0.49671738  0.23717484  0.24896675  1
  V  V27  1  0.62966878  0.24953687  0.88845198  1
  V  V28  1  0.25925568  0.50004805  0.77243642  1
  V  V29  1  0.74297649  0.12796769  0.88916639  1
  V  V30  1  0.87800569  0.13410146  0.24313738  1
  V  V31  1  0.12712207  0.62934912  -0.01134555  1
  V  V32  1  0.61444145  0.85247716  0.23247075  1
  V  V33  1  0.75347717  0.36380952  0.11857974  1
  V  V34  1  0.89540729  -0.00050234  0.87504350  1
  V  V35  1  0.87636840  0.25124905  0.61580142  1
  V  V36  1  0.37935736  0.01670830  0.87367758  1
  V  V37  1  0.87829139  0.36893291  0.00229810  1
  V  V38  1  0.49617355  0.51026959  0.50318231  1
  V  V39  1  0.63143494  0.63677623  -0.00299044  1
  V  V40  1  0.23626579  0.24729401  -0.00078861  1
  V  V41  1  0.88662004  0.15176312  0.76588617  1
  V  V42  1  0.75081218  0.63732776  0.87454989  1
  V  V43  1  0.12678206  0.50539789  0.13891523  1
  V  V44  1  0.37146657  0.24616188  0.62923167  1
  V  V45  1  0.49423453  0.50000520  -0.00549558  1
  V  V46  1  0.62304591  0.36911864  0.25304882  1
  V  V47  1  0.63441944  0.01162957  0.61009338  1
  V  V48  1  0.73515553  -0.01007258  0.23815930  1
  V  V49  1  0.87182743  0.75792060  0.11297705  1
  V  V50  1  0.01006649  0.36438358  0.35617002  1
  V  V51  1  0.75179564  0.86607951  0.62099104  1
  V  V52  1  0.37706512  0.23680512  0.12364324  1
  V  V53  1  0.25447960  0.61451572  0.38290077  1
  V  V54  1  0.39600309  0.63897549  0.75124529  1
  V  V55  1  0.12590695  0.74875079  0.38749380  1
  V  V56  1  0.37530182  0.87792243  -0.01475777  1
  V  V57  1  0.26910782  -0.00068508  0.25290011  1
  V  V58  1  0.11853181  0.00555273  0.11821533  1
  V  V59  1  0.27304884  0.11848179  0.38191620  1
  V  V60  1  0.62481646  0.49931220  0.12086147  1
  V  V61  1  0.23547928  -0.00553877  0.74625179  1
  V  V62  1  0.73176293  0.12273737  0.37342082  1
  V  V63  1  0.62511603  0.51462676  0.62086019  1
  V  V64  1  0.49644049  0.37791596  0.87468288  1
  V  V65  1  0.00705338  0.12183679  0.61289306  1
  V  V66  1  0.01215024  0.49901212  0.50096537  1
  V  V67  1  0.88246850  0.63036248  0.24418683  1
  V  V68  1  0.12790170  0.22652314  0.37163680  1
  V  V69  1  0.87628587  0.49852278  0.37337799  1
  V  V70  1  0.24743366  0.37960761  0.13863309  1
  V  V71  1  0.75184895  0.49588935  0.74687415  1
  V  V72  1  0.87691156  0.88665458  -0.00013426  1
  Zn  Zn73  1  0.24733186  0.87365050  0.12836437  1
  Zn  Zn74  1  0.12459869  0.50356198  0.63511445  1
  Zn  Zn75  1  0.00377153  0.63793813  0.62177988  1
  Zn  Zn76  1  0.00024471  0.12886464  0.12284596  1
  Zn  Zn77  1  0.36989439  0.37968313  -0.00354484  1
  Zn  Zn78  1  0.00789675  0.00023365  0.49593008  1
  Zn  Zn79  1  0.88291064  0.64134836  0.74130346  1
  Zn  Zn80  1  0.57229849  0.79557444  0.83683303  1
  Zn  Zn81  1  0.00552104  0.74631347  0.24872363  1
  Zn  Zn82  1  0.19085939  0.18531560  0.19687474  1
  Zn  Zn83  1  0.18087315  0.19052887  0.69448894  1
  Zn  Zn84  1  0.19043537  0.68600289  0.18743447  1
  Zn  Zn85  1  0.18307302  0.68191045  0.68910945  1
  Zn  Zn86  1  0.68532566  0.17931828  0.18417362  1
  Zn  Zn87  1  0.69842659  0.19211335  0.68900755  1
  Zn  Zn88  1  0.69077954  0.68845887  0.18770349  1
  Zn  Zn89  1  0.68004118  0.68989369  0.69761383  1
  Zn  Zn90  1  0.31104033  0.30344778  0.31330470  1
  Zn  Zn91  1  0.31139253  0.30898011  0.81079382  1
  Zn  Zn92  1  0.31779373  0.81190013  0.32201060  1
  Zn  Zn93  1  0.30222604  0.81099326  0.79964271  1
  Zn  Zn94  1  0.80885484  0.31089958  0.31168932  1
  Zn  Zn95  1  0.82322744  0.31112597  0.81992699  1
  Zn  Zn96  1  0.80131610  0.81123604  0.31296092  1
  Zn  Zn97  1  0.81735116  0.82125496  0.80983445  1
  Zn  Zn98  1  0.18978844  0.42594082  0.43136238  1
  Zn  Zn99  1  0.18063391  0.42983829  0.94557990  1
  Zn  Zn100  1  0.20447086  0.92937322  0.43265505  1
  Zn  Zn101  1  0.18520120  0.93781971  0.93220297  1
  Zn  Zn102  1  0.68467595  0.44068348  0.43814073  1
  Zn  Zn103  1  0.68877597  0.43876629  0.93254979  1
  Zn  Zn104  1  0.68746249  0.92988467  0.43148068  1
  Zn  Zn105  1  0.68847388  0.92033167  0.94063391  1
  Zn  Zn106  1  0.30125529  0.06072484  0.06279676  1
  Zn  Zn107  1  0.30822794  0.07308844  0.56883839  1
  Zn  Zn108  1  0.30833726  0.56508338  0.06004457  1
  Zn  Zn109  1  0.31477750  0.56551599  0.56947300  1
  Zn  Zn110  1  0.80817482  0.05858551  0.06386718  1
  Zn  Zn111  1  0.81632506  0.07060206  0.55804098  1
  Zn  Zn112  1  0.81314938  0.56426090  0.06349482  1
  Zn  Zn113  1  0.81656746  0.56698901  0.56476103  1
  Zn  Zn114  1  0.43360899  0.43417262  0.18292828  1
  Zn  Zn115  1  0.43776015  0.43904078  0.68771337  1
  Zn  Zn116  1  0.45037805  0.93456803  0.18186519  1
  Zn  Zn117  1  0.43398339  0.96749713  0.68823788  1
  Zn  Zn118  1  0.93948880  0.44080115  0.18191757  1
  Zn  Zn119  1  0.93283180  0.43627741  0.68374833  1
  Zn  Zn120  1  0.93524268  0.93958824  0.18838301  1
  Zn  Zn121  1  0.93556696  0.94085396  0.68709044  1
  Zn  Zn122  1  0.06188916  0.05845503  0.30506511  1
  Zn  Zn123  1  0.06130476  0.07314767  0.80532685  1
  Zn  Zn124  1  0.06705215  0.56359523  0.32207163  1
  Zn  Zn125  1  0.06846168  0.56322599  0.80447853  1
  Zn  Zn126  1  0.55170813  0.04927035  0.31323729  1
  Zn  Zn127  1  0.56632322  0.05471766  0.81999288  1
  Zn  Zn128  1  0.55646659  0.56144502  0.31249616  1
  Zn  Zn129  1  0.56252565  0.56693382  0.81158047  1
  Zn  Zn130  1  0.44422578  0.19497939  0.43650230  1
  Zn  Zn131  1  0.43946386  0.19054245  0.94167218  1
  Zn  Zn132  1  0.43491559  0.70900209  0.43079603  1
  Zn  Zn133  1  0.43352995  0.68933813  0.92353658  1
  Zn  Zn134  1  0.93522581  0.18349504  0.42796486  1
  Zn  Zn135  1  0.93535385  0.18860630  0.94088361  1
  Zn  Zn136  1  0.93817714  0.68331607  0.43343687  1
  Zn  Zn137  1  0.94292848  0.69098387  0.93420023  1
  Zn  Zn138  1  0.06031999  0.31671556  0.06947821  1
  Zn  Zn139  1  0.06189660  0.30520070  0.54667950  1
  Zn  Zn140  1  0.05502210  0.81309348  0.06525671  1
  Zn  Zn141  1  0.06236522  0.82155272  0.56630045  1
  Zn  Zn142  1  0.56028300  0.31071293  0.06575834  1
  Zn  Zn143  1  0.56102875  0.31896155  0.56269850  1
  Zn  Zn144  1  0.55059516  0.81083616  0.03379063  1
  Zn  Zn145  1  0.56108971  0.83176356  0.57872388  1
  O  O146  1  0.12600054  0.10830094  0.13946019  1
  O  O147  1  0.10586674  0.13747288  0.62747389  1
  O  O148  1  0.13676012  0.60966737  0.11766974  1
  O  O149  1  0.11629132  0.61490542  0.62396741  1
  O  O150  1  0.63154770  0.12685186  0.10329095  1
  O  O151  1  0.62176764  0.12685375  0.62381191  1
  O  O152  1  0.62142186  0.61687807  0.11962501  1
  O  O153  1  0.62697913  0.61332570  0.62358482  1
  O  O154  1  0.37769454  0.36766326  0.38919926  1
  O  O155  1  0.39306854  0.36428125  0.87590417  1
  O  O156  1  0.42328263  0.81451913  0.37287345  1
  O  O157  1  0.36788287  0.88054362  0.88383411  1
  O  O158  1  0.88073584  0.38086159  0.37374876  1
  O  O159  1  0.86314279  0.39180957  0.89343765  1
  O  O160  1  0.85963749  0.88523209  0.38647231  1
  O  O161  1  0.87478558  0.89471128  0.87966381  1
  O  O162  1  0.25576882  0.00477942  0.36452615  1
  O  O163  1  0.25224998  0.01539625  0.87175231  1
  O  O164  1  0.24878701  0.51429313  0.38233807  1
  O  O165  1  0.25121377  0.48363912  0.87185433  1
  O  O166  1  0.75185908  0.00952887  0.36784167  1
  O  O167  1  0.74583261  0.01219055  0.86270099  1
  O  O168  1  0.75854820  0.49678191  0.36412161  1
  O  O169  1  0.75514208  0.50918118  0.86581272  1
  O  O170  1  0.24285389  0.48847011  0.12089228  1
  O  O171  1  0.24765848  0.48258624  0.62743878  1
  O  O172  1  0.24196677  0.99627647  0.14019956  1
  O  O173  1  0.25524797  1.02011441  0.64955036  1
  O  O174  1  0.74187340  0.49792492  0.13357309  1
  O  O175  1  0.73855828  0.50281558  0.63479954  1
  O  O176  1  0.74962405  0.99544341  0.13943377  1
  O  O177  1  0.74499706  1.01513362  0.63341782  1
  O  O178  1  -0.01040714  0.37404002  0.25801075  1
  O  O179  1  0.00247961  0.37817419  0.75362477  1
  O  O180  1  0.01353858  0.87486444  0.25391521  1
  O  O181  1  0.01036110  0.87485802  0.73996426  1
  O  O182  1  0.50623642  0.37739981  0.25505139  1
  O  O183  1  0.51073567  0.36788648  0.75621029  1
  O  O184  1  0.51302224  0.87604800  0.25675683  1
  O  O185  1  0.48165371  0.86291569  0.72195561  1
  O  O186  1  0.50442751  0.13932394  0.25516111  1
  O  O187  1  0.50928767  0.13752742  0.74818811  1
  O  O188  1  0.49001156  0.62040849  0.23783232  1
  O  O189  1  0.49996810  0.63099572  0.74511082  1
  O  O190  1  0.98198388  0.11895399  0.24808340  1
  O  O191  1  0.98718418  0.12926904  0.73551927  1
  O  O192  1  0.98412127  0.61898028  0.25791492  1
  O  O193  1  1.00351885  0.63572535  0.74739412  1
  O  O194  1  0.37418602  0.25458730  0.01459079  1
  O  O195  1  0.38600757  0.26314788  0.51507276  1
  O  O196  1  0.36208215  0.75843724  0.00136978  1
  O  O197  1  0.37345953  0.74109944  0.52225147  1
  O  O198  1  0.87173408  0.27117518  -0.00356196  1
  O  O199  1  0.86787310  0.25453813  0.49728838  1
  O  O200  1  0.87411186  0.74744594  0.01043654  1
  O  O201  1  0.87849154  0.76240313  0.49221393  1
  O  O202  1  0.13292906  0.26466670  0.46927699  1
  O  O203  1  0.13864417  0.25467566  1.00555933  1
  O  O204  1  0.12663930  0.75627387  0.48831049  1
  O  O205  1  0.13449564  0.73907522  1.01174666  1
  O  O206  1  0.63471452  0.25857748  0.49729387  1
  O  O207  1  0.62427481  0.25667308  0.98811825  1
  O  O208  1  0.59423516  0.73135267  0.51195441  1
  O  O209  1  0.63919301  0.73323382  1.01490019  1
  O  O210  1  0.48737332  0.25451559  0.13450962  1
  O  O211  1  0.50114627  0.24338385  0.63179065  1
  O  O212  1  0.48297646  0.73585822  0.10847954  1
  O  O213  1  0.47962955  0.81194435  0.66279615  1
  O  O214  1  0.99133360  0.24327056  0.11426630  1
  O  O215  1  0.98390452  0.24448673  0.61063760  1
  O  O216  1  0.98050038  0.75148220  0.13494385  1
  O  O217  1  1.00957297  0.75469678  0.63868192  1
  O  O218  1  0.00807697  0.25778793  0.37311562  1
  O  O219  1  -0.08145519  0.22992601  0.83504325  1
  O  O220  1  0.02147808  0.73621316  0.36978609  1
  O  O221  1  -0.01480202  0.75517817  0.85299672  1
  O  O222  1  0.49514800  0.26397634  0.35792888  1
  O  O223  1  0.51063680  0.25546968  0.86950355  1
  O  O224  1  0.56486988  0.73139456  0.44175921  1
  O  O225  1  0.51246367  0.76765188  0.92565996  1
  O  O226  1  0.25163832  0.11077487  0.48148676  1
  O  O227  1  0.25065918  0.13919867  0.99337289  1
  O  O228  1  0.26345343  0.63133451  0.48780540  1
  O  O229  1  0.24253451  0.63742986  0.99915587  1
  O  O230  1  0.75038784  0.13435811  0.48250533  1
  O  O231  1  0.74910341  0.12039266  0.98790147  1
  O  O232  1  0.75158101  0.61368736  0.48566476  1
  O  O233  1  0.74009113  0.61542502  0.98880315  1
  O  O234  1  0.25310459  0.36153692  0.00711117  1
  O  O235  1  0.26505300  0.37725542  0.50833935  1
  O  O236  1  0.25823093  0.86526192  0.00553999  1
  O  O237  1  0.26587151  0.85545173  0.49096614  1
  O  O238  1  0.75608453  0.38475423  0.01304437  1
  O  O239  1  0.75886307  0.35968657  0.48065665  1
  O  O240  1  0.77359307  0.87061922  -0.00657911  1
  O  O241  1  0.75499849  0.87574869  0.51190660  1
  O  O242  1  0.12258875  0.50562180  0.23804654  1
  O  O243  1  0.13461350  0.47682167  0.75355816  1
  O  O244  1  0.13275919  0.98417811  0.24925893  1
  O  O245  1  0.13494470  1.00571465  0.75510538  1
  O  O246  1  0.62955211  0.49197824  0.23948520  1
  O  O247  1  0.62978061  0.49522330  0.74017611  1
  O  O248  1  0.63260570  0.99835472  0.24638727  1
  O  O249  1  0.64273659  1.01496145  0.74093065  1
  O  O250  1  0.36731853  -0.00880112  0.24165246  1
  O  O251  1  0.36446398  0.00117754  0.76940484  1
  O  O252  1  0.37553857  0.51029446  0.24863546  1
  O  O253  1  0.36235566  0.49174107  0.75503592  1
  O  O254  1  0.85978372  -0.00585349  0.26165138  1
  O  O255  1  0.87298540  0.01233531  0.76457373  1
  O  O256  1  0.86776927  0.50679385  0.25308398  1
  O  O257  1  0.86640659  0.49516529  0.75944593  1
  O  O258  1  0.11088488  0.38083157  0.36169877  1
  O  O259  1  0.10715560  0.37036254  0.87993385  1
  O  O260  1  0.13264000  0.86047641  0.36487368  1
  O  O261  1  0.11537357  0.86132773  0.89220888  1
  O  O262  1  0.61712338  0.38013468  0.36138889  1
  O  O263  1  0.62016265  0.36771360  0.86682734  1
  O  O264  1  0.61164776  0.87576294  0.36504648  1
  O  O265  1  0.63341695  0.88636627  0.85144648  1
  O  O266  1  0.36753402  0.13809132  0.12330260  1
  O  O267  1  0.39350431  0.13949674  0.61801804  1
  O  O268  1  0.37858042  0.62913385  0.13256864  1
  O  O269  1  0.36951461  0.61253702  0.65338004  1
  O  O270  1  0.87064200  0.11486879  0.14032831  1
  O  O271  1  0.88203081  0.13896294  0.62849752  1
  O  O272  1  0.87315767  0.62851837  0.13930879  1
  O  O273  1  0.89061838  0.61239482  0.63119044  1
  O  O274  1  0.25715205  0.25603173  0.12059323  1
  O  O275  1  0.26644451  0.25335329  0.63256702  1
  O  O276  1  0.26301970  0.74878902  0.11649802  1
  O  O277  1  0.23872460  0.74614896  0.61022848  1
  O  O278  1  0.74778972  0.26580465  0.12831868  1
  O  O279  1  0.75861977  0.23952553  0.59780345  1
  O  O280  1  0.77283199  0.74700814  0.13688969  1
  O  O281  1  0.74363924  0.76805863  0.63648093  1
  O  O282  1  0.24535276  0.22586499  0.36730879  1
  O  O283  1  0.25590250  0.24290885  0.88850747  1
  O  O284  1  0.24636030  0.74032263  0.38664000  1
  O  O285  1  0.24566543  0.75642408  0.88798321  1
  O  O286  1  0.74751902  0.23519973  0.37715921  1
  O  O287  1  0.74482127  0.23659967  0.87275616  1
  O  O288  1  0.74698190  0.73310669  0.37639724  1
  O  O289  1  0.75541310  0.73665656  0.86703045  1
  O  O290  1  0.01075991  0.15414158  0.01107612  1
  O  O291  1  -0.00396802  0.12155149  0.50621183  1
  O  O292  1  0.01363590  0.62166273  0.00102632  1
  O  O293  1  -0.00627358  0.60160310  0.49499355  1
  O  O294  1  0.50290154  0.11211803  -0.00703512  1
  O  O295  1  0.51052955  0.13336580  0.50827290  1
  O  O296  1  0.51607485  0.61586298  0.00695149  1
  O  O297  1  0.48504290  0.60692715  0.49038640  1
  O  O298  1  0.49280055  0.37847897  0.49066420  1
  O  O299  1  0.50181838  0.38390559  0.99308882  1
  O  O300  1  0.51469462  0.88054084  0.48866102  1
  O  O301  1  0.47782038  0.90030801  1.00622166  1
  O  O302  1  0.98917162  0.37987753  0.48120336  1
  O  O303  1  0.98480563  0.38889892  1.00641518  1
  O  O304  1  0.97956165  0.88354993  0.50505278  1
  O  O305  1  0.97932004  0.86365412  0.99617919  1
  O  O306  1  0.50231973  0.48860151  0.38834469  1
  O  O307  1  0.51367084  0.48905782  0.88363960  1
  O  O308  1  0.48058756  0.98506363  0.37258464  1
  O  O309  1  0.48327486  1.00392324  0.88088574  1
  O  O310  1  0.99213397  0.49028774  0.37849848  1
  O  O311  1  0.98843182  0.51004336  0.88527395  1
  O  O312  1  0.98291363  1.00047512  0.37460834  1
  O  O313  1  0.99356684  1.01114211  0.87651944  1
  O  O314  1  0.01297992  0.00176160  0.12832986  1
  O  O315  1  -0.00883014  0.01834878  0.62022692  1
  O  O316  1  0.01572371  0.49747464  0.11591949  1
  O  O317  1  0.00549472  0.48111585  0.60507324  1
  O  O318  1  0.50119043  0.01061599  0.11605435  1
  O  O319  1  0.51837657  0.02112915  0.63068919  1
  O  O320  1  0.50818743  0.50547288  0.11765762  1
  O  O321  1  0.51277847  0.49496595  0.61596112  1
  O  O322  1  0.25274618  0.37082139  0.23812090  1
  O  O323  1  0.24835546  0.37726719  0.73886757  1
  O  O324  1  0.24836087  0.88271615  0.25472802  1
  O  O325  1  0.24677874  0.89351601  0.75056380  1
  O  O326  1  0.74412676  0.38227061  0.24040905  1
  O  O327  1  0.74202656  0.38578674  0.76146559  1
  O  O328  1  0.72973392  0.88141753  0.25359551  1
  O  O329  1  0.76489736  0.89957972  0.73502117  1
  O  O330  1  0.25314991  0.10659187  0.26095013  1
  O  O331  1  0.24699808  0.13015599  0.76947655  1
  O  O332  1  0.26344274  0.62553093  0.25786581  1
  O  O333  1  0.24065431  0.59925992  0.75538001  1
  O  O334  1  0.75323340  0.11450562  0.25715817  1
  O  O335  1  0.76836392  0.12279444  0.75771269  1
  O  O336  1  0.75776380  0.61441971  0.25692828  1
  O  O337  1  0.74929298  0.61692286  0.76146184  1
  O  O338  1  0.37303423  0.12706471  0.37901343  1
  O  O339  1  0.36740715  0.11881673  0.88126193  1
  O  O340  1  0.37151556  0.63286357  0.35979534  1
  O  O341  1  0.38261941  0.61681772  0.85718145  1
  O  O342  1  0.86563015  0.11211128  0.36280236  1
  O  O343  1  0.86107231  0.10842840  0.87976650  1
  O  O344  1  0.86444395  0.61342591  0.36651516  1
  O  O345  1  0.86180933  0.61730574  0.87751226  1
  O  O346  1  0.13770629  0.38772292  0.12053091  1
  O  O347  1  0.14200566  0.36491023  0.61494291  1
  O  O348  1  0.12621510  0.88049334  0.13789836  1
  O  O349  1  0.12964368  0.92002920  0.58073427  1
  O  O350  1  0.63418333  0.38196144  0.12960597  1
  O  O351  1  0.62526672  0.37887204  0.63820150  1
  O  O352  1  0.60757486  0.85712304  0.13156350  1
  O  O353  1  0.64236324  0.89920182  0.62620996  1
  O  O354  1  0.12820672  0.24746549  0.26897966  1
  O  O355  1  0.12568404  0.27178115  0.75238332  1
  O  O356  1  0.12947662  0.76125072  0.25129505  1
  O  O357  1  0.12146622  0.75300472  0.75634365  1
  O  O358  1  0.61055474  0.26095919  0.23738341  1
  O  O359  1  0.62415710  0.25707035  0.75594206  1
  O  O360  1  0.62137718  0.75251168  0.25040575  1
  O  O361  1  0.59707413  0.74818464  0.74098468  1
  O  O362  1  0.38625171  0.25355520  0.23809278  1
  O  O363  1  0.38975784  0.25712020  0.73642229  1
  O  O364  1  0.37208751  0.74274742  0.23299661  1
  O  O365  1  0.37279859  0.73937141  0.75409569  1
  O  O366  1  0.86764423  0.23357511  0.25187237  1
  O  O367  1  0.84979073  0.25648973  0.71722732  1
  O  O368  1  0.87651967  0.73673748  0.25749893  1
  O  O369  1  0.89443085  0.75630629  0.75699976  1
  O  O370  1  0.38834536  0.48286271  0.51355101  1
  O  O371  1  0.39051536  0.50272857  1.00478747  1
  O  O372  1  0.37639237  0.97377101  0.52738711  1
  O  O373  1  0.35995768  0.99013537  0.98836408  1
  O  O374  1  0.87589326  0.48832374  0.48791977  1
  O  O375  1  0.88397384  0.50315939  0.99623757  1
  O  O376  1  0.86880198  0.99909505  0.48355915  1
  O  O377  1  0.87681961  0.99575286  0.99117994  1
  O  O378  1  0.13704828  -0.00292431  0.02019650  1
  O  O379  1  0.12624166  -0.03126137  0.51660759  1
  O  O380  1  0.11903306  0.51179317  0.00401795  1
  O  O381  1  0.11309007  0.49047090  0.49290288  1
  O  O382  1  0.61685646  -0.00898220  -0.00284918  1
  O  O383  1  0.63753684  0.00767928  0.51146319  1
  O  O384  1  0.62098022  0.50279491  0.00958414  1
  O  O385  1  0.61493393  0.49364702  0.51275575  1
  O  O386  1  0.36082241  0.37065095  0.12075368  1
  O  O387  1  0.36955166  0.36473498  0.61885362  1
  O  O388  1  0.37668410  0.86098977  0.11919804  1
  O  O389  1  0.38657672  0.92230136  0.58245800  1
  O  O390  1  0.86153871  0.38450043  0.11633885  1
  O  O391  1  0.87663903  0.36472497  0.60568173  1
  O  O392  1  0.87524366  0.86987511  0.11459885  1
  O  O393  1  0.86107314  0.88550471  0.61104857  1
  O  O394  1  0.12224331  0.12374364  0.37895344  1
  O  O395  1  0.13181259  0.12941213  0.87983554  1
  O  O396  1  0.14464595  0.63625396  0.36730876  1
  O  O397  1  0.12598528  0.62373066  0.88996680  1
  O  O398  1  0.63266836  0.11756590  0.36878032  1
  O  O399  1  0.63629544  0.13334124  0.87167507  1
  O  O400  1  0.64026538  0.60989569  0.36916359  1
  O  O401  1  0.63507909  0.62502433  0.88732372  1
