# generated using pymatgen
data_V73Zn73O256
_symmetry_space_group_name_H-M   'P 1'
_cell_length_a   16.91718811
_cell_length_b   16.87502698
_cell_length_c   16.88447786
_cell_angle_alpha   89.93186861
_cell_angle_beta   89.80486379
_cell_angle_gamma   90.08912002
_symmetry_Int_Tables_number   1
_chemical_formula_structural   V73Zn73O256
_chemical_formula_sum   'V73 Zn73 O256'
_cell_volume   4820.10984347
_cell_formula_units_Z   1
loop_
 _symmetry_equiv_pos_site_id
 _symmetry_equiv_pos_as_xyz
  1  'x, y, z'
loop_
 _atom_site_type_symbol
 _atom_site_label
 _atom_site_symmetry_multiplicity
 _atom_site_fract_x
 _atom_site_fract_y
 _atom_site_fract_z
 _atom_site_occupancy
  V  V0  1  -0.01417484  0.36427320  0.87981132  1
  V  V1  1  0.24613997  0.00334109  0.74799296  1
  V  V2  1  0.22683160  0.13011077  0.87962488  1
  V  V3  1  0.50185414  0.12768137  0.60902927  1
  V  V4  1  0.88111471  0.85829387  0.00412466  1
  V  V5  1  0.25333944  0.50448283  0.76809699  1
  V  V6  1  0.62440928  0.89583795  0.25007341  1
  V  V7  1  0.13938708  0.49042259  0.61248636  1
  V  V8  1  0.62972758  0.37181399  0.24106355  1
  V  V9  1  0.00643187  0.37206340  0.37084559  1
  V  V10  1  0.00116063  0.00691726  0.00273509  1
  V  V11  1  0.51403569  0.24517759  0.75152510  1
  V  V12  1  0.23474673  0.25133608  -0.00183972  1
  V  V13  1  0.61086319  0.51094116  0.11618548  1
  V  V14  1  0.74989576  0.49734443  0.24339716  1
  V  V15  1  0.37407132  0.01807939  0.88038106  1
  V  V16  1  0.75236569  0.87696226  0.12053874  1
  V  V17  1  0.00405446  0.50131210  0.00231995  1
  V  V18  1  0.13123621  0.36576218  0.75450865  1
  V  V19  1  0.76283072  0.37480834  0.62133618  1
  V  V20  1  0.00601011  0.62053413  0.60977614  1
  V  V21  1  0.50446960  0.38859774  0.87211618  1
  V  V22  1  0.88433102  0.74183237  0.61603632  1
  V  V23  1  0.74793359  0.64296771  0.37509754  1
  V  V24  1  0.74880042  0.11639747  0.38486756  1
  V  V25  1  0.01780784  0.70582090  0.77992064  1
  V  V26  1  0.36645692  0.00715173  0.36011140  1
  V  V27  1  -0.00294782  0.89545465  0.38726345  1
  V  V28  1  0.12789885  0.74710668  0.37121975  1
  V  V29  1  0.61484422  0.25547742  0.38633860  1
  V  V30  1  -0.00029157  0.74889149  0.25291028  1
  V  V31  1  0.01954034  0.87850775  0.87252545  1
  V  V32  1  0.36821583  0.37702540  0.50086643  1
  V  V33  1  0.86317761  0.27722990  0.11903666  1
  V  V34  1  0.37671724  0.75005265  0.12911283  1
  V  V35  1  0.24804879  0.61680654  0.36810446  1
  V  V36  1  0.87010986  0.51845105  0.87695282  1
  V  V37  1  0.12844644  0.38725429  0.22869863  1
  V  V38  1  -0.01049383  0.24737575  0.73219102  1
  V  V39  1  0.74205576  0.24574377  -0.01433511  1
  V  V40  1  0.24832051  0.74606320  0.50271872  1
  V  V41  1  0.01635887  0.62395254  0.12534261  1
  V  V42  1  0.50153962  0.49787220  0.49474334  1
  V  V43  1  0.49704496  0.25349413  0.24752763  1
  V  V44  1  0.38255905  0.62791981  0.74708994  1
  V  V45  1  0.24916281  0.24177194  0.48756755  1
  V  V46  1  0.12956908  0.01556880  0.12994376  1
  V  V47  1  0.86448367  0.00381022  0.87176542  1
  V  V48  1  0.61804278  0.49722332  0.62927210  1
  V  V49  1  0.87000551  0.48960552  0.37863476  1
  V  V50  1  0.37905833  0.37755746  -0.00336088  1
  V  V51  1  0.12644210  0.88653283  0.25533249  1
  V  V52  1  0.74821476  0.86152252  0.64375465  1
  V  V53  1  0.62363815  0.63447526  0.49673926  1
  V  V54  1  0.25050231  0.87890385  0.13509785  1
  V  V55  1  0.51093318  0.74830311  0.25396934  1
  V  V56  1  0.87560175  0.62849063  0.24580095  1
  V  V57  1  0.50134205  0.88247021  0.37998194  1
  V  V58  1  0.38170488  0.49337941  0.36845565  1
  V  V59  1  -0.00566053  0.24374464  0.25121151  1
  V  V60  1  0.11724609  0.12048663  0.49825448  1
  V  V61  1  0.36306647  0.25742607  0.63726086  1
  V  V62  1  0.51028196  0.00618777  0.00351806  1
  V  V63  1  -0.00446985  0.48719141  0.49885029  1
  V  V64  1  0.61979525  0.73832852  0.88835952  1
  V  V65  1  0.76626766  0.25367447  0.50063639  1
  V  V66  1  0.37135389  0.88052398  0.50630145  1
  V  V67  1  0.37077127  0.87712551  -0.00082346  1
  V  V68  1  -0.02014602  0.12306978  0.12871169  1
  V  V69  1  0.36743521  0.24500729  0.12322964  1
  V  V70  1  0.51868771  0.12658496  0.12559061  1
  V  V71  1  0.37727197  0.62080193  0.24871696  1
  V  V72  1  0.75837242  0.50684120  0.74885313  1
  Zn  Zn73  1  0.86198617  0.87946645  0.49943655  1
  Zn  Zn74  1  0.13362719  0.86222329  0.73496029  1
  Zn  Zn75  1  0.78535695  0.02103517  0.24332004  1
  Zn  Zn76  1  -0.03066214  0.02017700  0.51705607  1
  Zn  Zn77  1  0.37054736  0.74847174  0.62462811  1
  Zn  Zn78  1  0.61368658  -0.00926668  0.63988372  1
  Zn  Zn79  1  0.10960412  0.00209874  0.62460907  1
  Zn  Zn80  1  0.87393568  0.12405382  0.75029657  1
  Zn  Zn81  1  0.62984678  0.25762184  0.87187743  1
  Zn  Zn82  1  0.18009945  0.20087664  0.19098253  1
  Zn  Zn83  1  0.18745739  0.18271365  0.68590359  1
  Zn  Zn84  1  0.19458535  0.68667665  0.08484830  1
  Zn  Zn85  1  0.18326492  0.67524273  0.68247623  1
  Zn  Zn86  1  0.69506181  0.18492892  0.19298107  1
  Zn  Zn87  1  0.69224783  0.17719055  0.67533323  1
  Zn  Zn88  1  0.70854048  0.68206062  0.15739045  1
  Zn  Zn89  1  0.68289555  0.69244612  0.67821735  1
  Zn  Zn90  1  0.30642708  0.31077605  0.30520961  1
  Zn  Zn91  1  0.31258478  0.31258324  0.82055549  1
  Zn  Zn92  1  0.31485840  0.81361236  0.31427642  1
  Zn  Zn93  1  0.32609106  0.82899668  0.79654103  1
  Zn  Zn94  1  0.81055961  0.30730895  0.31142892  1
  Zn  Zn95  1  0.80634665  0.31735204  0.80695470  1
  Zn  Zn96  1  0.82526341  0.83827998  0.30185382  1
  Zn  Zn97  1  0.86280432  0.81563505  0.79983518  1
  Zn  Zn98  1  0.18935905  0.42972347  0.42881428  1
  Zn  Zn99  1  0.18342438  0.43296561  0.94021319  1
  Zn  Zn100  1  0.19050177  0.93952116  0.44142355  1
  Zn  Zn101  1  0.19152373  0.94340864  0.94885631  1
  Zn  Zn102  1  0.68464193  0.43365001  0.43452961  1
  Zn  Zn103  1  0.69436977  0.43176789  0.94273622  1
  Zn  Zn104  1  0.68924838  0.93574212  0.46838607  1
  Zn  Zn105  1  0.69170533  0.93059609  0.94094622  1
  Zn  Zn106  1  0.31071018  0.07075156  0.06650298  1
  Zn  Zn107  1  0.32975466  0.06734423  0.56511041  1
  Zn  Zn108  1  0.38546311  0.58002670  0.03448128  1
  Zn  Zn109  1  0.31612817  0.56698672  0.55947018  1
  Zn  Zn110  1  0.80507176  0.05726731  0.05556607  1
  Zn  Zn111  1  0.80181096  0.04863323  0.59273856  1
  Zn  Zn112  1  0.81446704  0.56842201  0.05624171  1
  Zn  Zn113  1  0.81072571  0.56523938  0.55924362  1
  Zn  Zn114  1  0.43963025  0.43217050  0.18110034  1
  Zn  Zn115  1  0.43593936  0.43513491  0.69143382  1
  Zn  Zn116  1  0.44151618  0.94221242  0.18818423  1
  Zn  Zn117  1  0.44040538  0.94535648  0.68627605  1
  Zn  Zn118  1  0.93762923  0.44138139  0.19019138  1
  Zn  Zn119  1  0.93864904  0.43407936  0.68834822  1
  Zn  Zn120  1  0.94062055  0.93776445  0.19046026  1
  Zn  Zn121  1  0.94019852  0.93411588  0.68602489  1
  Zn  Zn122  1  0.22538257  0.10678778  0.33363120  1
  Zn  Zn123  1  0.05741331  0.06464597  0.80768440  1
  Zn  Zn124  1  0.06367791  0.55904404  0.31269594  1
  Zn  Zn125  1  0.05849511  0.53639840  0.80357369  1
  Zn  Zn126  1  0.55726201  0.07194643  0.32300352  1
  Zn  Zn127  1  0.53398293  0.04923496  0.79461212  1
  Zn  Zn128  1  0.56559962  0.56353557  0.30968587  1
  Zn  Zn129  1  0.55623469  0.56145621  0.80452145  1
  Zn  Zn130  1  0.43231671  0.19196957  0.43511264  1
  Zn  Zn131  1  0.44251420  0.19261642  0.94200647  1
  Zn  Zn132  1  0.43838425  0.68896429  0.43602511  1
  Zn  Zn133  1  0.42699443  0.70139274  0.92271164  1
  Zn  Zn134  1  0.93511569  0.18148738  0.43105759  1
  Zn  Zn135  1  0.92839746  0.18463391  0.94193465  1
  Zn  Zn136  1  0.93917546  0.67990737  0.43587953  1
  Zn  Zn137  1  1.06724009  0.69288524  0.95029610  1
  Zn  Zn138  1  0.05144003  0.31354802  0.06466838  1
  Zn  Zn139  1  0.06731539  0.31161888  0.56066714  1
  Zn  Zn140  1  0.06093166  0.81941088  0.07158848  1
  Zn  Zn141  1  0.07185075  0.81815707  0.56083519  1
  Zn  Zn142  1  0.56753505  0.31546566  0.05722352  1
  Zn  Zn143  1  0.55588316  0.32273887  0.56792289  1
  Zn  Zn144  1  0.55598833  0.82667244  0.07428666  1
  Zn  Zn145  1  0.58265455  0.83098006  0.55440954  1
  O  O146  1  0.11268945  0.11645799  0.13173964  1
  O  O147  1  0.13458662  0.12128343  0.60845206  1
  O  O148  1  0.11477654  0.61664188  0.13442950  1
  O  O149  1  0.11832623  0.59944127  0.61829454  1
  O  O150  1  0.61733737  0.12878701  0.12557587  1
  O  O151  1  0.60477286  0.11060415  0.63355770  1
  O  O152  1  0.62193254  0.60946098  0.14238291  1
  O  O153  1  0.63503141  0.61198066  0.60498412  1
  O  O154  1  0.36646633  0.38818330  0.37785227  1
  O  O155  1  0.38817284  0.36624373  0.88703175  1
  O  O156  1  0.37995019  0.88578103  0.37735828  1
  O  O157  1  0.36542060  0.87564451  0.89614427  1
  O  O158  1  0.88372005  0.38490717  0.36473408  1
  O  O159  1  0.88492796  0.37985570  0.86933825  1
  O  O160  1  0.89849705  0.85584990  0.39025593  1
  O  O161  1  0.89038242  0.88379843  0.88769769  1
  O  O162  1  0.26014388  0.00107237  0.37168409  1
  O  O163  1  0.25517848  0.01628171  0.88050249  1
  O  O164  1  0.25876190  0.51201240  0.38008882  1
  O  O165  1  0.24619941  0.50061484  0.86702139  1
  O  O166  1  0.72533886  0.01851257  0.39981948  1
  O  O167  1  0.76594743  -0.00959865  0.88361978  1
  O  O168  1  0.75668552  0.49924567  0.36551729  1
  O  O169  1  0.75850231  0.49243702  0.86085342  1
  O  O170  1  0.26495552  0.62384644  0.00951006  1
  O  O171  1  0.23987232  0.49468521  0.61588036  1
  O  O172  1  0.23519681  1.00065764  0.12412206  1
  O  O173  1  0.27125371  1.01268218  0.65168792  1
  O  O174  1  0.74958798  0.50630455  0.14220082  1
  O  O175  1  0.74600834  0.49290197  0.62750273  1
  O  O176  1  0.75838890  0.98516819  0.13397038  1
  O  O177  1  0.72897039  0.96416174  0.64769481  1
  O  O178  1  0.00520909  0.37368169  0.25388086  1
  O  O179  1  0.00430499  0.36533404  0.75895066  1
  O  O180  1  0.00866574  0.86701436  0.26350945  1
  O  O181  1  0.01479254  0.88788381  0.76950462  1
  O  O182  1  0.51290682  0.36339828  0.24377662  1
  O  O183  1  0.49475132  0.36256607  0.76336345  1
  O  O184  1  0.50645287  0.87060644  0.25704829  1
  O  O185  1  0.50364805  0.80743238  0.70538192  1
  O  O186  1  0.50521327  0.13923808  0.23638268  1
  O  O187  1  0.49105466  0.14329694  0.74145071  1
  O  O188  1  0.49194789  0.64019644  0.25928444  1
  O  O189  1  0.48362192  0.62031178  0.74092059  1
  O  O190  1  0.99770425  0.14287020  0.24276322  1
  O  O191  1  0.99734884  0.14407661  0.75280353  1
  O  O192  1  0.99566891  0.62685804  0.24531256  1
  O  O193  1  1.00716239  0.61292675  0.72192388  1
  O  O194  1  0.36915635  0.25465280  0.00804982  1
  O  O195  1  0.36763022  0.26228842  0.50382042  1
  O  O196  1  0.38347684  0.76910691  0.01539275  1
  O  O197  1  0.36412047  0.75434731  0.50131234  1
  O  O198  1  0.86887739  0.24954524  0.01598964  1
  O  O199  1  0.86490924  0.25119366  0.49691526  1
  O  O200  1  0.88676439  0.76311105  -0.00282337  1
  O  O201  1  0.88732791  0.74772522  0.51288722  1
  O  O202  1  0.14382017  0.24497455  0.50706044  1
  O  O203  1  0.13638969  0.25689205  1.00767503  1
  O  O204  1  0.13962878  0.75591078  0.48295078  1
  O  O205  1  0.13093031  0.75188743  1.01672754  1
  O  O206  1  0.61652162  0.26652875  0.48595443  1
  O  O207  1  0.63471760  0.24604019  0.99417296  1
  O  O208  1  0.61371530  0.73249104  0.50051388  1
  O  O209  1  0.59745103  0.75353944  0.99079274  1
  O  O210  1  0.49757147  0.24077313  0.12577478  1
  O  O211  1  0.49697982  0.25203882  0.63752333  1
  O  O212  1  0.48555075  0.76411622  0.14174448  1
  O  O213  1  0.50349022  0.76619309  0.64268298  1
  O  O214  1  0.98043452  0.24245432  0.12574442  1
  O  O215  1  0.99621539  0.25624342  0.63328067  1
  O  O216  1  1.00716718  0.73635355  0.14137145  1
  O  O217  1  1.01112853  0.72514371  0.60526935  1
  O  O218  1  -0.01378962  0.25790406  0.35814241  1
  O  O219  1  -0.00622702  0.26256706  0.88026041  1
  O  O220  1  0.01571401  0.73716194  0.36868717  1
  O  O221  1  0.00257248  0.77159394  0.87339902  1
  O  O222  1  0.50702266  0.24730094  0.36184644  1
  O  O223  1  0.50756273  0.24601661  0.86260492  1
  O  O224  1  0.48855642  0.76466597  0.35997033  1
  O  O225  1  0.51711700  0.76052808  0.87148545  1
  O  O226  1  0.25879870  0.14024289  0.50532144  1
  O  O227  1  0.24902134  0.13757558  0.99090598  1
  O  O228  1  0.25886110  0.63724582  0.48131573  1
  O  O229  1  0.26366755  0.67528629  0.93836901  1
  O  O230  1  0.73911670  0.15064774  0.49665412  1
  O  O231  1  0.75654535  0.14330555  1.00517080  1
  O  O232  1  0.74083730  0.62233265  0.48405878  1
  O  O233  1  0.74688854  0.65594363  1.05061747  1
  O  O234  1  0.26046716  0.35789956  -0.01547703  1
  O  O235  1  0.26007670  0.36460513  0.49437355  1
  O  O236  1  0.26260145  0.88435381  0.01937886  1
  O  O237  1  0.26270032  0.85833842  0.48940707  1
  O  O238  1  0.75245722  0.34991790  -0.00367113  1
  O  O239  1  0.74916216  0.36835319  0.50587507  1
  O  O240  1  0.76121788  0.87043684  0.01392835  1
  O  O241  1  0.75274060  0.85903734  0.52903709  1
  O  O242  1  0.12187297  0.48692190  0.24959769  1
  O  O243  1  0.13856038  0.48881068  0.73804181  1
  O  O244  1  0.11881553  0.99142411  0.23873029  1
  O  O245  1  0.13962305  1.00764189  0.74692869  1
  O  O246  1  0.62878715  0.48768120  0.24661188  1
  O  O247  1  0.63061007  0.50664508  0.73369299  1
  O  O248  1  0.61036545  0.99467447  0.25122629  1
  O  O249  1  0.54638395  0.96044044  0.72826683  1
  O  O250  1  0.37584126  0.00035029  0.26007425  1
  O  O251  1  0.36691858  -0.01217815  0.77737518  1
  O  O252  1  0.38726383  0.50824751  0.25441325  1
  O  O253  1  0.35876616  0.50629283  0.74295386  1
  O  O254  1  0.86290028  -0.05243863  0.26757146  1
  O  O255  1  0.88137118  -0.00629470  0.76945956  1
  O  O256  1  0.86898296  0.50804729  0.25940390  1
  O  O257  1  0.86537508  0.49687993  0.75604649  1
  O  O258  1  0.11008773  0.37486006  0.36508977  1
  O  O259  1  0.10739786  0.38442682  0.85906772  1
  O  O260  1  0.11673217  0.87198485  0.37194596  1
  O  O261  1  0.11938984  0.88032191  0.88655883  1
  O  O262  1  0.62521024  0.36383301  0.35964305  1
  O  O263  1  0.60871729  0.37673435  0.88107563  1
  O  O264  1  0.60471346  0.88099208  0.37026266  1
  O  O265  1  0.64595167  0.83928385  0.87890169  1
  O  O266  1  0.38536338  0.14179641  0.11958501  1
  O  O267  1  0.38468848  0.15623754  0.61825588  1
  O  O268  1  0.37428952  0.64212247  0.13374751  1
  O  O269  1  0.36738503  0.63065381  0.63489109  1
  O  O270  1  0.88087814  0.11071782  0.13543569  1
  O  O271  1  0.79382270  0.12443192  0.67235629  1
  O  O272  1  0.88297759  0.62092774  0.14379900  1
  O  O273  1  0.89673837  0.62445148  0.61444581  1
  O  O274  1  0.26019788  0.24746383  0.10947965  1
  O  O275  1  0.26131414  0.25375903  0.62388691  1
  O  O276  1  0.26734692  0.76456677  0.13132418  1
  O  O277  1  0.23896394  0.74110084  0.60431035  1
  O  O278  1  0.76288082  0.25210998  0.12923569  1
  O  O279  1  0.73904583  0.26714127  0.61036469  1
  O  O280  1  0.76241595  0.78328811  0.15967209  1
  O  O281  1  0.78705385  0.72764606  0.63586999  1
  O  O282  1  0.25961673  0.24368869  0.38668131  1
  O  O283  1  0.24813319  0.23792499  0.88375582  1
  O  O284  1  0.24606244  0.73999634  0.37614895  1
  O  O285  1  0.20291906  0.66916702  0.89533299  1
  O  O286  1  0.73949608  0.25073119  0.38610162  1
  O  O287  1  0.74756382  0.24575348  0.87663977  1
  O  O288  1  0.75716128  0.73971365  0.36826282  1
  O  O289  1  0.71700301  0.71442008  0.91616422  1
  O  O290  1  -0.00686476  0.11512355  0.01330338  1
  O  O291  1  0.01187920  0.12943487  0.49557499  1
  O  O292  1  0.00017343  0.61981615  0.01866112  1
  O  O293  1  0.00606928  0.60149224  0.49986390  1
  O  O294  1  0.50223229  0.11739746  0.01075262  1
  O  O295  1  0.50588528  0.14741433  0.51079706  1
  O  O296  1  0.47519684  0.62953826  -0.00720428  1
  O  O297  1  0.51275802  0.61410513  0.48958012  1
  O  O298  1  0.48635964  0.38888393  0.49853730  1
  O  O299  1  0.48980672  0.36849825  0.98687246  1
  O  O300  1  0.48071061  0.85856243  0.48404180  1
  O  O301  1  0.48086807  0.89676539  1.01707906  1
  O  O302  1  1.00222530  0.37786611  0.48766998  1
  O  O303  1  0.99956565  0.38772062  0.98868992  1
  O  O304  1  1.00765509  0.88286234  0.49071037  1
  O  O305  1  0.99462611  0.88450614  0.99896492  1
  O  O306  1  0.49101451  0.50322029  0.38011565  1
  O  O307  1  0.49679014  0.48752704  0.86690684  1
  O  O308  1  0.48801126  0.98894521  0.37474289  1
  O  O309  1  0.48286394  1.00789886  0.89264237  1
  O  O310  1  0.99209361  0.49168028  0.37990080  1
  O  O311  1  0.98338283  0.49209257  0.88029046  1
  O  O312  1  0.99200121  0.99269519  0.38378048  1
  O  O313  1  1.00205051  0.99479439  0.88760753  1
  O  O314  1  0.00642883  0.00578332  0.12384077  1
  O  O315  1  -0.00506155  0.01094445  0.62795008  1
  O  O316  1  -0.00710084  0.50924541  0.11129132  1
  O  O317  1  0.00316735  0.49811517  0.61329844  1
  O  O318  1  0.49615213  0.01746570  0.11723712  1
  O  O319  1  0.46136601  0.03383779  0.61235781  1
  O  O320  1  0.50952004  0.49891067  0.11828761  1
  O  O321  1  0.51220073  0.49623738  0.61748544  1
  O  O322  1  0.22620816  0.36319490  0.24631747  1
  O  O323  1  0.23664657  0.38048082  0.76090765  1
  O  O324  1  0.24058002  0.87485981  0.24526396  1
  O  O325  1  0.24077164  0.89556160  0.76836529  1
  O  O326  1  0.73804704  0.38112343  0.25246501  1
  O  O327  1  0.74810016  0.38389909  0.73031743  1
  O  O328  1  0.72275461  0.88425040  0.26921871  1
  O  O329  1  0.77300463  0.84506733  0.74374592  1
  O  O330  1  0.26021822  0.14524824  0.23893015  1
  O  O331  1  0.24584748  0.11939588  0.77085832  1
  O  O332  1  0.26847484  0.62650679  0.26349411  1
  O  O333  1  0.24531462  0.60603337  0.74789755  1
  O  O334  1  0.74130744  0.11909415  0.27296856  1
  O  O335  1  0.68858577  0.09364589  0.79417343  1
  O  O336  1  0.75686293  0.62010317  0.25994197  1
  O  O337  1  0.74751079  0.60507056  0.73876486  1
  O  O338  1  0.38197180  0.10604732  0.38142082  1
  O  O339  1  0.37069821  0.11883696  0.88025080  1
  O  O340  1  0.37070375  0.61541889  0.36831439  1
  O  O341  1  0.37237158  0.63405623  0.85038303  1
  O  O342  1  0.84983795  0.12272892  0.38370147  1
  O  O343  1  0.87771074  0.10958374  0.87148606  1
  O  O344  1  0.86429539  0.61518649  0.36982961  1
  O  O345  1  0.87353550  0.61349107  0.86487351  1
  O  O346  1  0.11610496  0.38344555  0.12779068  1
  O  O347  1  0.11743747  0.38449813  0.64069971  1
  O  O348  1  0.13237773  0.88420554  0.13736588  1
  O  O349  1  0.12852004  0.88759735  0.62531969  1
  O  O350  1  0.62474001  0.38306388  0.13636086  1
  O  O351  1  0.63350874  0.39425505  0.61689692  1
  O  O352  1  0.63757833  0.87745062  0.13727955  1
  O  O353  1  0.65706306  0.80841549  0.64486842  1
  O  O354  1  0.09801918  0.26577766  0.23412128  1
  O  O355  1  0.11669742  0.26200199  0.74447221  1
  O  O356  1  0.11852589  0.76486314  0.26160929  1
  O  O357  1  0.10703057  0.74451369  0.74096237  1
  O  O358  1  0.62109142  0.26097464  0.25015319  1
  O  O359  1  0.61732612  0.24365698  0.74753940  1
  O  O360  1  0.60944606  0.75712479  0.24550271  1
  O  O361  1  0.63845796  0.72619362  0.78700066  1
  O  O362  1  0.38513570  0.26400439  0.23242359  1
  O  O363  1  0.37656237  0.26138676  0.73916166  1
  O  O364  1  0.38025930  0.74514796  0.24304218  1
  O  O365  1  0.35839600  0.74049863  0.74031507  1
  O  O366  1  0.88424720  0.26150623  0.23330051  1
  O  O367  1  0.88752275  0.25243970  0.75123806  1
  O  O368  1  0.89139567  0.74199114  0.26299120  1
  O  O369  1  0.92482704  0.74187613  0.73816347  1
  O  O370  1  0.38119262  0.49678944  0.49118632  1
  O  O371  1  0.36235171  0.47497124  1.00939707  1
  O  O372  1  0.36417393  0.98255133  0.49172395  1
  O  O373  1  0.37377691  0.99745632  0.99449452  1
  O  O374  1  0.88155636  0.50103381  0.48788721  1
  O  O375  1  0.88076515  0.50917276  0.98582817  1
  O  O376  1  0.85910641  0.99611719  0.51512876  1
  O  O377  1  0.88593635  0.99553414  0.99019918  1
  O  O378  1  0.11371820  -0.00394104  0.02044082  1
  O  O379  1  0.13039421  0.01383396  0.50315907  1
  O  O380  1  0.10311875  0.50454607  -0.01434367  1
  O  O381  1  0.11807538  0.48110400  0.50874531  1
  O  O382  1  0.60734602  -0.01193814  -0.00889453  1
  O  O383  1  0.60054354  -0.05854787  0.53819322  1
  O  O384  1  0.64197521  0.49869513  0.02033717  1
  O  O385  1  0.61615183  0.50408252  0.50106581  1
  O  O386  1  0.38558689  0.35771858  0.10924437  1
  O  O387  1  0.37976144  0.36786290  0.61315145  1
  O  O388  1  0.36682276  0.87384819  0.12707504  1
  O  O389  1  0.38144741  0.87356057  0.61078024  1
  O  O390  1  0.87331152  0.37662228  0.11988146  1
  O  O391  1  0.86242899  0.38014050  0.61987044  1
  O  O392  1  0.87443630  0.87859207  0.10943442  1
  O  O393  1  0.87890738  0.85260214  0.62810469  1
  O  O394  1  0.13804964  0.12942345  0.39893443  1
  O  O395  1  0.12855141  0.12332169  0.88235636  1
  O  O396  1  0.14156172  0.62962516  0.36476791  1
  O  O397  1  0.05481093  0.63822142  0.85415136  1
  O  O398  1  0.62796796  0.14863852  0.37406006  1
  O  O399  1  0.63429450  0.10102419  0.84665695  1
  O  O400  1  0.63917405  0.62226692  0.38020887  1
  O  O401  1  0.59644324  0.63523732  0.89251564  1
