# generated using pymatgen
data_V73Zn73O256
_symmetry_space_group_name_H-M   'P 1'
_cell_length_a   16.83186717
_cell_length_b   16.85328734
_cell_length_c   16.83997471
_cell_angle_alpha   89.96874148
_cell_angle_beta   89.93275464
_cell_angle_gamma   89.99120558
_symmetry_Int_Tables_number   1
_chemical_formula_structural   V73Zn73O256
_chemical_formula_sum   'V73 Zn73 O256'
_cell_volume   4777.03019705
_cell_formula_units_Z   1
loop_
 _symmetry_equiv_pos_site_id
 _symmetry_equiv_pos_as_xyz
  1  'x, y, z'
loop_
 _atom_site_type_symbol
 _atom_site_label
 _atom_site_symmetry_multiplicity
 _atom_site_fract_x
 _atom_site_fract_y
 _atom_site_fract_z
 _atom_site_occupancy
  V  V0  1  -0.01129696  0.37062251  0.38926960  1
  V  V1  1  0.12128756  0.36916668  0.74692502  1
  V  V2  1  0.64801279  0.63260201  0.50249830  1
  V  V3  1  0.61638935  0.25437797  0.89493838  1
  V  V4  1  0.87610074  0.11647676  0.23953886  1
  V  V5  1  0.01394402  0.87368934  0.37809656  1
  V  V6  1  0.49452259  0.87767358  0.88534228  1
  V  V7  1  0.38165839  0.23271518  0.14697051  1
  V  V8  1  0.76639456  0.25597581  0.49961957  1
  V  V9  1  -0.01922727  -0.02984992  -0.01155109  1
  V  V10  1  0.38178839  0.12023241  0.73424046  1
  V  V11  1  0.61298787  0.54411302  0.09437622  1
  V  V12  1  0.75270089  0.11927430  0.38488114  1
  V  V13  1  0.49984640  0.62534072  0.61055341  1
  V  V14  1  0.61727740  0.24953457  0.38206659  1
  V  V15  1  0.64027044  0.38244596  0.24834503  1
  V  V16  1  0.73966965  0.86683463  0.62875175  1
  V  V17  1  0.25401841  0.76337981  -0.00191003  1
  V  V18  1  0.12025651  0.75195613  0.87181037  1
  V  V19  1  0.87364412  0.86376912  0.51392390  1
  V  V20  1  -0.00418408  0.62308809  0.62376005  1
  V  V21  1  0.35866239  0.25725412  0.61650703  1
  V  V22  1  0.25542988  0.49420393  0.25826000  1
  V  V23  1  0.76632093  0.61477074  0.35772520  1
  V  V24  1  0.50073644  0.74806868  0.24910825  1
  V  V25  1  0.27668710  0.25018036  -0.01375030  1
  V  V26  1  0.74685452  0.49332183  0.75177451  1
  V  V27  1  0.73881109  0.00641133  0.76735179  1
  V  V28  1  0.49815077  0.40006729  0.37935532  1
  V  V29  1  0.37497270  0.62108801  0.74677536  1
  V  V30  1  0.75825190  0.75858148  -0.00167264  1
  V  V31  1  0.11248919  0.00422838  0.61642862  1
  V  V32  1  0.48478700  0.39280960  0.88495317  1
  V  V33  1  0.36503632  0.38994768  0.49682182  1
  V  V34  1  0.02021378  0.75556325  0.24988310  1
  V  V35  1  0.74437504  0.62415512  0.88111087  1
  V  V36  1  0.25276070  0.61978776  0.87236561  1
  V  V37  1  0.88328387  -0.00047841  0.38735248  1
  V  V38  1  0.38064537  0.01220953  0.36131697  1
  V  V39  1  0.12242043  0.50058305  0.62106896  1
  V  V40  1  0.50420956  0.75652792  0.74508838  1
  V  V41  1  0.12266772  0.61982428  -0.00030742  1
  V  V42  1  -0.00520048  0.38356123  0.88435147  1
  V  V43  1  0.37115175  0.75147111  0.61506866  1
  V  V44  1  0.23081919  0.02280119  0.25816440  1
  V  V45  1  0.64117526  0.75808545  0.37342102  1
  V  V46  1  0.87967986  0.76376228  0.12921075  1
  V  V47  1  0.24310930  0.87810484  0.15020631  1
  V  V48  1  0.74436928  0.88125645  0.14288576  1
  V  V49  1  0.62697391  0.02067968  0.62289356  1
  V  V50  1  0.12313944  0.87608040  0.74837846  1
  V  V51  1  -0.00434869  0.75016844  0.74758919  1
  V  V52  1  0.86956831  0.12904903  0.77348737  1
  V  V53  1  0.11170035  0.62421193  0.48274909  1
  V  V54  1  0.12592127  0.49607970  0.12134928  1
  V  V55  1  -0.00820338  0.24348776  0.23425933  1
  V  V56  1  0.83351473  0.37362042  0.03086056  1
  V  V57  1  0.24885311  0.87861768  0.61920243  1
  V  V58  1  0.50354285  0.01382988  0.50654836  1
  V  V59  1  0.25064954  0.49620240  0.74400698  1
  V  V60  1  0.50651658  0.26668213  0.73684591  1
  V  V61  1  0.26487690  0.62841347  0.36999972  1
  V  V62  1  0.37208494  -0.00141996  0.89646638  1
  V  V63  1  0.12298322  0.36427154  0.25534411  1
  V  V64  1  0.62397652  0.75219711  0.87692437  1
  V  V65  1  0.76234828  0.37555514  0.62374923  1
  V  V66  1  0.50679716  0.87620200  0.37268703  1
  V  V67  1  0.87314346  0.62631695  0.74846740  1
  V  V68  1  0.26545411  0.37639718  0.11584445  1
  V  V69  1  -0.00856208  0.61693978  0.12680382  1
  V  V70  1  -0.00880338  0.12237794  0.62518525  1
  V  V71  1  0.62261908  0.49157504  0.61843108  1
  V  V72  1  0.11656805  0.24694608  0.88278544  1
  Zn  Zn73  1  0.07033966  0.08816851  0.06764444  1
  Zn  Zn74  1  0.38168541  0.75050360  0.11725342  1
  Zn  Zn75  1  0.39968102  0.60714016  0.23794417  1
  Zn  Zn76  1  0.88504948  0.25153040  0.63579854  1
  Zn  Zn77  1  0.23940324  0.75685097  0.48578213  1
  Zn  Zn78  1  0.37582796  0.88013681  0.49600720  1
  Zn  Zn79  1  0.87585422  0.50042067  0.88826669  1
  Zn  Zn80  1  0.24637535  0.12195637  0.87262628  1
  Zn  Zn81  1  0.25052239  0.00397121  0.74712364  1
  Zn  Zn82  1  0.19245889  0.19330297  0.17938274  1
  Zn  Zn83  1  0.18835009  0.18360430  0.68974949  1
  Zn  Zn84  1  0.20000319  0.68285793  0.18271554  1
  Zn  Zn85  1  0.18583683  0.68654566  0.68126244  1
  Zn  Zn86  1  0.69126393  0.19165232  0.20676767  1
  Zn  Zn87  1  0.69110005  0.19209865  0.69056126  1
  Zn  Zn88  1  0.68676799  0.68829625  0.18467245  1
  Zn  Zn89  1  0.68645580  0.68549595  0.69204255  1
  Zn  Zn90  1  0.31402202  0.31049536  0.32289184  1
  Zn  Zn91  1  0.31717592  0.31408735  0.80583726  1
  Zn  Zn92  1  0.31812738  0.81806462  0.31494999  1
  Zn  Zn93  1  0.31274536  0.81230370  0.80903871  1
  Zn  Zn94  1  0.81920623  0.31026080  0.31225869  1
  Zn  Zn95  1  0.80378828  0.30627311  0.82457019  1
  Zn  Zn96  1  0.82441009  0.81191978  0.31156837  1
  Zn  Zn97  1  0.81089502  0.82004775  0.81088981  1
  Zn  Zn98  1  0.17566965  0.43760974  0.43582789  1
  Zn  Zn99  1  0.19225998  0.43288206  0.93391809  1
  Zn  Zn100  1  0.19135934  0.95155320  0.43709006  1
  Zn  Zn101  1  0.18075039  0.94231764  0.93330172  1
  Zn  Zn102  1  0.69337769  0.43757211  0.43517383  1
  Zn  Zn103  1  0.66681124  0.43777487  0.93981150  1
  Zn  Zn104  1  0.69208325  0.93873045  0.44658152  1
  Zn  Zn105  1  0.67171583  0.93368078  0.94944746  1
  Zn  Zn106  1  0.27723554  0.07638988  0.07960207  1
  Zn  Zn107  1  0.30953883  0.06718472  0.55429278  1
  Zn  Zn108  1  0.30899916  0.57386802  0.07010348  1
  Zn  Zn109  1  0.30514514  0.56468963  0.55701579  1
  Zn  Zn110  1  0.82931442  0.04393029  0.05814435  1
  Zn  Zn111  1  0.81473403  0.06094532  0.56738511  1
  Zn  Zn112  1  0.80155857  0.55414209  0.06647863  1
  Zn  Zn113  1  0.82189692  0.55424255  0.55583485  1
  Zn  Zn114  1  0.45537051  0.43044491  0.18863522  1
  Zn  Zn115  1  0.43608392  0.43814003  0.67712781  1
  Zn  Zn116  1  0.43413820  0.92965027  0.17967940  1
  Zn  Zn117  1  0.44222166  0.93485617  0.68417541  1
  Zn  Zn118  1  0.91972446  0.43836204  0.19552803  1
  Zn  Zn119  1  0.93751580  0.44080331  0.69491983  1
  Zn  Zn120  1  0.95133654  0.94405252  0.18871702  1
  Zn  Zn121  1  0.92307254  0.93438773  0.71474997  1
  Zn  Zn122  1  0.05997382  0.07979140  0.33242052  1
  Zn  Zn123  1  0.05528942  0.06349364  0.81522761  1
  Zn  Zn124  1  0.02630618  0.54809026  0.30699812  1
  Zn  Zn125  1  0.06381979  0.56115809  0.81122139  1
  Zn  Zn126  1  0.56470949  0.06609906  0.32054357  1
  Zn  Zn127  1  0.55978886  0.06837420  0.81419358  1
  Zn  Zn128  1  0.57665236  0.56617016  0.31467667  1
  Zn  Zn129  1  0.56416934  0.56495112  0.80528566  1
  Zn  Zn130  1  0.43393022  0.18963170  0.44258309  1
  Zn  Zn131  1  0.45682902  0.18087447  0.91641576  1
  Zn  Zn132  1  0.44100885  0.68760092  0.43030680  1
  Zn  Zn133  1  0.43550749  0.68825229  0.93185286  1
  Zn  Zn134  1  0.95870624  0.19175478  0.43678686  1
  Zn  Zn135  1  0.92763095  0.19631539  0.95807548  1
  Zn  Zn136  1  0.93729345  0.69392896  0.43735488  1
  Zn  Zn137  1  0.93545336  0.68916420  0.93853039  1
  Zn  Zn138  1  0.06567377  0.31374684  0.05938028  1
  Zn  Zn139  1  0.05483866  0.31227981  0.58035139  1
  Zn  Zn140  1  0.06974899  0.81882024  0.06222770  1
  Zn  Zn141  1  0.06098702  0.80839676  0.56046330  1
  Zn  Zn142  1  0.54976063  0.32925792  0.06648087  1
  Zn  Zn143  1  0.55902601  0.30685551  0.55341380  1
  Zn  Zn144  1  0.56623407  0.81197015  0.06403615  1
  Zn  Zn145  1  0.56419678  0.81553557  0.55613293  1
  O  O146  1  0.16650852  0.10701439  0.11468739  1
  O  O147  1  0.11253226  0.11086751  0.63963216  1
  O  O148  1  0.12646041  0.61546794  0.11627270  1
  O  O149  1  0.11513219  0.61725067  0.61943637  1
  O  O150  1  0.60812957  0.08514049  0.18083832  1
  O  O151  1  0.62824302  0.11912880  0.61851648  1
  O  O152  1  0.61145002  0.64685136  0.11042868  1
  O  O153  1  0.62099923  0.62732517  0.61322464  1
  O  O154  1  0.38720237  0.37496415  0.38441449  1
  O  O155  1  0.38380017  0.38383142  0.86357568  1
  O  O156  1  0.38811222  0.88749042  0.37707981  1
  O  O157  1  0.38079801  0.88624854  0.86834804  1
  O  O158  1  0.88867569  0.37672634  0.37515959  1
  O  O159  1  0.89125094  0.37589722  0.86203238  1
  O  O160  1  0.87586508  0.88480736  0.38735994  1
  O  O161  1  0.89940388  0.88612682  0.82006954  1
  O  O162  1  0.26826799  -0.00520447  0.36115389  1
  O  O163  1  0.26322958  -0.00128053  0.86867769  1
  O  O164  1  0.24504529  0.50336131  0.36212838  1
  O  O165  1  0.24454200  0.51281146  0.86362125  1
  O  O166  1  0.75981365  0.01276480  0.38328132  1
  O  O167  1  0.72217943  -0.00336398  0.86586803  1
  O  O168  1  0.75469797  0.51697650  0.38332347  1
  O  O169  1  0.74196867  0.50774975  0.86584711  1
  O  O170  1  0.24470434  0.49427892  0.13141194  1
  O  O171  1  0.23637298  0.50959075  0.63367658  1
  O  O172  1  0.26330509  0.98731080  0.15746708  1
  O  O173  1  0.24020568  0.99386105  0.62245974  1
  O  O174  1  0.71012358  0.51977031  0.12376223  1
  O  O175  1  0.74543994  0.49256916  0.62886617  1
  O  O176  1  0.75346160  0.97834426  0.11327968  1
  O  O177  1  0.73419522  0.99847832  0.62485578  1
  O  O178  1  0.01394257  0.36785173  0.24670984  1
  O  O179  1  0.01621641  0.37765950  0.75648695  1
  O  O180  1  0.00023628  0.86660110  0.26177930  1
  O  O181  1  0.01756291  0.86085132  0.73226292  1
  O  O182  1  0.50878140  0.37483846  0.27569605  1
  O  O183  1  0.49918137  0.36989159  0.74259600  1
  O  O184  1  0.50487853  0.86876964  0.26551694  1
  O  O185  1  0.49121840  0.86069754  0.75677783  1
  O  O186  1  0.54007254  0.11938113  0.21625958  1
  O  O187  1  0.48363836  0.13831140  0.74885594  1
  O  O188  1  0.50648846  0.64065136  0.26217295  1
  O  O189  1  0.49218659  0.63432254  0.73501568  1
  O  O190  1  0.99129069  0.13478373  0.24804465  1
  O  O191  1  0.97491190  0.11453736  0.75112639  1
  O  O192  1  1.01286433  0.64216247  0.23163616  1
  O  O193  1  0.99390074  0.62915021  0.74426087  1
  O  O194  1  0.37691133  0.24549350  -0.01723488  1
  O  O195  1  0.37458121  0.25476308  0.51186732  1
  O  O196  1  0.35758271  0.74337266  -0.00298459  1
  O  O197  1  0.37238343  0.75021906  0.50668813  1
  O  O198  1  0.86639318  0.28389786  -0.00791003  1
  O  O199  1  0.86856495  0.24491194  0.50472465  1
  O  O200  1  0.87005512  0.74793361  0.01236105  1
  O  O201  1  0.87445032  0.76419719  0.50591284  1
  O  O202  1  0.24037443  0.20650068  0.45832635  1
  O  O203  1  0.13343805  0.25306662  0.98509886  1
  O  O204  1  0.12632928  0.72950216  0.50139394  1
  O  O205  1  0.13374361  0.74264677  0.98882915  1
  O  O206  1  0.64062640  0.25245976  0.48828643  1
  O  O207  1  0.60846933  0.25910829  0.99494332  1
  O  O208  1  0.62590669  0.73920520  0.48986474  1
  O  O209  1  0.63372787  0.75199670  0.98270199  1
  O  O210  1  0.47615372  0.25950132  0.12318913  1
  O  O211  1  0.48968704  0.25562165  0.63097717  1
  O  O212  1  0.49882308  0.76247163  0.14498540  1
  O  O213  1  0.49300562  0.74649957  0.62567374  1
  O  O214  1  1.00366002  0.25312085  0.13354004  1
  O  O215  1  1.00335002  0.22963865  0.63538768  1
  O  O216  1  0.99580019  0.74883349  0.13069591  1
  O  O217  1  1.00539401  0.73580634  0.63598484  1
  O  O218  1  -0.00190603  0.26427192  0.34724262  1
  O  O219  1  0.01318693  0.26192207  0.87793721  1
  O  O220  1  -0.00009430  0.75970952  0.35968757  1
  O  O221  1  0.01121624  0.73972612  0.86298802  1
  O  O222  1  0.51759804  0.23812374  0.38121425  1
  O  O223  1  0.49563950  0.27316694  0.85484353  1
  O  O224  1  0.51404480  0.75886719  0.37409826  1
  O  O225  1  0.50312698  0.75289940  0.86561606  1
  O  O226  1  0.23181222  0.12887808  0.48113083  1
  O  O227  1  0.25686377  0.14667608  0.98678688  1
  O  O228  1  0.23781261  0.62045688  0.47787924  1
  O  O229  1  0.24093001  0.63189851  0.98989750  1
  O  O230  1  0.75752292  0.13537250  0.49175126  1
  O  O231  1  0.72699757  0.13755464  1.04669105  1
  O  O232  1  0.74860451  0.63263753  0.50632548  1
  O  O233  1  0.75779716  0.63689934  0.98571400  1
  O  O234  1  0.25377895  0.36585759  0.00514095  1
  O  O235  1  0.26487985  0.37849589  0.48332385  1
  O  O236  1  0.24865114  0.86282060  -0.01317990  1
  O  O237  1  0.25114877  0.87464332  0.50596549  1
  O  O238  1  0.73368503  0.37591034  0.01267184  1
  O  O239  1  0.75477871  0.36503278  0.50651593  1
  O  O240  1  0.74646166  0.86191280  0.00266097  1
  O  O241  1  0.76252292  0.87856478  0.51527105  1
  O  O242  1  0.13249859  0.48455199  0.23783090  1
  O  O243  1  0.13222328  0.49414431  0.74247915  1
  O  O244  1  0.13132204  1.01494855  0.27205542  1
  O  O245  1  0.12894654  0.98833893  0.74406540  1
  O  O246  1  0.63046183  0.48324542  0.26348761  1
  O  O247  1  0.63813845  0.51383938  0.72801656  1
  O  O248  1  0.63327437  1.02312787  0.22805590  1
  O  O249  1  0.62618854  1.01066467  0.73573964  1
  O  O250  1  0.39231319  0.00234803  0.26084077  1
  O  O251  1  0.37622417  0.01368948  0.73616637  1
  O  O252  1  0.35852218  0.49635901  0.24486080  1
  O  O253  1  0.36544164  0.51372124  0.73186388  1
  O  O254  1  0.88443861  0.01133666  0.26320729  1
  O  O255  1  0.84856498  0.01601144  0.75517902  1
  O  O256  1  0.92303669  0.52266163  0.26358885  1
  O  O257  1  0.86323372  0.50925747  0.75488189  1
  O  O258  1  0.13677021  0.36247564  0.35583825  1
  O  O259  1  0.11781762  0.37142805  0.86585813  1
  O  O260  1  0.11243121  0.88050373  0.38594891  1
  O  O261  1  0.13465100  0.86033242  0.86004560  1
  O  O262  1  0.61496475  0.36801221  0.38058585  1
  O  O263  1  0.60364371  0.36500143  0.87539822  1
  O  O264  1  0.62683718  0.86397130  0.38513964  1
  O  O265  1  0.60524457  0.86800504  0.87484919  1
  O  O266  1  0.37001264  0.13478484  0.12359883  1
  O  O267  1  0.37034610  0.13668424  0.62803659  1
  O  O268  1  0.34386220  0.64682494  0.14784860  1
  O  O269  1  0.37921849  0.63297404  0.62421146  1
  O  O270  1  0.86535407  0.11445717  0.14115067  1
  O  O271  1  0.88043403  0.12420673  0.63710347  1
  O  O272  1  0.89000067  0.62579113  0.11624895  1
  O  O273  1  0.88363031  0.61789362  0.63661057  1
  O  O274  1  0.26984466  0.25746533  0.10710094  1
  O  O275  1  0.25831756  0.25025218  0.62402198  1
  O  O276  1  0.23907655  0.76290345  0.10694120  1
  O  O277  1  0.25565586  0.75743282  0.61869658  1
  O  O278  1  0.72600916  0.19859057  0.09178529  1
  O  O279  1  0.74811823  0.25942631  0.61336296  1
  O  O280  1  0.76670334  0.75308006  0.11997921  1
  O  O281  1  0.74787726  0.76761156  0.63958098  1
  O  O282  1  0.25139443  0.21632108  0.38092821  1
  O  O283  1  0.24485820  0.25988215  0.88119363  1
  O  O284  1  0.25391367  0.73309739  0.36868959  1
  O  O285  1  0.24309208  0.74039260  0.87760169  1
  O  O286  1  0.75503016  0.24375465  0.38971895  1
  O  O287  1  0.71596519  0.24988102  0.87192995  1
  O  O288  1  0.74380217  0.74623326  0.37059949  1
  O  O289  1  0.74596642  0.74879428  0.87610667  1
  O  O290  1  -0.01494925  0.11247913  -0.00017493  1
  O  O291  1  -0.01365496  0.11499092  0.52655508  1
  O  O292  1  0.01375349  0.63488950  0.01325543  1
  O  O293  1  0.00542415  0.62932549  0.50778759  1
  O  O294  1  0.53215346  0.00698558  0.05138606  1
  O  O295  1  0.50024283  0.11267117  0.50151543  1
  O  O296  1  0.46033068  0.59520912  0.00371400  1
  O  O297  1  0.50636846  0.62881998  0.50792221  1
  O  O298  1  0.49079999  0.37239504  0.48629193  1
  O  O299  1  0.48864375  0.38709306  0.98676745  1
  O  O300  1  0.49922208  0.88462145  0.48894766  1
  O  O301  1  0.49164182  0.85774077  0.98371662  1
  O  O302  1  1.01092316  0.33694762  0.48392361  1
  O  O303  1  1.00452508  0.37853901  0.98500366  1
  O  O304  1  0.98955593  0.86574007  0.48731095  1
  O  O305  1  0.99264020  0.86866750  0.99629476  1
  O  O306  1  0.50335926  0.49952363  0.38135069  1
  O  O307  1  0.50145029  0.49198239  0.85949670  1
  O  O308  1  0.50036404  0.99719663  0.38491857  1
  O  O309  1  0.48908797  0.98572057  0.87488740  1
  O  O310  1  1.02797472  0.46540726  0.38536173  1
  O  O311  1  0.99897759  0.48998276  0.87210499  1
  O  O312  1  0.99063913  0.98587886  0.37384981  1
  O  O313  1  1.01561029  0.98578904  0.88560801  1
  O  O314  1  -0.00449709  -0.00614911  0.09827723  1
  O  O315  1  0.00837205  0.00146304  0.63748078  1
  O  O316  1  0.01176832  0.51258410  0.12557460  1
  O  O317  1  0.01065320  0.50967040  0.63311859  1
  O  O318  1  0.52837419  -0.04974440  0.10979789  1
  O  O319  1  0.51214929  -0.00472502  0.61447502  1
  O  O320  1  0.52482586  0.50326879  0.13695836  1
  O  O321  1  0.51633870  0.50982270  0.62709558  1
  O  O322  1  0.24469642  0.38016509  0.24358221  1
  O  O323  1  0.23920463  0.38960177  0.75576050  1
  O  O324  1  0.23606465  0.86790046  0.25146848  1
  O  O325  1  0.24201212  0.87258622  0.73435039  1
  O  O326  1  0.74161398  0.37291950  0.26088240  1
  O  O327  1  0.75096778  0.38609844  0.74213637  1
  O  O328  1  0.75875586  0.87666377  0.24292671  1
  O  O329  1  0.74947398  0.89519823  0.73634312  1
  O  O330  1  0.25098845  0.11919811  0.25444439  1
  O  O331  1  0.26731616  0.12665066  0.75515399  1
  O  O332  1  0.23591115  0.60892564  0.26467528  1
  O  O333  1  0.25438563  0.62040070  0.75282713  1
  O  O334  1  0.77047511  0.13552778  0.27108966  1
  O  O335  1  0.74876041  0.11470197  0.75309406  1
  O  O336  1  0.74867179  0.62602828  0.25904161  1
  O  O337  1  0.75756870  0.61979749  0.75651924  1
  O  O338  1  0.38580730  0.11143638  0.37465133  1
  O  O339  1  0.38121979  0.10535912  0.86542155  1
  O  O340  1  0.36644703  0.62046430  0.36902192  1
  O  O341  1  0.36538259  0.63222165  0.85636597  1
  O  O342  1  0.87511379  0.11200041  0.37814422  1
  O  O343  1  0.86861517  0.13686201  0.87247971  1
  O  O344  1  0.86398411  0.63651079  0.37567983  1
  O  O345  1  0.86686219  0.62070452  0.86852734  1
  O  O346  1  0.13914798  0.38015914  0.12598274  1
  O  O347  1  0.12193288  0.38278947  0.63690177  1
  O  O348  1  0.14655706  0.88404840  0.11549995  1
  O  O349  1  0.13077282  0.88222183  0.62583934  1
  O  O350  1  0.62066334  0.36318547  0.15023928  1
  O  O351  1  0.63174657  0.38945583  0.61287515  1
  O  O352  1  0.64761383  0.85323574  0.13110184  1
  O  O353  1  0.63654540  0.88143530  0.61820097  1
  O  O354  1  0.12104725  0.25945532  0.23766687  1
  O  O355  1  0.13628288  0.26667592  0.75662805  1
  O  O356  1  0.11882241  0.75400863  0.24018138  1
  O  O357  1  0.11971455  0.75162486  0.75386395  1
  O  O358  1  0.63522777  0.26083020  0.27493344  1
  O  O359  1  0.60662895  0.24597785  0.74544070  1
  O  O360  1  0.61907122  0.74659869  0.26903726  1
  O  O361  1  0.61264708  0.74755480  0.75756975  1
  O  O362  1  0.36648541  0.24453486  0.24677659  1
  O  O363  1  0.37973454  0.24571503  0.73394811  1
  O  O364  1  0.39790056  0.75033571  0.26478733  1
  O  O365  1  0.37890426  0.74114025  0.73516298  1
  O  O366  1  0.88463040  0.23887235  0.24438929  1
  O  O367  1  0.85433364  0.23316698  0.74861131  1
  O  O368  1  0.88654808  0.74831231  0.23313991  1
  O  O369  1  0.88382254  0.73592828  0.75522127  1
  O  O370  1  0.37641770  0.48951566  0.50896611  1
  O  O371  1  0.40449695  0.54119199  1.00198844  1
  O  O372  1  0.38700116  1.00179060  0.49305294  1
  O  O373  1  0.36339371  1.00486616  0.99345536  1
  O  O374  1  0.89719929  0.48797910  0.51057418  1
  O  O375  1  0.86009621  0.47630321  1.00124927  1
  O  O376  1  0.87648809  0.99281531  0.49137294  1
  O  O377  1  0.87958922  0.98794470  0.97707537  1
  O  O378  1  0.10102038  0.00231239  -0.01810242  1
  O  O379  1  0.12299414  0.00217640  0.51604187  1
  O  O380  1  0.13510431  0.50831938  0.00716132  1
  O  O381  1  0.12897995  0.51188086  0.51067263  1
  O  O382  1  0.60256332  0.01300507  0.01511193  1
  O  O383  1  0.61459822  0.00128997  0.50767079  1
  O  O384  1  0.61388497  0.52381578  -0.00650366  1
  O  O385  1  0.63580211  0.51757966  0.51207808  1
  O  O386  1  0.36676306  0.37575134  0.13342673  1
  O  O387  1  0.37198468  0.36726775  0.61061996  1
  O  O388  1  0.35285751  0.86286280  0.13341186  1
  O  O389  1  0.36637276  0.86777729  0.62224194  1
  O  O390  1  0.85676256  0.37487297  0.13131018  1
  O  O391  1  0.86769263  0.37099696  0.63249006  1
  O  O392  1  0.87160194  0.86554289  0.12835247  1
  O  O393  1  0.86964117  0.88516305  0.61735107  1
  O  O394  1  0.06768624  0.15827810  0.40985673  1
  O  O395  1  0.12753294  0.14519727  0.85875197  1
  O  O396  1  0.10678803  0.61442282  0.38311816  1
  O  O397  1  0.13177957  0.63098329  0.87889336  1
  O  O398  1  0.64512366  0.13469776  0.37162428  1
  O  O399  1  0.57075183  0.14956950  0.89310263  1
  O  O400  1  0.64207015  0.63331380  0.38905312  1
  O  O401  1  0.63613944  0.63738815  0.86367074  1
