# generated using pymatgen
data_V73Zn73O256
_symmetry_space_group_name_H-M   'P 1'
_cell_length_a   16.92638280
_cell_length_b   16.90300587
_cell_length_c   16.93737226
_cell_angle_alpha   90.40434730
_cell_angle_beta   89.81720209
_cell_angle_gamma   89.99077238
_symmetry_Int_Tables_number   1
_chemical_formula_structural   V73Zn73O256
_chemical_formula_sum   'V73 Zn73 O256'
_cell_volume   4845.75107888
_cell_formula_units_Z   1
loop_
 _symmetry_equiv_pos_site_id
 _symmetry_equiv_pos_as_xyz
  1  'x, y, z'
loop_
 _atom_site_type_symbol
 _atom_site_label
 _atom_site_symmetry_multiplicity
 _atom_site_fract_x
 _atom_site_fract_y
 _atom_site_fract_z
 _atom_site_occupancy
  V  V0  1  0.11402254  0.50401443  0.61486651  1
  V  V1  1  0.36727059  0.12410075  0.76350309  1
  V  V2  1  0.24203049  -0.00985409  0.24263702  1
  V  V3  1  0.87249464  0.13198300  0.74504674  1
  V  V4  1  0.87659499  0.12205262  0.25613542  1
  V  V5  1  0.15681911  0.75249727  0.34408998  1
  V  V6  1  0.24636562  0.00194440  0.76241980  1
  V  V7  1  0.74049261  0.87416258  0.60644409  1
  V  V8  1  0.37253294  0.13790412  0.24556789  1
  V  V9  1  0.62978897  0.63580423  0.49593776  1
  V  V10  1  0.62489965  0.26053175  0.87332953  1
  V  V11  1  0.86993327  0.74381831  0.62153493  1
  V  V12  1  0.61971029  0.13110470  0.50806262  1
  V  V13  1  0.36030359  0.74790070  0.61293940  1
  V  V14  1  0.37693319  0.62946444  0.74846537  1
  V  V15  1  0.13308466  0.14060888  -0.00991275  1
  V  V16  1  0.75517918  0.25771123  0.01005364  1
  V  V17  1  0.59077558  0.61068547  0.00864724  1
  V  V18  1  0.85853045  0.86880762  0.00636617  1
  V  V19  1  0.89128529  0.00242215  0.39159585  1
  V  V20  1  0.50239358  0.00173597  0.50544603  1
  V  V21  1  0.37387575  0.24068063  0.61935035  1
  V  V22  1  0.63706853  0.37818912  0.74492820  1
  V  V23  1  0.76332740  0.25783922  0.51371842  1
  V  V24  1  0.52315413  0.74221396  0.24927738  1
  V  V25  1  0.12624223  0.51353137  0.11995357  1
  V  V26  1  0.49274622  0.63077788  0.61858401  1
  V  V27  1  0.25603300  0.37504553  0.61947990  1
  V  V28  1  0.38376023  0.24795677  0.11451710  1
  V  V29  1  -0.00774396  0.25778559  0.25160420  1
  V  V30  1  0.37167708  0.00057430  0.37014250  1
  V  V31  1  0.61959060  0.12989342  0.00073339  1
  V  V32  1  0.25462449  0.50671708  0.25018168  1
  V  V33  1  0.25166373  0.50301927  0.74838541  1
  V  V34  1  0.24861617  0.62735161  0.88175637  1
  V  V35  1  0.75243589  0.72203026  -0.00536683  1
  V  V36  1  -0.00449856  0.13054283  0.12268432  1
  V  V37  1  0.75024166  0.62142892  0.35882455  1
  V  V38  1  0.36262746  0.86922234  0.49332780  1
  V  V39  1  -0.00151634  0.12400881  0.61356563  1
  V  V40  1  0.49642765  0.24361290  0.74434701  1
  V  V41  1  0.24053831  0.12600057  0.37676695  1
  V  V42  1  0.12077331  0.37976780  0.25333269  1
  V  V43  1  -0.00644761  0.84570158  0.37366741  1
  V  V44  1  -0.00646693  0.73300581  0.75227367  1
  V  V45  1  0.87110067  0.50037276  0.86800338  1
  V  V46  1  0.89556724  0.49692998  0.38215604  1
  V  V47  1  0.25034512  0.25196887  0.49714114  1
  V  V48  1  0.00039191  0.24715187  0.75432904  1
  V  V49  1  0.37223901  0.38235817  -0.00990727  1
  V  V50  1  0.10779144  0.88121185  0.75357234  1
  V  V51  1  0.88139694  0.37224522  0.01378753  1
  V  V52  1  0.46003548  -0.01724301  -0.01545714  1
  V  V53  1  0.13113252  0.64905778  0.50102592  1
  V  V54  1  0.37725854  0.49019896  0.37732588  1
  V  V55  1  0.38843885  0.62429425  0.24280353  1
  V  V56  1  0.89874982  0.62436268  0.24083104  1
  V  V57  1  0.74627165  0.12199425  0.37666383  1
  V  V58  1  0.00605990  0.51446793  0.00023219  1
  V  V59  1  0.75159499  0.13133357  0.87133017  1
  V  V60  1  0.11972995  0.00313839  0.60742805  1
  V  V61  1  0.74201456  -0.01106340  0.75862360  1
  V  V62  1  0.24700444  0.36597592  0.11902448  1
  V  V63  1  0.50977933  0.86718620  0.37113484  1
  V  V64  1  0.39159168  0.77283056  0.11002323  1
  V  V65  1  -0.00528507  -0.00664449  -0.00162464  1
  V  V66  1  0.12590276  0.74992967  0.88098559  1
  V  V67  1  0.63670035  0.50048173  0.63002889  1
  V  V68  1  0.12697153  0.36739114  0.75468567  1
  V  V69  1  0.11978879  0.25614021  0.37777698  1
  V  V70  1  0.62638925  0.37192463  0.25908600  1
  V  V71  1  0.49439254  0.48808119  0.50022114  1
  V  V72  1  0.49265543  0.39180042  0.86834235  1
  Zn  Zn73  1  0.61084448  -0.00468766  0.63807226  1
  Zn  Zn74  1  0.67838867  0.94478447  0.21466977  1
  Zn  Zn75  1  0.84204092  0.62252957  0.76101940  1
  Zn  Zn76  1  0.12135075  0.00147984  0.12708365  1
  Zn  Zn77  1  0.54571789  0.08610908  0.15154955  1
  Zn  Zn78  1  0.87671413  -0.01079858  0.87307472  1
  Zn  Zn79  1  0.00910951  0.36870755  0.88352327  1
  Zn  Zn80  1  0.23786671  0.87338300  0.61600244  1
  Zn  Zn81  1  0.88748025  0.88805908  0.51066416  1
  Zn  Zn82  1  0.18298106  0.18553379  0.18778482  1
  Zn  Zn83  1  0.18672637  0.18309527  0.68598369  1
  Zn  Zn84  1  0.20779344  0.69558492  0.16675591  1
  Zn  Zn85  1  0.18220465  0.68717822  0.68790687  1
  Zn  Zn86  1  0.74299399  0.12211952  0.14512033  1
  Zn  Zn87  1  0.68331677  0.18622046  0.68495584  1
  Zn  Zn88  1  0.69019490  0.66046404  0.16887996  1
  Zn  Zn89  1  0.67974597  0.69359320  0.69010037  1
  Zn  Zn90  1  0.30662853  0.31731692  0.30974042  1
  Zn  Zn91  1  0.30698370  0.30861305  0.81198718  1
  Zn  Zn92  1  0.32899962  0.81476846  0.29449668  1
  Zn  Zn93  1  0.30176645  0.80900596  0.79590296  1
  Zn  Zn94  1  0.81532770  0.31115098  0.33808098  1
  Zn  Zn95  1  0.81997960  0.31846455  0.81653115  1
  Zn  Zn96  1  0.78598415  0.78680873  0.28970189  1
  Zn  Zn97  1  0.80980861  0.80857315  0.82884295  1
  Zn  Zn98  1  0.19225218  0.44295508  0.43712911  1
  Zn  Zn99  1  0.19289179  0.43971145  0.93624828  1
  Zn  Zn100  1  0.17723883  0.92919555  0.42517256  1
  Zn  Zn101  1  0.17189687  0.94701847  0.93956834  1
  Zn  Zn102  1  0.69888943  0.44890915  0.45142503  1
  Zn  Zn103  1  0.70511156  0.46508697  0.97936460  1
  Zn  Zn104  1  0.71833059  0.91131237  0.39680174  1
  Zn  Zn105  1  0.68678822  0.95562311  1.05382968  1
  Zn  Zn106  1  0.30919999  0.06154731  0.05941036  1
  Zn  Zn107  1  0.30483377  0.06114460  0.56091536  1
  Zn  Zn108  1  0.31883387  0.56318866  0.06343137  1
  Zn  Zn109  1  0.30282054  0.56306927  0.55539694  1
  Zn  Zn110  1  0.86661877  -0.01954077  0.14644119  1
  Zn  Zn111  1  0.80460578  0.06409808  0.56725144  1
  Zn  Zn112  1  0.81572917  0.54978321  0.07324268  1
  Zn  Zn113  1  0.81620757  0.56683678  0.56039433  1
  Zn  Zn114  1  0.43865554  0.43965356  0.17573591  1
  Zn  Zn115  1  0.43695665  0.43916303  0.68674712  1
  Zn  Zn116  1  0.51076972  0.92490605  0.16430167  1
  Zn  Zn117  1  0.42123026  0.93718615  0.68267383  1
  Zn  Zn118  1  0.93987162  0.44969999  0.19114266  1
  Zn  Zn119  1  0.94222992  0.43970126  0.69047494  1
  Zn  Zn120  1  0.94499991  0.79950177  0.18707706  1
  Zn  Zn121  1  0.92910909  0.94319560  0.68453962  1
  Zn  Zn122  1  0.06234010  0.06401557  0.30958063  1
  Zn  Zn123  1  0.05869661  0.06721092  0.81665396  1
  Zn  Zn124  1  0.06947863  0.57366880  0.31930973  1
  Zn  Zn125  1  0.06752897  0.55822153  0.81405271  1
  Zn  Zn126  1  0.54970470  0.07945952  0.32305993  1
  Zn  Zn127  1  0.55962188  0.06515588  0.81927270  1
  Zn  Zn128  1  0.56351182  0.55786533  0.31881927  1
  Zn  Zn129  1  0.67664642  0.55803296  0.83102243  1
  Zn  Zn130  1  0.43601938  0.19158278  0.43476869  1
  Zn  Zn131  1  0.43533180  0.19598368  0.93356346  1
  Zn  Zn132  1  0.43288797  0.68006734  0.43036358  1
  Zn  Zn133  1  0.44173935  0.68462110  0.92962004  1
  Zn  Zn134  1  0.93650239  0.19631798  0.43847562  1
  Zn  Zn135  1  0.93848551  0.18732859  0.93504340  1
  Zn  Zn136  1  0.93371421  0.65774326  0.44838798  1
  Zn  Zn137  1  0.93638897  0.69073287  0.93809761  1
  Zn  Zn138  1  0.06085395  0.31389559  0.07089006  1
  Zn  Zn139  1  0.06660559  0.30849194  0.57151715  1
  Zn  Zn140  1  0.07016540  0.81254607  0.06295392  1
  Zn  Zn141  1  0.05289349  0.81297483  0.56482563  1
  Zn  Zn142  1  0.55551943  0.33000320  0.06246377  1
  Zn  Zn143  1  0.56255601  0.31388771  0.56648149  1
  Zn  Zn144  1  0.60704003  0.78369872  0.08239948  1
  Zn  Zn145  1  0.55281572  0.81508819  0.55934789  1
  O  O146  1  0.10801824  0.12621702  0.12263611  1
  O  O147  1  0.11286948  0.11176944  0.62889059  1
  O  O148  1  0.14160443  0.61108846  0.12151592  1
  O  O149  1  0.13487195  0.61080336  0.61467093  1
  O  O150  1  0.63370994  0.14104731  0.10586993  1
  O  O151  1  0.62614719  0.11270957  0.61117002  1
  O  O152  1  0.61581915  0.59803326  0.10596091  1
  O  O153  1  0.61200327  0.61618743  0.62001345  1
  O  O154  1  0.37607944  0.38951312  0.36656262  1
  O  O155  1  0.37727586  0.37152063  0.88037692  1
  O  O156  1  0.38194078  0.88307121  0.37637344  1
  O  O157  1  0.39758274  0.87307997  0.83636207  1
  O  O158  1  0.87260046  0.39788966  0.38179585  1
  O  O159  1  0.88795782  0.38668348  0.88078668  1
  O  O160  1  0.88344493  0.89478119  0.38559347  1
  O  O161  1  0.87630645  0.87459533  0.89856930  1
  O  O162  1  0.24843369  0.00773674  0.36938462  1
  O  O163  1  0.24335806  -0.00654868  0.86085245  1
  O  O164  1  0.26290465  0.49528562  0.36085989  1
  O  O165  1  0.24129670  0.51665793  0.86192913  1
  O  O166  1  0.77164710  0.01698524  0.38423442  1
  O  O167  1  0.75106640  0.01782029  0.86299119  1
  O  O168  1  0.76516154  0.51796549  0.39323206  1
  O  O169  1  0.77010791  0.49226716  0.88034334  1
  O  O170  1  0.24278022  0.49047392  0.12733524  1
  O  O171  1  0.24446931  0.48992316  0.62906809  1
  O  O172  1  0.24876153  1.01026216  0.14259448  1
  O  O173  1  0.23007180  1.00156567  0.62981939  1
  O  O174  1  0.72797985  0.48459061  0.08820403  1
  O  O175  1  0.73449791  0.50274040  0.61694657  1
  O  O176  1  0.75167881  1.00636161  0.13898243  1
  O  O177  1  0.74885189  0.98410367  0.63843856  1
  O  O178  1  0.01203936  0.37135150  0.24236182  1
  O  O179  1  0.01484588  0.36629999  0.74564817  1
  O  O180  1  -0.01272668  0.86565268  0.27418742  1
  O  O181  1  0.00683253  0.88237119  0.75373015  1
  O  O182  1  0.52164415  0.37217295  0.25429438  1
  O  O183  1  0.49610924  0.36633084  0.75595610  1
  O  O184  1  0.50598887  0.85776532  0.26367208  1
  O  O185  1  0.45420588  0.88305522  0.78457269  1
  O  O186  1  0.47126395  0.11954895  0.23543489  1
  O  O187  1  0.48252456  0.13155424  0.75278277  1
  O  O188  1  0.49983986  0.63111071  0.25804407  1
  O  O189  1  0.47704054  0.61693216  0.73309767  1
  O  O190  1  0.99289105  0.13673924  0.24708421  1
  O  O191  1  0.98982466  0.12935453  0.74744259  1
  O  O192  1  0.99805391  0.63016877  0.24955475  1
  O  O193  1  1.00546319  0.63449014  0.74751063  1
  O  O194  1  0.37135606  0.25592726  0.01005127  1
  O  O195  1  0.36561920  0.24595512  0.50576379  1
  O  O196  1  0.40751721  0.75633330  0.01144464  1
  O  O197  1  0.37505186  0.75639212  0.50057612  1
  O  O198  1  0.86803256  0.26328120  -0.00786936  1
  O  O199  1  0.86399865  0.25011710  0.50628679  1
  O  O200  1  0.86276182  0.75585609  0.00040279  1
  O  O201  1  0.87729520  0.73781036  0.52263612  1
  O  O202  1  0.13366031  0.26101293  0.48874892  1
  O  O203  1  0.11544919  0.24035492  1.00525811  1
  O  O204  1  0.13809439  0.74850476  0.52032458  1
  O  O205  1  0.12620727  0.75397199  0.97832544  1
  O  O206  1  0.61685069  0.23251902  0.50593750  1
  O  O207  1  0.63755366  0.26643426  0.99024829  1
  O  O208  1  0.61182718  0.73404698  0.50200702  1
  O  O209  1  0.62169694  0.70918858  0.98847722  1
  O  O210  1  0.48285624  0.25380918  0.12155234  1
  O  O211  1  0.48734778  0.25614850  0.63480847  1
  O  O212  1  0.50567719  0.74838512  0.14375873  1
  O  O213  1  0.48358084  0.73765510  0.61686776  1
  O  O214  1  0.99724673  0.24392520  0.14131517  1
  O  O215  1  1.00985337  0.23179061  0.63899124  1
  O  O216  1  1.01800571  0.74327994  0.12494322  1
  O  O217  1  0.97984996  0.75895713  0.64358306  1
  O  O218  1  0.01239581  0.25048207  0.36962799  1
  O  O219  1  -0.00004369  0.25087296  0.85926067  1
  O  O220  1  -0.02366760  0.74883619  0.37933682  1
  O  O221  1  0.01440628  0.74335458  0.86292786  1
  O  O222  1  0.51797444  0.18887373  0.36167909  1
  O  O223  1  0.50729215  0.25358933  0.85896195  1
  O  O224  1  0.49654821  0.75875049  0.36669490  1
  O  O225  1  0.50874155  0.74953328  0.85039290  1
  O  O226  1  0.25024953  0.13707861  0.48775380  1
  O  O227  1  0.23067823  0.12565171  1.00845774  1
  O  O228  1  0.22489007  0.60358127  0.48712186  1
  O  O229  1  0.26252473  0.62013423  0.98008668  1
  O  O230  1  0.73732581  0.13054984  0.49968722  1
  O  O231  1  0.74059624  0.14772660  0.98361506  1
  O  O232  1  0.72913726  0.62823057  0.51080913  1
  O  O233  1  0.76961800  0.62409249  0.99350147  1
  O  O234  1  0.26069622  0.37704519  0.00450823  1
  O  O235  1  0.25032433  0.36528374  0.50806987  1
  O  O236  1  0.21464386  0.88739827  0.03262400  1
  O  O237  1  0.25947188  0.88320468  0.49557137  1
  O  O238  1  0.76717894  0.36633415  -0.00493620  1
  O  O239  1  0.73652074  0.35424636  0.49556654  1
  O  O240  1  0.75895809  0.87720967  0.00799287  1
  O  O241  1  0.75420119  0.87948059  0.50641307  1
  O  O242  1  0.13347615  0.50024899  0.24141092  1
  O  O243  1  0.13358035  0.49203062  0.73886624  1
  O  O244  1  0.13544698  1.00055261  0.24828908  1
  O  O245  1  0.12853343  0.99300740  0.75205795  1
  O  O246  1  0.62180729  0.47693861  0.24434747  1
  O  O247  1  0.62495271  0.49495861  0.73758149  1
  O  O248  1  0.58427620  1.01136988  0.23356328  1
  O  O249  1  0.63607973  1.00826407  0.75250814  1
  O  O250  1  0.35940465  0.01288793  0.26320371  1
  O  O251  1  0.35770876  0.01393217  0.74331673  1
  O  O252  1  0.37739836  0.50024548  0.25313848  1
  O  O253  1  0.36001198  0.51243068  0.73926249  1
  O  O254  1  0.88223133  0.01917277  0.26450801  1
  O  O255  1  0.86172476  0.01023405  0.75397724  1
  O  O256  1  0.88239271  0.51186496  0.26585164  1
  O  O257  1  0.87936356  0.49792822  0.76297838  1
  O  O258  1  0.13570796  0.37033852  0.36140384  1
  O  O259  1  0.12776889  0.38306126  0.85735967  1
  O  O260  1  0.11083101  0.84693908  0.37792525  1
  O  O261  1  0.13141058  0.86359237  0.85961349  1
  O  O262  1  0.62652232  0.39887852  0.36143890  1
  O  O263  1  0.60826627  0.37172944  0.86174996  1
  O  O264  1  0.60531207  0.87850473  0.39140500  1
  O  O265  1  0.56405913  0.87891016  0.91861206  1
  O  O266  1  0.36058350  0.14060549  0.13283993  1
  O  O267  1  0.36379657  0.13647558  0.63129530  1
  O  O268  1  0.39043982  0.60758908  0.14107731  1
  O  O269  1  0.37278274  0.63023042  0.62168738  1
  O  O270  1  0.87728555  0.12690162  0.14976454  1
  O  O271  1  0.88727522  0.11555846  0.63529754  1
  O  O272  1  0.88249244  0.60262149  0.14216839  1
  O  O273  1  0.85640466  0.64186766  0.64304244  1
  O  O274  1  0.25150097  0.26329406  0.13231582  1
  O  O275  1  0.25174784  0.25381698  0.61533651  1
  O  O276  1  0.29149918  0.75177132  0.12079238  1
  O  O277  1  0.25644743  0.75325311  0.62675208  1
  O  O278  1  0.75702977  0.24022951  0.10619459  1
  O  O279  1  0.74425429  0.24628291  0.61303277  1
  O  O280  1  0.72155902  0.74471329  0.09741182  1
  O  O281  1  0.75602369  0.76926327  0.63797166  1
  O  O282  1  0.24358695  0.24715841  0.37989970  1
  O  O283  1  0.23481262  0.24688629  0.86629829  1
  O  O284  1  0.25428729  0.75894394  0.36348971  1
  O  O285  1  0.23830998  0.74042654  0.86310022  1
  O  O286  1  0.75483133  0.22989295  0.39442485  1
  O  O287  1  0.74017043  0.24956521  0.87056461  1
  O  O288  1  0.75407811  0.72154625  0.37996058  1
  O  O289  1  0.73933328  0.75323375  0.89827868  1
  O  O290  1  -0.00511360  0.12612961  0.01248722  1
  O  O291  1  -0.00296104  0.13306452  0.51588439  1
  O  O292  1  0.00003032  0.61257613  -0.00082898  1
  O  O293  1  0.03251430  0.62571464  0.49664420  1
  O  O294  1  0.52076436  0.15001560  -0.00538187  1
  O  O295  1  0.50501892  0.11015547  0.49880860  1
  O  O296  1  0.49103380  0.60843169  -0.00350080  1
  O  O297  1  0.50472260  0.61541419  0.50353381  1
  O  O298  1  0.49957439  0.38879990  0.50555831  1
  O  O299  1  0.48521435  0.36449772  0.97596843  1
  O  O300  1  0.48425061  0.88155411  0.48933867  1
  O  O301  1  0.50445427  0.87683595  0.96655335  1
  O  O302  1  0.96738546  0.37446297  0.53770499  1
  O  O303  1  0.99237764  0.37588056  1.00116078  1
  O  O304  1  0.99755084  0.86939641  0.48547748  1
  O  O305  1  1.01274901  0.89360087  1.00237850  1
  O  O306  1  0.49055803  0.50054098  0.38927993  1
  O  O307  1  0.49071822  0.48688400  0.86416002  1
  O  O308  1  0.48745522  0.99149637  0.38348473  1
  O  O309  1  0.49027094  1.02370977  0.89792338  1
  O  O310  1  0.99796301  0.50219007  0.37201497  1
  O  O311  1  1.00529494  0.49538803  0.88993641  1
  O  O312  1  0.99263519  1.00932459  0.38004638  1
  O  O313  1  0.99122533  1.01262837  0.89374665  1
  O  O314  1  -0.00709875  0.01677905  0.11670975  1
  O  O315  1  0.00877455  0.01018503  0.62826632  1
  O  O316  1  0.01770219  0.49938144  0.11480616  1
  O  O317  1  0.01640777  0.50429494  0.63375882  1
  O  O318  1  0.48949555  0.01251059  0.08041769  1
  O  O319  1  0.49450875  -0.01295816  0.61111368  1
  O  O320  1  0.52646334  0.43641219  0.10771422  1
  O  O321  1  0.49338780  0.50970281  0.61250529  1
  O  O322  1  0.24248864  0.38626612  0.23901468  1
  O  O323  1  0.24204414  0.38186475  0.74240709  1
  O  O324  1  0.25734155  0.89185976  0.24980739  1
  O  O325  1  0.23991818  0.88964518  0.73957397  1
  O  O326  1  0.73097190  0.36892681  0.26296641  1
  O  O327  1  0.73535684  0.36924863  0.75304101  1
  O  O328  1  0.73610456  0.88354615  0.28757196  1
  O  O329  1  0.75113986  0.88905425  0.76327659  1
  O  O330  1  0.25384252  0.12243817  0.25927579  1
  O  O331  1  0.25304361  0.11393153  0.74946770  1
  O  O332  1  0.26926074  0.61185342  0.23774268  1
  O  O333  1  0.25463725  0.61881426  0.75071146  1
  O  O334  1  0.76542265  0.13404711  0.26708151  1
  O  O335  1  0.75543399  0.12401491  0.75257874  1
  O  O336  1  0.73980320  0.61261364  0.25770143  1
  O  O337  1  0.72963050  0.63137099  0.76744584  1
  O  O338  1  0.36145893  0.12245557  0.36525850  1
  O  O339  1  0.36638907  0.13439785  0.86194860  1
  O  O340  1  0.37975285  0.60784703  0.35505599  1
  O  O341  1  0.36250435  0.63722076  0.85566412  1
  O  O342  1  0.87435114  0.12118197  0.37378429  1
  O  O343  1  0.86340706  0.12931997  0.86445540  1
  O  O344  1  0.86734961  0.61914384  0.35615647  1
  O  O345  1  0.88684998  0.60556222  0.87340933  1
  O  O346  1  0.13188583  0.38341113  0.13423817  1
  O  O347  1  0.13517647  0.38118746  0.63546863  1
  O  O348  1  0.16090635  0.88331894  0.09226085  1
  O  O349  1  0.11693405  0.88910223  0.63579140  1
  O  O350  1  0.63491176  0.34956391  0.15887568  1
  O  O351  1  0.61556616  0.39222034  0.63273394  1
  O  O352  1  0.61478905  0.89097764  0.11920562  1
  O  O353  1  0.63578772  0.87479853  0.61756867  1
  O  O354  1  0.11773963  0.26141693  0.25744827  1
  O  O355  1  0.12319795  0.26215216  0.74488406  1
  O  O356  1  0.14525144  0.74849697  0.24533878  1
  O  O357  1  0.10934359  0.76384048  0.74454720  1
  O  O358  1  0.61947333  0.27325907  0.28797426  1
  O  O359  1  0.61441404  0.25721911  0.75027817  1
  O  O360  1  0.62106530  0.73403404  0.24742373  1
  O  O361  1  0.59639148  0.75883011  0.75191472  1
  O  O362  1  0.36742504  0.24295470  0.24248266  1
  O  O363  1  0.37580403  0.23884139  0.74226159  1
  O  O364  1  0.39056135  0.73373349  0.23911994  1
  O  O365  1  0.36753276  0.73507876  0.73136484  1
  O  O366  1  0.88763900  0.24669882  0.27057407  1
  O  O367  1  0.88325467  0.24220695  0.74999193  1
  O  O368  1  0.86671178  0.72937839  0.23844063  1
  O  O369  1  0.88596862  0.74588674  0.76105837  1
  O  O370  1  0.38109877  0.50352865  0.48724294  1
  O  O371  1  0.37737088  0.48017645  1.00572577  1
  O  O372  1  0.37652918  0.99623140  0.48989147  1
  O  O373  1  0.35983375  0.98935495  0.98704034  1
  O  O374  1  0.89144644  0.53922007  0.48281473  1
  O  O375  1  0.89189758  0.48940398  0.99437762  1
  O  O376  1  0.87812981  1.00899740  0.49573946  1
  O  O377  1  0.88543652  0.98537769  1.00603954  1
  O  O378  1  0.10788933  0.01880731  0.00648108  1
  O  O379  1  0.12510209  -0.00561709  0.50930384  1
  O  O380  1  0.11850551  0.49479071  0.00959158  1
  O  O381  1  0.11985894  0.48079969  0.51595854  1
  O  O382  1  0.63029900  0.03013032  -0.01146350  1
  O  O383  1  0.60455013  0.00113533  0.50064808  1
  O  O384  1  0.63095192  0.54136501  -0.06381296  1
  O  O385  1  0.61118157  0.50526939  0.51274657  1
  O  O386  1  0.36688246  0.36416906  0.11554695  1
  O  O387  1  0.36111229  0.36118854  0.63505756  1
  O  O388  1  0.40700687  0.87107997  0.12674206  1
  O  O389  1  0.36836412  0.86453572  0.61085781  1
  O  O390  1  0.88152511  0.38298518  0.11239817  1
  O  O391  1  0.91004223  0.38235493  0.58808908  1
  O  O392  1  0.88741851  0.87115145  0.11081262  1
  O  O393  1  0.86243203  0.86773523  0.62459932  1
  O  O394  1  0.13327179  0.14051685  0.36642482  1
  O  O395  1  0.12063767  0.12581957  0.89024596  1
  O  O396  1  0.12551762  0.65703228  0.37992716  1
  O  O397  1  0.13786538  0.63687806  0.86699615  1
  O  O398  1  0.64339770  0.10713101  0.39097360  1
  O  O399  1  0.63112672  0.14471948  0.87623501  1
  O  O400  1  0.63544334  0.61144577  0.38933622  1
  O  O401  1  0.57204916  0.71785205  0.81594474  1
