# generated using pymatgen
data_V73Zn73O256
_symmetry_space_group_name_H-M   'P 1'
_cell_length_a   16.87926713
_cell_length_b   16.89392776
_cell_length_c   16.89508000
_cell_angle_alpha   90.02849005
_cell_angle_beta   90.05380572
_cell_angle_gamma   89.93346822
_symmetry_Int_Tables_number   1
_chemical_formula_structural   V73Zn73O256
_chemical_formula_sum   'V73 Zn73 O256'
_cell_volume   4817.74638265
_cell_formula_units_Z   1
loop_
 _symmetry_equiv_pos_site_id
 _symmetry_equiv_pos_as_xyz
  1  'x, y, z'
loop_
 _atom_site_type_symbol
 _atom_site_label
 _atom_site_symmetry_multiplicity
 _atom_site_fract_x
 _atom_site_fract_y
 _atom_site_fract_z
 _atom_site_occupancy
  V  V0  1  0.12262200  0.87954495  0.24551030  1
  V  V1  1  0.86455705  0.62691976  0.25109354  1
  V  V2  1  0.49975831  0.14857979  0.11559527  1
  V  V3  1  0.25373846  0.49712283  0.24338834  1
  V  V4  1  0.23376774  0.49499203  0.74957644  1
  V  V5  1  -0.00717485  0.49118401  0.00508439  1
  V  V6  1  0.36784169  0.00512909  0.87593950  1
  V  V7  1  0.24564235  0.63945207  0.88117521  1
  V  V8  1  0.87575122  0.88029222  -0.01664893  1
  V  V9  1  0.60869822  0.35946605  0.25061852  1
  V  V10  1  0.63315390  0.13721423  -0.00896572  1
  V  V11  1  0.15638657  0.20737728  0.88128956  1
  V  V12  1  0.24918980  0.75643471  0.50388496  1
  V  V13  1  0.25288291  0.62453567  0.37325930  1
  V  V14  1  0.37091771  0.75674482  0.62317940  1
  V  V15  1  0.62371112  0.01745342  0.62322731  1
  V  V16  1  0.63119265  0.75005651  0.87776641  1
  V  V17  1  0.61376041  0.23770685  0.39547814  1
  V  V18  1  0.25455367  0.00325823  0.72710206  1
  V  V19  1  0.13056338  0.49290794  0.12047569  1
  V  V20  1  0.75280954  0.01111044  0.76006650  1
  V  V21  1  0.49963548  0.74579039  0.74183620  1
  V  V22  1  0.25350437  0.86272560  0.10970542  1
  V  V23  1  -0.00262593  0.74654500  0.24841436  1
  V  V24  1  0.37983704  0.49602910  0.39074567  1
  V  V25  1  0.49697350  0.00797817  0.49516412  1
  V  V26  1  0.61761713  0.50997135  0.13210191  1
  V  V27  1  -0.00571260  0.63351654  0.12041651  1
  V  V28  1  0.25131045  0.36194969  0.63086026  1
  V  V29  1  0.49965045  0.88213880  0.87537511  1
  V  V30  1  0.89982042  0.49112612  0.37100831  1
  V  V31  1  0.24734251  0.11454525  0.36246053  1
  V  V32  1  0.62670326  0.87676264  0.74791326  1
  V  V33  1  0.74142829  0.50485635  0.26385570  1
  V  V34  1  0.24466780  0.25432635  0.48077518  1
  V  V35  1  0.75192646  0.36379856  0.12705082  1
  V  V36  1  0.37227366  0.49769931  0.87386710  1
  V  V37  1  0.87206744  0.24286912  0.62545926  1
  V  V38  1  0.12337477  0.36802918  0.25650215  1
  V  V39  1  0.48656804  0.13345432  0.63075895  1
  V  V40  1  0.75284468  0.87453342  0.11985237  1
  V  V41  1  0.61044561  0.62197370  0.51915127  1
  V  V42  1  0.37169320  0.62574741  0.74430023  1
  V  V43  1  0.75127649  0.87152567  0.61247715  1
  V  V44  1  -0.01940894  -0.00342121  0.48351480  1
  V  V45  1  0.37678257  0.86245810  -0.00639271  1
  V  V46  1  0.50092477  0.50747887  0.00125617  1
  V  V47  1  0.36239101  0.36841679  0.01117782  1
  V  V48  1  0.12152109  0.75190987  0.37147423  1
  V  V49  1  0.37240591  0.88176751  0.49730289  1
  V  V50  1  0.62810477  0.47846472  0.64724158  1
  V  V51  1  0.50782392  0.86090506  0.37683264  1
  V  V52  1  0.64586826  0.74205379  0.38392556  1
  V  V53  1  0.39310209  0.62936547  0.24693306  1
  V  V54  1  0.89033178  0.12177822  0.75683825  1
  V  V55  1  -0.00858591  0.12110252  0.12329953  1
  V  V56  1  0.13375362  0.86840571  0.73909998  1
  V  V57  1  0.00623716  0.37322015  0.86941948  1
  V  V58  1  0.38234533  0.14742383  0.24156599  1
  V  V59  1  0.86791709  0.50535944  0.85746484  1
  V  V60  1  0.88164879  0.75754020  0.59305562  1
  V  V61  1  0.11151519  0.01057002  0.61048995  1
  V  V62  1  0.88465912  0.37500013  0.50759019  1
  V  V63  1  0.76134859  0.12476148  0.37794401  1
  V  V64  1  0.63385332  0.62728908  0.00101453  1
  V  V65  1  0.51179192  0.37424087  0.87207279  1
  V  V66  1  0.49749570  0.37186011  0.39667039  1
  V  V67  1  0.12614680  0.64319553  0.00178270  1
  V  V68  1  0.28229641  -0.01495550  0.24170447  1
  V  V69  1  0.49990772  0.25772963  0.75320846  1
  V  V70  1  0.11602200  0.62022298  0.50282014  1
  V  V71  1  0.00203475  0.87546055  0.85385076  1
  V  V72  1  0.61047379  -0.00538108  0.12036237  1
  Zn  Zn73  1  0.10485110  0.48343769  0.60860087  1
  Zn  Zn74  1  0.74097101  0.00224563  0.24945606  1
  Zn  Zn75  1  -0.02885887  0.62050178  0.66290409  1
  Zn  Zn76  1  0.81138405  0.71180881  0.06209388  1
  Zn  Zn77  1  0.39427081  0.73860573  0.11971665  1
  Zn  Zn78  1  0.73690303  0.17252380  0.86581855  1
  Zn  Zn79  1  0.76020653  0.62870371  0.86972358  1
  Zn  Zn80  1  0.01942756  0.26111225  0.73483373  1
  Zn  Zn81  1  0.36113741  0.14050843  0.75974534  1
  Zn  Zn82  1  0.17744155  0.16746045  0.20375771  1
  Zn  Zn83  1  0.17897766  0.18414290  0.69472752  1
  Zn  Zn84  1  0.19297214  0.68884117  0.18326229  1
  Zn  Zn85  1  0.14182929  0.66183415  0.71180552  1
  Zn  Zn86  1  0.68355676  0.18198981  0.19483087  1
  Zn  Zn87  1  0.69754402  0.30202293  0.72607341  1
  Zn  Zn88  1  0.67054497  0.69507467  0.19319395  1
  Zn  Zn89  1  0.69061821  0.69631884  0.68407662  1
  Zn  Zn90  1  0.31206808  0.31647879  0.31001146  1
  Zn  Zn91  1  0.31189824  0.31319312  0.81742157  1
  Zn  Zn92  1  0.31783174  0.81157625  0.31724882  1
  Zn  Zn93  1  0.30771148  0.81839971  0.80628695  1
  Zn  Zn94  1  0.77405996  0.33945281  0.35850287  1
  Zn  Zn95  1  0.85203334  0.30195908  0.83149248  1
  Zn  Zn96  1  0.80138718  0.81131034  0.30202678  1
  Zn  Zn97  1  0.81343538  0.81400199  0.80719957  1
  Zn  Zn98  1  0.18839027  0.43298734  0.43562971  1
  Zn  Zn99  1  0.18448604  0.44164651  0.93929712  1
  Zn  Zn100  1  0.18661056  0.94019949  0.42875436  1
  Zn  Zn101  1  0.18086485  0.95198703  0.92423818  1
  Zn  Zn102  1  0.73146975  0.47919704  0.48780180  1
  Zn  Zn103  1  0.69564884  0.43432685  0.93668716  1
  Zn  Zn104  1  0.68378109  0.94607919  0.43412800  1
  Zn  Zn105  1  0.68481029  0.94270303  0.94556415  1
  Zn  Zn106  1  0.33234043  0.04292449  0.07196905  1
  Zn  Zn107  1  0.31122140  0.08247104  0.55090697  1
  Zn  Zn108  1  0.31595494  0.56582616  0.06198274  1
  Zn  Zn109  1  0.30055777  0.56435302  0.56745395  1
  Zn  Zn110  1  0.80235242  0.05717717  0.04935293  1
  Zn  Zn111  1  0.80479537  0.06730031  0.56111336  1
  Zn  Zn112  1  0.80701734  0.54462127  0.07196540  1
  Zn  Zn113  1  0.78643667  0.58437798  0.60330586  1
  Zn  Zn114  1  0.43554381  0.44092040  0.18977068  1
  Zn  Zn115  1  0.43334976  0.43959788  0.67969969  1
  Zn  Zn116  1  0.46271148  0.89512335  0.17679253  1
  Zn  Zn117  1  0.43749471  0.93829431  0.68595598  1
  Zn  Zn118  1  0.93319245  0.43093403  0.19773194  1
  Zn  Zn119  1  0.94118333  0.44005567  0.68680082  1
  Zn  Zn120  1  0.93694508  0.91948222  0.17345956  1
  Zn  Zn121  1  0.93742650  0.93966670  0.67868401  1
  Zn  Zn122  1  0.05637303  0.06813136  0.31364142  1
  Zn  Zn123  1  0.07312919  0.04596670  0.81677500  1
  Zn  Zn124  1  0.06850370  0.56545294  0.30533196  1
  Zn  Zn125  1  0.05342139  0.56611365  0.82425993  1
  Zn  Zn126  1  0.55668907  0.05907378  0.30270203  1
  Zn  Zn127  1  0.56058844  0.06754690  0.81109274  1
  Zn  Zn128  1  0.56554882  0.56439262  0.33064431  1
  Zn  Zn129  1  0.56525073  0.56364224  0.81096705  1
  Zn  Zn130  1  0.42171385  0.18733721  0.43910355  1
  Zn  Zn131  1  0.43621268  0.19124444  0.93977755  1
  Zn  Zn132  1  0.43993572  0.68280467  0.44288058  1
  Zn  Zn133  1  0.44251667  0.68713370  0.92663274  1
  Zn  Zn134  1  0.92840733  0.16739006  0.46477185  1
  Zn  Zn135  1  0.95272403  0.17031023  0.92797601  1
  Zn  Zn136  1  0.93153779  0.68222962  0.43102717  1
  Zn  Zn137  1  0.94237592  0.69832425  0.92268585  1
  Zn  Zn138  1  0.07549900  0.30624713  0.05358700  1
  Zn  Zn139  1  0.06477858  0.30195553  0.55250141  1
  Zn  Zn140  1  0.08213832  0.85028099  0.03595525  1
  Zn  Zn141  1  0.06196560  0.82330923  0.55810121  1
  Zn  Zn142  1  0.56685642  0.32128557  0.05660994  1
  Zn  Zn143  1  0.57086926  0.31609240  0.57406082  1
  Zn  Zn144  1  0.56386521  0.81013693  0.06094234  1
  Zn  Zn145  1  0.56482135  0.81328129  0.55695854  1
  O  O146  1  0.09752374  0.11127611  0.13183924  1
  O  O147  1  0.13052894  0.10926156  0.62450290  1
  O  O148  1  0.12080472  0.62132004  0.11487424  1
  O  O149  1  0.13469858  0.62995088  0.60234354  1
  O  O150  1  0.61069069  0.12144399  0.11848753  1
  O  O151  1  0.61197469  0.11597708  0.62760440  1
  O  O152  1  0.62425852  0.61936554  0.11680242  1
  O  O153  1  0.62417487  0.62873060  0.62401945  1
  O  O154  1  0.38340075  0.38625535  0.37375091  1
  O  O155  1  0.38026680  0.38797643  0.88306904  1
  O  O156  1  0.38921782  0.87036970  0.38985318  1
  O  O157  1  0.38100610  0.87787104  0.87582846  1
  O  O158  1  0.87896735  0.39245328  0.34534933  1
  O  O159  1  0.88897371  0.39988329  0.87861216  1
  O  O160  1  0.87967138  0.90907651  0.33187592  1
  O  O161  1  0.88654181  0.87424392  0.86954231  1
  O  O162  1  0.24962040  0.00272158  0.34763358  1
  O  O163  1  0.26498297  -0.00359945  0.86452271  1
  O  O164  1  0.26092782  0.50636747  0.36752514  1
  O  O165  1  0.25726258  0.50525386  0.86749744  1
  O  O166  1  0.73827290  0.01472134  0.36658600  1
  O  O167  1  0.74314100  -0.00923425  0.85723485  1
  O  O168  1  0.74632727  0.49795593  0.36360482  1
  O  O169  1  0.76419716  0.50337017  0.87731425  1
  O  O170  1  0.24194976  0.51354750  0.13314502  1
  O  O171  1  0.23863967  0.50183224  0.64281864  1
  O  O172  1  0.25683054  0.97978526  0.13553603  1
  O  O173  1  0.25634078  1.00408884  0.62564482  1
  O  O174  1  0.73274759  0.49150011  0.14135989  1
  O  O175  1  0.73513617  0.48802631  0.61794560  1
  O  O176  1  0.74548631  0.99268267  0.12619282  1
  O  O177  1  0.73477455  0.99811193  0.63314409  1
  O  O178  1  0.02409115  0.38000191  0.23582671  1
  O  O179  1  -0.00066247  0.37676586  0.76465387  1
  O  O180  1  0.01559509  0.85919241  0.23309626  1
  O  O181  1  0.01025041  0.87822916  0.74738628  1
  O  O182  1  0.50780011  0.38549496  0.25963134  1
  O  O183  1  0.49076294  0.36894422  0.76192277  1
  O  O184  1  0.50739515  0.88785209  0.28190465  1
  O  O185  1  0.50915367  0.86761902  0.75203903  1
  O  O186  1  0.48735105  0.12777406  0.23671775  1
  O  O187  1  0.49389925  0.13399833  0.74250474  1
  O  O188  1  0.49106551  0.61911687  0.25821144  1
  O  O189  1  0.48396650  0.63614698  0.76165188  1
  O  O190  1  0.98706024  0.12837376  0.22881313  1
  O  O191  1  0.98895454  0.10625774  0.76015177  1
  O  O192  1  0.99178753  0.62806699  0.23837193  1
  O  O193  1  1.03494599  0.64503707  0.75042563  1
  O  O194  1  0.37751800  0.26945320  -0.00248986  1
  O  O195  1  0.33275520  0.20383014  0.51396813  1
  O  O196  1  0.38356000  0.75712579  -0.00307075  1
  O  O197  1  0.36990294  0.75624743  0.50594574  1
  O  O198  1  0.88172902  0.23883808  0.01324640  1
  O  O199  1  0.87205478  0.25301682  0.51783799  1
  O  O200  1  0.86688744  0.76249761  -0.01831731  1
  O  O201  1  0.87937997  0.76296078  0.49333377  1
  O  O202  1  0.14967242  0.23412555  0.50779774  1
  O  O203  1  0.11703838  0.24558413  0.96770459  1
  O  O204  1  0.13167601  0.74775725  0.48926059  1
  O  O205  1  0.12262246  0.74139722  1.00767752  1
  O  O206  1  0.61585134  0.24647492  0.49460413  1
  O  O207  1  0.62298786  0.23768663  1.00302624  1
  O  O208  1  0.62445457  0.73471654  0.50084846  1
  O  O209  1  0.61374430  0.73666347  0.98938543  1
  O  O210  1  0.50075356  0.24679834  0.12176206  1
  O  O211  1  0.49740854  0.24021682  0.63317860  1
  O  O212  1  0.49338099  0.78748303  0.14330683  1
  O  O213  1  0.48984420  0.75514314  0.63554407  1
  O  O214  1  1.00397017  0.22528742  0.11567027  1
  O  O215  1  0.98678806  0.25893469  0.62593304  1
  O  O216  1  1.00387837  0.73655142  0.13343680  1
  O  O217  1  0.98097601  0.76095704  0.61634681  1
  O  O218  1  0.01807988  0.21835332  0.36715884  1
  O  O219  1  -0.02157489  0.27261236  0.88188401  1
  O  O220  1  0.01194991  0.74120373  0.36121144  1
  O  O221  1  0.01230884  0.77447969  0.87749421  1
  O  O222  1  0.49240146  0.26304889  0.38640929  1
  O  O223  1  0.49837816  0.26678048  0.87069423  1
  O  O224  1  0.50149779  0.75920546  0.38247146  1
  O  O225  1  0.50789731  0.75970968  0.86051304  1
  O  O226  1  0.23602570  0.10157914  0.46062620  1
  O  O227  1  0.24217529  0.13462661  1.03968258  1
  O  O228  1  0.24778148  0.63643893  0.48763088  1
  O  O229  1  0.24160706  0.62507477  0.99132790  1
  O  O230  1  0.74199498  0.11897341  0.47978617  1
  O  O231  1  0.73940317  0.13144704  0.98824979  1
  O  O232  1  0.72883698  0.59929687  0.50275731  1
  O  O233  1  0.74163904  0.62271299  1.00487013  1
  O  O234  1  0.26318348  0.38406185  -0.00326324  1
  O  O235  1  0.25460790  0.35704492  0.50132896  1
  O  O236  1  0.25703597  0.86801867  0.00593286  1
  O  O237  1  0.25983059  0.86603502  0.48508163  1
  O  O238  1  0.73449039  0.38106195  0.02738315  1
  O  O239  1  0.77955024  0.37303678  0.47137258  1
  O  O240  1  0.75551202  0.87510970  0.00635675  1
  O  O241  1  0.74531249  0.89215202  0.51634935  1
  O  O242  1  0.13547109  0.49578102  0.23933265  1
  O  O243  1  0.13555569  0.50159563  0.76210865  1
  O  O244  1  0.11838874  0.97851090  0.24915308  1
  O  O245  1  0.14021354  0.99647024  0.73253323  1
  O  O246  1  0.62487336  0.50796893  0.24636184  1
  O  O247  1  0.63874193  0.51095124  0.74410729  1
  O  O248  1  0.62139436  1.00598163  0.22603930  1
  O  O249  1  0.62861097  0.99575288  0.74084301  1
  O  O250  1  0.37990939  -0.02103970  0.24348817  1
  O  O251  1  0.36475086  -0.00537528  0.75578554  1
  O  O252  1  0.36951969  0.51134511  0.25757819  1
  O  O253  1  0.36785593  0.50961937  0.75669639  1
  O  O254  1  0.88211442  -0.03835870  0.27641791  1
  O  O255  1  0.86080135  0.01060537  0.73895665  1
  O  O256  1  0.86390497  0.51079577  0.25136759  1
  O  O257  1  0.87529574  0.50761403  0.75764765  1
  O  O258  1  0.13176073  0.37269394  0.35775695  1
  O  O259  1  0.10660733  0.38170518  0.88094986  1
  O  O260  1  0.13478276  0.86124003  0.35657552  1
  O  O261  1  0.12124755  0.88360675  0.84853671  1
  O  O262  1  0.60632782  0.35971055  0.36835102  1
  O  O263  1  0.61032472  0.38680044  0.87449870  1
  O  O264  1  0.61564549  0.85794494  0.39958216  1
  O  O265  1  0.61769625  0.87246027  0.86694235  1
  O  O266  1  0.39130567  0.12221737  0.12828387  1
  O  O267  1  0.38661164  0.11733754  0.63586095  1
  O  O268  1  0.37746854  0.62406802  0.14063755  1
  O  O269  1  0.36448289  0.63501225  0.63828268  1
  O  O270  1  0.88592977  0.12444824  0.11900839  1
  O  O271  1  0.86443462  0.13598285  0.63777178  1
  O  O272  1  0.87775397  0.62763561  0.12919053  1
  O  O273  1  0.87432423  0.65032610  0.60924506  1
  O  O274  1  0.23096812  0.19147084  0.08713849  1
  O  O275  1  0.24872334  0.26202956  0.64328621  1
  O  O276  1  0.26789209  0.76043568  0.13064660  1
  O  O277  1  0.26002248  0.75065182  0.60879116  1
  O  O278  1  0.73852485  0.26463037  0.13838445  1
  O  O279  1  0.77889004  0.27219007  0.64981635  1
  O  O280  1  0.73534958  0.76576291  0.12818470  1
  O  O281  1  0.75473103  0.76681125  0.61425177  1
  O  O282  1  0.25432866  0.23879251  0.37575571  1
  O  O283  1  0.25474743  0.23336764  0.87459017  1
  O  O284  1  0.24413344  0.74173611  0.37983116  1
  O  O285  1  0.25453015  0.73721448  0.87081193  1
  O  O286  1  0.72031446  0.23676572  0.36911684  1
  O  O287  1  0.82572071  0.26936866  0.97508269  1
  O  O288  1  0.74633543  0.75663582  0.38470442  1
  O  O289  1  0.73254597  0.75662902  0.87312464  1
  O  O290  1  -0.00217050  0.11428610  0.01793328  1
  O  O291  1  0.01023410  0.10248935  0.49767762  1
  O  O292  1  0.01248735  0.62306068  0.00310610  1
  O  O293  1  0.01721364  0.63085867  0.49202280  1
  O  O294  1  0.50454174  0.12925945  0.01158122  1
  O  O295  1  0.48722994  0.11468287  0.51387408  1
  O  O296  1  0.50985468  0.61310973  -0.01269302  1
  O  O297  1  0.50826642  0.62040733  0.50728971  1
  O  O298  1  0.50431217  0.37636780  0.49514019  1
  O  O299  1  0.49550420  0.38816546  0.98715695  1
  O  O300  1  0.49227332  0.88736295  0.49875057  1
  O  O301  1  0.49388018  0.87205263  0.98150920  1
  O  O302  1  0.98235870  0.35602201  0.48337853  1
  O  O303  1  1.00356958  0.38885134  1.00186363  1
  O  O304  1  1.00247100  0.89482164  0.49566230  1
  O  O305  1  0.97762295  0.87114181  0.99930180  1
  O  O306  1  0.48714672  0.49039786  0.38074973  1
  O  O307  1  0.49171183  0.49417708  0.87676944  1
  O  O308  1  0.50869255  0.99904907  0.39449014  1
  O  O309  1  0.48765858  0.98744568  0.85792777  1
  O  O310  1  0.99899573  0.49672233  0.36256207  1
  O  O311  1  0.99380288  0.49625315  0.89028373  1
  O  O312  1  1.00017906  1.00455565  0.38104227  1
  O  O313  1  1.00538722  0.97712757  0.87796726  1
  O  O314  1  -0.01612123  0.01590120  0.12938597  1
  O  O315  1  0.00740993  0.00383692  0.61405238  1
  O  O316  1  0.00893584  0.51211757  0.11665242  1
  O  O317  1  0.00194927  0.51556309  0.63160901  1
  O  O318  1  0.50896060  -0.01069246  0.11916480  1
  O  O319  1  0.50793587  0.00950710  0.62557877  1
  O  O320  1  0.50894442  0.49731669  0.11370739  1
  O  O321  1  0.52433522  0.48600471  0.63478232  1
  O  O322  1  0.24842475  0.39281645  0.25055385  1
  O  O323  1  0.25038252  0.38762548  0.74617780  1
  O  O324  1  0.24945001  0.87816460  0.24621116  1
  O  O325  1  0.24382454  0.89037454  0.74571727  1
  O  O326  1  0.72286886  0.38389572  0.25353132  1
  O  O327  1  0.74273747  0.28155604  0.82974937  1
  O  O328  1  0.75314840  0.88313094  0.22840394  1
  O  O329  1  0.73948560  0.88337641  0.73989104  1
  O  O330  1  0.27570029  0.10262592  0.23390579  1
  O  O331  1  0.25241725  0.10721790  0.74630502  1
  O  O332  1  0.25285131  0.61821434  0.26108785  1
  O  O333  1  0.24969921  0.61567269  0.76408816  1
  O  O334  1  0.74419001  0.12011183  0.26446974  1
  O  O335  1  0.75037030  0.11302727  0.75877757  1
  O  O336  1  0.75738230  0.62086524  0.24158633  1
  O  O337  1  0.78076127  0.66014364  0.75024039  1
  O  O338  1  0.36469914  0.12833933  0.34958584  1
  O  O339  1  0.38518420  0.10730945  0.87633859  1
  O  O340  1  0.37179311  0.61388296  0.37018150  1
  O  O341  1  0.36255984  0.61889488  0.86910425  1
  O  O342  1  0.86029736  0.14043419  0.37632560  1
  O  O343  1  0.86704435  0.13516900  0.85932181  1
  O  O344  1  0.88008705  0.60812860  0.36012821  1
  O  O345  1  0.87953048  0.60916522  0.88426830  1
  O  O346  1  0.12818527  0.39035643  0.11690463  1
  O  O347  1  0.14239203  0.37613871  0.60972643  1
  O  O348  1  0.14554665  0.85873800  0.13868665  1
  O  O349  1  0.12213604  0.89079900  0.63292307  1
  O  O350  1  0.62076310  0.38530665  0.14080351  1
  O  O351  1  0.63456400  0.37116842  0.65103144  1
  O  O352  1  0.63556649  0.89049305  0.10665293  1
  O  O353  1  0.63123532  0.87793779  0.63357884  1
  O  O354  1  0.14659630  0.27299885  0.22833222  1
  O  O355  1  0.11721384  0.22982544  0.78216679  1
  O  O356  1  0.11907441  0.74681979  0.25550432  1
  O  O357  1  0.14679756  0.77095904  0.73518698  1
  O  O358  1  0.60945931  0.25956746  0.25091564  1
  O  O359  1  0.59916091  0.24553742  0.75198477  1
  O  O360  1  0.62622131  0.74359464  0.28344232  1
  O  O361  1  0.61824270  0.75780877  0.75507215  1
  O  O362  1  0.36691845  0.24536363  0.23698152  1
  O  O363  1  0.38862911  0.25030484  0.75886409  1
  O  O364  1  0.37369427  0.72989925  0.25942063  1
  O  O365  1  0.37831201  0.74753257  0.74227165  1
  O  O366  1  0.97809640  0.25787106  0.32051796  1
  O  O367  1  0.89710263  0.23410487  0.74374623  1
  O  O368  1  0.88568298  0.74017552  0.25982448  1
  O  O369  1  0.84384039  0.71859190  0.74775485  1
  O  O370  1  0.36310885  0.50493373  0.48828356  1
  O  O371  1  0.38302964  0.50144659  0.99075882  1
  O  O372  1  0.38613716  0.99400361  0.50796072  1
  O  O373  1  0.37090131  0.98437561  0.98193093  1
  O  O374  1  0.88385629  0.48523855  0.47529025  1
  O  O375  1  0.89201164  0.50291048  1.00907136  1
  O  O376  1  0.88012108  1.00482864  0.50222041  1
  O  O377  1  0.86373107  0.98250080  0.98865134  1
  O  O378  1  0.12104423  -0.04504492  0.01453489  1
  O  O379  1  0.12969835  -0.00712814  0.51076189  1
  O  O380  1  0.11653730  0.51164287  0.00617594  1
  O  O381  1  0.13613419  0.51625153  0.49506129  1
  O  O382  1  0.62870975  0.02027586  0.01188649  1
  O  O383  1  0.60894032  -0.00307061  0.51741085  1
  O  O384  1  0.61989693  0.50936691  0.00827726  1
  O  O385  1  0.62069619  0.50855798  0.52127324  1
  O  O386  1  0.37836187  0.38560504  0.10980188  1
  O  O387  1  0.35018929  0.38771518  0.62275406  1
  O  O388  1  0.36610134  0.87769479  0.10642307  1
  O  O389  1  0.37858396  0.86580275  0.61383734  1
  O  O390  1  0.85155126  0.37977985  0.13981623  1
  O  O391  1  0.88013345  0.38033152  0.60935457  1
  O  O392  1  0.86087203  0.87024263  0.10758640  1
  O  O393  1  0.85987151  0.86669037  0.63148871  1
  O  O394  1  0.15202527  0.12951163  0.31961338  1
  O  O395  1  0.14143944  0.10583347  0.88734254  1
  O  O396  1  0.13522940  0.63175733  0.37905490  1
  O  O397  1  0.13686163  0.62497402  0.89046982  1
  O  O398  1  0.59760094  0.14038071  0.37408385  1
  O  O399  1  0.62151961  0.12648461  0.88642767  1
  O  O400  1  0.62473994  0.63459153  0.39649581  1
  O  O401  1  0.63392660  0.63204683  0.88083826  1
