# generated using pymatgen
data_V73Zn73O256
_symmetry_space_group_name_H-M   'P 1'
_cell_length_a   16.86457780
_cell_length_b   16.86607871
_cell_length_c   16.85997093
_cell_angle_alpha   90.20535388
_cell_angle_beta   89.83889706
_cell_angle_gamma   89.80005743
_symmetry_Int_Tables_number   1
_chemical_formula_structural   V73Zn73O256
_chemical_formula_sum   'V73 Zn73 O256'
_cell_volume   4795.55914583
_cell_formula_units_Z   1
loop_
 _symmetry_equiv_pos_site_id
 _symmetry_equiv_pos_as_xyz
  1  'x, y, z'
loop_
 _atom_site_type_symbol
 _atom_site_label
 _atom_site_symmetry_multiplicity
 _atom_site_fract_x
 _atom_site_fract_y
 _atom_site_fract_z
 _atom_site_occupancy
  V  V0  1  0.74894215  0.24749536  -0.00535763  1
  V  V1  1  0.13933117  0.35487541  0.75597625  1
  V  V2  1  0.62798469  0.36733617  0.75022719  1
  V  V3  1  -0.00612577  0.23854311  0.25266838  1
  V  V4  1  0.27067402  0.00601232  0.75387086  1
  V  V5  1  0.75666752  0.75095083  0.00158614  1
  V  V6  1  0.37039916  0.02989004  0.36612869  1
  V  V7  1  0.13167057  0.49838358  0.62363297  1
  V  V8  1  0.49185425  0.25277925  0.24552093  1
  V  V9  1  -0.01878057  0.49872389  0.50945372  1
  V  V10  1  0.74735075  -0.01093592  0.73201112  1
  V  V11  1  0.48555607  0.87086423  0.36631678  1
  V  V12  1  0.37830644  0.87720250  0.00284682  1
  V  V13  1  0.86521101  0.60425208  0.24600746  1
  V  V14  1  0.75756993  0.86932017  0.12531340  1
  V  V15  1  0.74825973  0.61050032  0.86401812  1
  V  V16  1  -0.01182046  0.76263678  0.75307021  1
  V  V17  1  0.61994302  0.87921417  0.72761094  1
  V  V18  1  0.13265204  0.01898961  0.63370455  1
  V  V19  1  0.48488080  0.01573123  -0.01162343  1
  V  V20  1  0.88283390  0.25072116  0.62424903  1
  V  V21  1  0.49242865  0.49990431  0.00926993  1
  V  V22  1  0.49896075  0.60903692  0.59573747  1
  V  V23  1  0.76099840  0.37872044  0.12176733  1
  V  V24  1  0.00403018  0.63659773  0.62942782  1
  V  V25  1  0.25031352  0.87640879  0.13489726  1
  V  V26  1  0.14388158  0.86731033  0.74155228  1
  V  V27  1  0.12298161  0.61166146  -0.00147158  1
  V  V28  1  0.50042568  0.00717514  0.50248183  1
  V  V29  1  0.12973223  0.13179828  0.49211102  1
  V  V30  1  0.84452962  0.84879133  0.51218765  1
  V  V31  1  0.91129987  0.57187325  0.77284178  1
  V  V32  1  0.24528390  0.61480671  0.36101221  1
  V  V33  1  0.12127650  0.75336917  0.37397494  1
  V  V34  1  -0.00229744  0.61579753  0.12137207  1
  V  V35  1  0.62578728  0.75075526  0.87576153  1
  V  V36  1  0.62446239  0.13686493  0.50854730  1
  V  V37  1  0.23725330  0.25158113  -0.00261969  1
  V  V38  1  0.88284740  0.23038184  0.12293322  1
  V  V39  1  0.87519072  -0.01481360  0.87448806  1
  V  V40  1  0.64003675  0.49538795  0.62170893  1
  V  V41  1  0.23756293  0.37164829  0.13874119  1
  V  V42  1  0.38160930  0.49189545  0.37772880  1
  V  V43  1  0.50210216  0.37656172  0.38081668  1
  V  V44  1  0.74944626  0.14261001  0.37422765  1
  V  V45  1  0.12522907  0.88008793  0.25825209  1
  V  V46  1  0.62483911  0.00134468  0.12616384  1
  V  V47  1  0.26162523  0.51366054  0.75241356  1
  V  V48  1  0.49654811  0.73144512  0.74915100  1
  V  V49  1  0.62611034  0.12784204  -0.00364197  1
  V  V50  1  0.38921211  0.74646770  0.13364115  1
  V  V51  1  0.48985531  0.12965563  0.13294258  1
  V  V52  1  0.26673796  0.25624865  0.49098925  1
  V  V53  1  0.11109448  0.00279910  0.11003663  1
  V  V54  1  0.63527507  0.36603529  0.24872388  1
  V  V55  1  0.37843747  0.51573568  0.87156621  1
  V  V56  1  0.62320609  0.62350311  0.00791783  1
  V  V57  1  0.75007077  0.61800360  0.38386438  1
  V  V58  1  0.62910040  0.75094521  0.38436780  1
  V  V59  1  0.74765911  0.11743599  0.86693388  1
  V  V60  1  0.11541874  0.26286393  0.37564643  1
  V  V61  1  0.48184066  0.24674618  0.72618888  1
  V  V62  1  0.62922116  0.50045699  0.13006159  1
  V  V63  1  0.25947790  0.75658504  0.49829090  1
  V  V64  1  -0.01455725  0.75838478  0.25149348  1
  V  V65  1  0.88821437  0.38587203  -0.01598086  1
  V  V66  1  0.75380224  0.00165866  0.25930301  1
  V  V67  1  0.39150041  0.61658485  0.24380139  1
  V  V68  1  0.00470887  -0.00438934  0.50134038  1
  V  V69  1  0.27372451  0.37771985  0.61628996  1
  V  V70  1  0.24336144  0.74533012  -0.00434473  1
  V  V71  1  0.49956467  0.87983677  0.87608459  1
  V  V72  1  0.49404581  0.36538641  0.87995257  1
  Zn  Zn73  1  0.36884369  0.74588780  0.63025094  1
  Zn  Zn74  1  0.88679754  -0.00480625  0.37674623  1
  Zn  Zn75  1  0.61813156  0.86331085  0.24598871  1
  Zn  Zn76  1  0.06600252  0.81831393  0.91466925  1
  Zn  Zn77  1  0.12746320  0.62434094  0.49812357  1
  Zn  Zn78  1  0.00803980  0.41080832  0.35295381  1
  Zn  Zn79  1  0.89350616  0.87258644  -0.00175793  1
  Zn  Zn80  1  0.24761730  0.03385138  0.25503035  1
  Zn  Zn81  1  0.28601184  0.11758244  0.89042246  1
  Zn  Zn82  1  0.16867513  0.18947200  0.16953378  1
  Zn  Zn83  1  0.24318151  0.18653436  0.68471188  1
  Zn  Zn84  1  0.18492367  0.68924699  0.18398224  1
  Zn  Zn85  1  0.19069803  0.68846613  0.68579052  1
  Zn  Zn86  1  0.69429830  0.18539186  0.18620948  1
  Zn  Zn87  1  0.62139468  0.14264087  0.72150085  1
  Zn  Zn88  1  0.68199478  0.69065468  0.19574678  1
  Zn  Zn89  1  0.67366841  0.68555397  0.67819070  1
  Zn  Zn90  1  0.28479634  0.24199985  0.28121158  1
  Zn  Zn91  1  0.31269508  0.32059552  0.81967485  1
  Zn  Zn92  1  0.31126792  0.80657645  0.31381787  1
  Zn  Zn93  1  0.31674850  0.81028230  0.81573484  1
  Zn  Zn94  1  0.82994926  0.31722503  0.30186164  1
  Zn  Zn95  1  0.81155485  0.30942624  0.81471306  1
  Zn  Zn96  1  0.80650453  0.82300645  0.33112052  1
  Zn  Zn97  1  0.80389184  0.81024045  0.80558164  1
  Zn  Zn98  1  0.19051496  0.43940799  0.43624207  1
  Zn  Zn99  1  0.19396138  0.43294279  0.94033803  1
  Zn  Zn100  1  0.19733101  0.94227595  0.43949248  1
  Zn  Zn101  1  0.20366720  0.93508928  0.93808187  1
  Zn  Zn102  1  0.68426665  0.44715181  0.42935035  1
  Zn  Zn103  1  0.68156265  0.43068828  0.93736451  1
  Zn  Zn104  1  0.67446779  0.92843090  0.44991828  1
  Zn  Zn105  1  0.68326349  0.93944220  0.93946831  1
  Zn  Zn106  1  0.30158078  0.06783870  0.07233661  1
  Zn  Zn107  1  0.32014189  0.06609198  0.56132958  1
  Zn  Zn108  1  0.30633558  0.55828770  0.06964337  1
  Zn  Zn109  1  0.31566635  0.57074496  0.55522526  1
  Zn  Zn110  1  0.81346884  0.05296193  0.05774804  1
  Zn  Zn111  1  0.80798707  0.06535316  0.55335017  1
  Zn  Zn112  1  0.81530630  0.56400944  0.05980739  1
  Zn  Zn113  1  0.80773885  0.59687332  0.58801088  1
  Zn  Zn114  1  0.42683446  0.42638656  0.18577727  1
  Zn  Zn115  1  0.44904830  0.44053131  0.69234234  1
  Zn  Zn116  1  0.43438214  0.94605771  0.19099537  1
  Zn  Zn117  1  0.43453039  0.92378810  0.67393187  1
  Zn  Zn118  1  0.95896814  0.43288974  0.19529551  1
  Zn  Zn119  1  0.95808912  0.43273386  0.70509471  1
  Zn  Zn120  1  0.93624101  0.93714546  0.19000308  1
  Zn  Zn121  1  0.94155932  0.93747869  0.68144172  1
  Zn  Zn122  1  0.06679095  0.06502289  0.31369885  1
  Zn  Zn123  1  0.08281834  0.00579701  0.84589008  1
  Zn  Zn124  1  0.05169450  0.56583753  0.30995720  1
  Zn  Zn125  1  0.08781212  0.57244610  0.80951084  1
  Zn  Zn126  1  0.56767434  0.06297915  0.31869245  1
  Zn  Zn127  1  0.44780321  0.06897693  0.80591831  1
  Zn  Zn128  1  0.56973489  0.56386272  0.31570386  1
  Zn  Zn129  1  0.57219767  0.55123001  0.81703607  1
  Zn  Zn130  1  0.44981356  0.19172239  0.43026291  1
  Zn  Zn131  1  0.42315400  0.19827954  0.95686558  1
  Zn  Zn132  1  0.43921699  0.68461076  0.42575715  1
  Zn  Zn133  1  0.43915459  0.68993277  0.94398577  1
  Zn  Zn134  1  0.94148709  0.16657013  0.43540474  1
  Zn  Zn135  1  0.92425695  0.17701924  0.93776837  1
  Zn  Zn136  1  0.93229469  0.68115395  0.43458384  1
  Zn  Zn137  1  0.93721329  0.68112295  0.93300565  1
  Zn  Zn138  1  0.06680431  0.31741099  0.05912538  1
  Zn  Zn139  1  0.06910837  0.32089972  0.56827993  1
  Zn  Zn140  1  0.06052171  0.80998496  0.08213635  1
  Zn  Zn141  1  0.07509570  0.81665178  0.56360603  1
  Zn  Zn142  1  0.56287953  0.31482823  0.06241397  1
  Zn  Zn143  1  0.56616055  0.31514935  0.56471152  1
  Zn  Zn144  1  0.56570190  0.81688414  0.06060909  1
  Zn  Zn145  1  0.52851893  0.81280922  0.55573856  1
  O  O146  1  0.11540454  0.10311805  0.12178260  1
  O  O147  1  0.13968560  0.12033762  0.62323222  1
  O  O148  1  0.10818275  0.63122196  0.11970426  1
  O  O149  1  0.11910970  0.61629826  0.62865219  1
  O  O150  1  0.62886691  0.11608399  0.11702579  1
  O  O151  1  0.63052189  0.12529139  0.60802893  1
  O  O152  1  0.63465219  0.61658320  0.11591972  1
  O  O153  1  0.60787324  0.60379135  0.62966024  1
  O  O154  1  0.39030661  0.38781570  0.36463222  1
  O  O155  1  0.38961921  0.39269675  0.87599589  1
  O  O156  1  0.38345212  0.87646799  0.36859274  1
  O  O157  1  0.38728142  0.86565786  0.89191395  1
  O  O158  1  0.84289095  0.38508769  0.40802710  1
  O  O159  1  0.87414200  0.36892252  0.88423940  1
  O  O160  1  0.86386438  0.88638678  0.41018761  1
  O  O161  1  0.86076898  0.88087809  0.87713755  1
  O  O162  1  0.26534834  0.00664546  0.37514658  1
  O  O163  1  0.25858551  -0.00177370  0.86206471  1
  O  O164  1  0.25787825  0.50881017  0.36880448  1
  O  O165  1  0.26692046  0.49710727  0.86339434  1
  O  O166  1  0.73772330  -0.01088308  0.35821513  1
  O  O167  1  0.75011951  0.00361301  0.86889208  1
  O  O168  1  0.73700363  0.51931825  0.36106777  1
  O  O169  1  0.73953323  0.51239937  0.88043417  1
  O  O170  1  0.26326240  0.47617299  0.13042345  1
  O  O171  1  0.25313278  0.49947196  0.62953399  1
  O  O172  1  0.24161867  0.98806342  0.13310947  1
  O  O173  1  0.24671987  1.00279176  0.64137875  1
  O  O174  1  0.74127632  0.48834702  0.11517897  1
  O  O175  1  0.73738017  0.51143558  0.63166797  1
  O  O176  1  0.74439286  0.99108722  0.12953994  1
  O  O177  1  0.75311709  1.00665387  0.63512750  1
  O  O178  1  -0.05585909  0.34435133  0.28043210  1
  O  O179  1  0.03757198  0.36229733  0.73983268  1
  O  O180  1  0.01009622  0.86566321  0.25181725  1
  O  O181  1  0.01583323  0.86483712  0.74174001  1
  O  O182  1  0.51243642  0.36445329  0.24164138  1
  O  O183  1  0.49765743  0.36193888  0.76253321  1
  O  O184  1  0.50349301  0.88779158  0.26126806  1
  O  O185  1  0.51044620  0.86537291  0.75876086  1
  O  O186  1  0.51366345  0.13956366  0.24023488  1
  O  O187  1  0.50734407  0.14234955  0.74501403  1
  O  O188  1  0.48973711  0.62489848  0.25253041  1
  O  O189  1  0.50397000  0.63487068  0.77182805  1
  O  O190  1  0.99363601  0.13806410  0.25890218  1
  O  O191  1  1.02127001  0.19278736  0.80033863  1
  O  O192  1  0.98266244  0.63488098  0.24291463  1
  O  O193  1  1.01415548  0.64624431  0.74588381  1
  O  O194  1  0.35864437  0.25858029  0.02555441  1
  O  O195  1  0.36423316  0.25202482  0.47974954  1
  O  O196  1  0.36868847  0.75407153  0.01527219  1
  O  O197  1  0.35924706  0.74408192  0.48355801  1
  O  O198  1  0.86948499  0.25599519  0.00506890  1
  O  O199  1  0.89617853  0.24690751  0.51973351  1
  O  O200  1  0.85859412  0.74813874  -0.00956400  1
  O  O201  1  0.87146551  0.75027917  0.50094882  1
  O  O202  1  0.12208850  0.24560468  0.49470838  1
  O  O203  1  0.13455443  0.25283645  0.99192283  1
  O  O204  1  0.13165458  0.74468477  0.48858653  1
  O  O205  1  0.13887375  0.75716501  1.00172781  1
  O  O206  1  0.61773488  0.23797935  0.49779361  1
  O  O207  1  0.64028322  0.24275355  1.00914442  1
  O  O208  1  0.60436874  0.75604910  0.48352697  1
  O  O209  1  0.63020133  0.74245892  0.99467407  1
  O  O210  1  0.50860878  0.23969043  0.13185951  1
  O  O211  1  0.48336968  0.26104079  0.62727631  1
  O  O212  1  0.48807672  0.75382630  0.11994853  1
  O  O213  1  0.51538837  0.71943159  0.64440520  1
  O  O214  1  0.99088725  0.25707705  0.14029571  1
  O  O215  1  0.98877956  0.24807013  0.62828050  1
  O  O216  1  0.99597515  0.74296772  0.14749732  1
  O  O217  1  1.01292396  0.74188114  0.63263860  1
  O  O218  1  0.00747578  0.24252383  0.37531122  1
  O  O219  1  -0.01469162  0.23923608  0.84620123  1
  O  O220  1  0.01283187  0.73556367  0.36380844  1
  O  O221  1  -0.00308188  0.74730661  0.85771799  1
  O  O222  1  0.50271729  0.26625327  0.35670317  1
  O  O223  1  0.49280244  0.26580591  0.89089607  1
  O  O224  1  0.50015352  0.76615673  0.37192596  1
  O  O225  1  0.50836305  0.75701713  0.87331366  1
  O  O226  1  0.24144308  0.14855664  0.50448387  1
  O  O227  1  0.25240800  0.13756226  1.00116212  1
  O  O228  1  0.24792033  0.62997337  0.47824830  1
  O  O229  1  0.23589411  0.63700495  1.01631988  1
  O  O230  1  0.73681298  0.12185245  0.48570253  1
  O  O231  1  0.74472890  0.12748518  0.99418764  1
  O  O232  1  0.75992377  0.61729093  0.48190201  1
  O  O233  1  0.74348939  0.63259432  0.99260358  1
  O  O234  1  0.24683809  0.36176855  0.00940741  1
  O  O235  1  0.25296073  0.37216577  0.50605038  1
  O  O236  1  0.26094292  0.86441832  0.01195330  1
  O  O237  1  0.24610781  0.85639090  0.49554493  1
  O  O238  1  0.75383486  0.36418998  0.00322836  1
  O  O239  1  0.78721485  0.38568832  0.45951836  1
  O  O240  1  0.74403039  0.86790139  0.01164015  1
  O  O241  1  0.74392932  0.86869424  0.51721948  1
  O  O242  1  0.05229306  0.46573213  0.25916859  1
  O  O243  1  0.14869312  0.49632839  0.74347637  1
  O  O244  1  0.12852093  0.99089869  0.24893848  1
  O  O245  1  0.13980676  0.99841441  0.74295020  1
  O  O246  1  0.61686442  0.49050950  0.23434677  1
  O  O247  1  0.61204750  0.48042005  0.73918337  1
  O  O248  1  0.63400257  1.00010971  0.23740294  1
  O  O249  1  0.62947958  0.98248317  0.74098988  1
  O  O250  1  0.36668292  0.00654569  0.25995936  1
  O  O251  1  0.37578483  -0.00746924  0.74590991  1
  O  O252  1  0.37979876  0.51164058  0.25271244  1
  O  O253  1  0.37393811  0.50485662  0.76027825  1
  O  O254  1  0.85937957  -0.01094994  0.25676528  1
  O  O255  1  0.85252711  -0.01616355  0.75374689  1
  O  O256  1  0.87229375  0.50560781  0.24587246  1
  O  O257  1  0.86051337  0.49208208  0.74086721  1
  O  O258  1  0.11275796  0.36556018  0.38819391  1
  O  O259  1  0.14803519  0.37402597  0.85518548  1
  O  O260  1  0.13382427  0.86604935  0.36790939  1
  O  O261  1  0.12591421  0.89427561  0.85604014  1
  O  O262  1  0.61625121  0.38559727  0.35450432  1
  O  O263  1  0.60542947  0.38287970  0.86433836  1
  O  O264  1  0.61983941  0.86391883  0.36904063  1
  O  O265  1  0.61759484  0.86309299  0.87849029  1
  O  O266  1  0.39160960  0.12135360  0.12924979  1
  O  O267  1  0.34010144  0.14067401  0.64142490  1
  O  O268  1  0.37271913  0.63454328  0.13398156  1
  O  O269  1  0.39425941  0.62980196  0.61570708  1
  O  O270  1  0.88649386  0.13266511  0.10048091  1
  O  O271  1  0.87367686  0.14662509  0.62595988  1
  O  O272  1  0.88231935  0.62574424  0.13399686  1
  O  O273  1  0.90509502  0.61448803  0.66167911  1
  O  O274  1  0.23883709  0.25680484  0.11193741  1
  O  O275  1  0.25890694  0.27166448  0.60557195  1
  O  O276  1  0.25697039  0.76009510  0.12015865  1
  O  O277  1  0.25444160  0.73552409  0.60399913  1
  O  O278  1  0.76447535  0.25277833  0.11510018  1
  O  O279  1  0.78124503  0.26457303  0.60663746  1
  O  O280  1  0.74098752  0.76316718  0.11807238  1
  O  O281  1  0.77005628  0.69975781  0.62618630  1
  O  O282  1  0.22937424  0.26173891  0.38667626  1
  O  O283  1  0.27384455  0.24283632  0.89373514  1
  O  O284  1  0.23988325  0.73861148  0.37753828  1
  O  O285  1  0.25967773  0.75081427  0.89691594  1
  O  O286  1  0.76328444  0.24063192  0.36211610  1
  O  O287  1  0.75769912  0.22955156  0.88274184  1
  O  O288  1  0.73617420  0.74455431  0.37800323  1
  O  O289  1  0.73957470  0.74306253  0.88041156  1
  O  O290  1  0.03047269  0.12213848  -0.03943584  1
  O  O291  1  0.02458228  0.11857301  0.50581882  1
  O  O292  1  0.00740555  0.63534026  0.01208121  1
  O  O293  1  0.00191034  0.62358829  0.52016390  1
  O  O294  1  0.51043397  0.12962596  0.01848765  1
  O  O295  1  0.51231649  0.12027561  0.49009295  1
  O  O296  1  0.51251902  0.61363029  -0.00237718  1
  O  O297  1  0.50416219  0.62121880  0.49624038  1
  O  O298  1  0.50734829  0.36939683  0.47812439  1
  O  O299  1  0.50954551  0.39036860  0.99149381  1
  O  O300  1  0.50632105  0.89887850  0.47340190  1
  O  O301  1  0.49488551  0.88598142  0.99533671  1
  O  O302  1  1.00137310  0.39698762  0.51162621  1
  O  O303  1  0.98646720  0.36898247  0.99877977  1
  O  O304  1  1.01911657  0.89527018  0.50339749  1
  O  O305  1  1.00280542  0.85503710  0.99932463  1
  O  O306  1  0.49345977  0.49077115  0.36730983  1
  O  O307  1  0.49154274  0.49735475  0.88548190  1
  O  O308  1  0.48382279  1.00213487  0.37127157  1
  O  O309  1  0.50679688  0.98457033  0.87539376  1
  O  O310  1  0.99374467  0.51619376  0.40568124  1
  O  O311  1  0.98633596  0.51650295  0.81495059  1
  O  O312  1  1.00485266  1.00962773  0.39361243  1
  O  O313  1  0.97157213  0.99859037  0.85060300  1
  O  O314  1  0.01197651  -0.01542841  0.12332881  1
  O  O315  1  0.02600818  0.00292339  0.62313343  1
  O  O316  1  -0.00463352  0.51697157  0.11924862  1
  O  O317  1  0.01600393  0.50780941  0.62824305  1
  O  O318  1  0.50653080  0.01459043  0.12215050  1
  O  O319  1  0.48842456  0.00033159  0.60171283  1
  O  O320  1  0.50593454  0.49256863  0.11288420  1
  O  O321  1  0.49809231  0.50724016  0.61573284  1
  O  O322  1  0.25326767  0.34713585  0.23682736  1
  O  O323  1  0.25797305  0.38763423  0.73312614  1
  O  O324  1  0.24161209  0.86926798  0.24483027  1
  O  O325  1  0.24987837  0.88150076  0.75286942  1
  O  O326  1  0.74244011  0.37016261  0.23926599  1
  O  O327  1  0.72714890  0.36207248  0.76255842  1
  O  O328  1  0.74602957  0.88020645  0.23603944  1
  O  O329  1  0.73121549  0.87701060  0.74334244  1
  O  O330  1  0.23557368  0.14565760  0.24880669  1
  O  O331  1  0.25981989  0.10871763  0.76990531  1
  O  O332  1  0.25547688  0.63003146  0.25795354  1
  O  O333  1  0.25334817  0.61322441  0.74725243  1
  O  O334  1  0.74855986  0.11009974  0.25821062  1
  O  O335  1  0.72777197  0.10726277  0.76237198  1
  O  O336  1  0.76424480  0.62819555  0.24487213  1
  O  O337  1  0.73241960  0.62266921  0.76711600  1
  O  O338  1  0.37574617  0.13006978  0.36297555  1
  O  O339  1  0.40411159  0.09727579  0.90818312  1
  O  O340  1  0.36749075  0.61738184  0.35862297  1
  O  O341  1  0.37766067  0.61535605  0.88084784  1
  O  O342  1  0.85496327  0.10972261  0.38671138  1
  O  O343  1  0.85535014  0.10828206  0.87334414  1
  O  O344  1  0.86229202  0.62953433  0.35668437  1
  O  O345  1  0.86337358  0.62153800  0.85888654  1
  O  O346  1  0.13480757  0.37651671  0.12675423  1
  O  O347  1  0.14494981  0.38647848  0.63014360  1
  O  O348  1  0.13410389  0.87919155  0.13962205  1
  O  O349  1  0.13522626  0.88466291  0.63859560  1
  O  O350  1  0.63690041  0.37980749  0.13036982  1
  O  O351  1  0.62148498  0.38128617  0.63894520  1
  O  O352  1  0.63097160  0.88675436  0.12444088  1
  O  O353  1  0.60916624  0.86501224  0.63109927  1
  O  O354  1  0.10148234  0.25619268  0.26288173  1
  O  O355  1  0.16742306  0.25803764  0.74086118  1
  O  O356  1  0.11878734  0.75918922  0.25713077  1
  O  O357  1  0.13486785  0.76526609  0.75155955  1
  O  O358  1  0.62491782  0.26334492  0.24238362  1
  O  O359  1  0.60153630  0.26145358  0.74311452  1
  O  O360  1  0.61862724  0.74961803  0.26590445  1
  O  O361  1  0.61747414  0.75670708  0.75904050  1
  O  O362  1  0.39417593  0.25269342  0.24447787  1
  O  O363  1  0.38489415  0.25230298  0.75654631  1
  O  O364  1  0.37430868  0.73956601  0.23880623  1
  O  O365  1  0.39289162  0.75212150  0.75127256  1
  O  O366  1  0.87088675  0.22899444  0.22664807  1
  O  O367  1  0.87127830  0.24895430  0.72779491  1
  O  O368  1  0.88624197  0.76671694  0.26406427  1
  O  O369  1  0.88910207  0.76298271  0.74378433  1
  O  O370  1  0.37306437  0.50412951  0.47610391  1
  O  O371  1  0.38806089  0.50999363  0.99461548  1
  O  O372  1  0.38531677  1.01763308  0.48102252  1
  O  O373  1  0.37529243  0.98339758  1.01817544  1
  O  O374  1  0.88541386  0.51563752  0.53191993  1
  O  O375  1  0.87214686  0.48564187  0.99786733  1
  O  O376  1  0.90385530  1.01447648  0.51573531  1
  O  O377  1  0.87312843  0.99270529  0.98142636  1
  O  O378  1  0.13011020  -0.01441144  0.01097821  1
  O  O379  1  0.13405385  0.01471716  0.51107107  1
  O  O380  1  0.13228862  0.51267642  -0.00135413  1
  O  O381  1  0.12637659  0.50468026  0.51333483  1
  O  O382  1  0.61345932  0.00862734  0.00748776  1
  O  O383  1  0.60888995  0.01408377  0.48967068  1
  O  O384  1  0.61705263  0.50574473  0.00876221  1
  O  O385  1  0.63055394  0.47830475  0.52049750  1
  O  O386  1  0.35702836  0.37534956  0.11405035  1
  O  O387  1  0.37160508  0.39017940  0.61934684  1
  O  O388  1  0.37128217  0.86427179  0.12554671  1
  O  O389  1  0.42390859  0.83999120  0.60249230  1
  O  O390  1  0.86829851  0.36925864  0.11670362  1
  O  O391  1  0.89070085  0.35564543  0.62953042  1
  O  O392  1  0.85983260  0.87891147  0.11868260  1
  O  O393  1  0.88398791  0.88106737  0.60085966  1
  O  O394  1  0.12962345  0.13700124  0.38728499  1
  O  O395  1  0.08266973  0.11476757  0.90425239  1
  O  O396  1  0.13488088  0.62767721  0.36628320  1
  O  O397  1  0.12047101  0.63190428  0.89881269  1
  O  O398  1  0.64228623  0.12917364  0.37551246  1
  O  O399  1  0.63536707  0.12087729  0.89232666  1
  O  O400  1  0.63567194  0.63713847  0.37145852  1
  O  O401  1  0.63152660  0.63124061  0.88656778  1
