# generated using pymatgen
data_V73Zn73O256
_symmetry_space_group_name_H-M   'P 1'
_cell_length_a   16.91389008
_cell_length_b   16.99567829
_cell_length_c   16.91005650
_cell_angle_alpha   89.65833340
_cell_angle_beta   90.45853091
_cell_angle_gamma   90.23994798
_symmetry_Int_Tables_number   1
_chemical_formula_structural   V73Zn73O256
_chemical_formula_sum   'V73 Zn73 O256'
_cell_volume   4860.73240090
_cell_formula_units_Z   1
loop_
 _symmetry_equiv_pos_site_id
 _symmetry_equiv_pos_as_xyz
  1  'x, y, z'
loop_
 _atom_site_type_symbol
 _atom_site_label
 _atom_site_symmetry_multiplicity
 _atom_site_fract_x
 _atom_site_fract_y
 _atom_site_fract_z
 _atom_site_occupancy
  V  V0  1  0.88433339  0.00859811  0.37030615  1
  V  V1  1  0.25227683  0.11789283  0.87122448  1
  V  V2  1  0.49802051  0.36690791  0.87623751  1
  V  V3  1  0.87249989  0.36536150  -0.00522240  1
  V  V4  1  0.87149699  0.50440600  0.36423338  1
  V  V5  1  0.01357094  0.38325089  0.88446663  1
  V  V6  1  0.37348379  0.24371597  0.12838073  1
  V  V7  1  0.24833803  0.01537368  0.24681176  1
  V  V8  1  0.01422973  0.61243859  0.13851822  1
  V  V9  1  0.12557512  0.75785003  0.36638161  1
  V  V10  1  0.37160422  0.62626912  0.25267248  1
  V  V11  1  0.87838234  0.12314171  0.75327130  1
  V  V12  1  0.50513984  0.00489203  0.50177224  1
  V  V13  1  0.63032876  0.13277811  0.50148177  1
  V  V14  1  0.74105824  0.25124515  -0.01051336  1
  V  V15  1  0.37397398  -0.01365885  0.87034826  1
  V  V16  1  0.37760495  0.75407190  0.63283679  1
  V  V17  1  0.49850406  0.24874172  0.24888241  1
  V  V18  1  0.75129338  0.36770582  0.12950789  1
  V  V19  1  0.49134873  0.62176110  0.62017552  1
  V  V20  1  0.24834624  0.24314625  -0.00203130  1
  V  V21  1  0.00803439  -0.00186405  0.50509980  1
  V  V22  1  0.49925494  0.50283758  -0.00468463  1
  V  V23  1  0.76999859  0.83375859  0.07385613  1
  V  V24  1  0.49601496  0.24431564  0.75161644  1
  V  V25  1  0.12751151  0.24255106  0.87209479  1
  V  V26  1  0.37324197  0.86355904  0.01575424  1
  V  V27  1  0.25328447  0.75191013  0.49791985  1
  V  V28  1  0.00265721  0.49922263  0.51212979  1
  V  V29  1  0.87556248  0.50077665  0.86949822  1
  V  V30  1  0.37096220  0.01429815  0.36978513  1
  V  V31  1  0.73845363  0.00215346  0.73570103  1
  V  V32  1  0.61344490  0.48685934  0.61818372  1
  V  V33  1  0.75193127  0.12282251  0.87359709  1
  V  V34  1  0.86514228  0.37383520  0.50403969  1
  V  V35  1  0.37662509  0.87591735  0.50028182  1
  V  V36  1  -0.01637972  0.63787744  0.63033120  1
  V  V37  1  0.74201590  0.00662085  0.24869021  1
  V  V38  1  0.62987610  0.36433248  0.75502376  1
  V  V39  1  0.41513357  0.49415886  0.37629599  1
  V  V40  1  -0.03342392  -0.02124555  0.00880786  1
  V  V41  1  0.23861158  0.38272022  0.13107772  1
  V  V42  1  0.50380613  0.12308288  0.12573729  1
  V  V43  1  0.61933459  0.37717279  0.24739667  1
  V  V44  1  0.00360810  0.87811322  0.34976507  1
  V  V45  1  0.62089576  0.12781946  -0.00724972  1
  V  V46  1  0.86774286  0.71568316  0.14575164  1
  V  V47  1  0.01212057  0.37591114  0.36762225  1
  V  V48  1  -0.01026260  0.13956837  0.13975575  1
  V  V49  1  0.12944910  0.62603916  0.50406539  1
  V  V50  1  0.00105855  0.25100203  0.74949934  1
  V  V51  1  0.74714893  0.62248044  0.88072655  1
  V  V52  1  0.50280260  -0.00763001  0.00203024  1
  V  V53  1  0.86517170  0.25554246  0.62117707  1
  V  V54  1  0.37456661  0.37513749  -0.00310736  1
  V  V55  1  0.62660498  0.50327122  0.12076468  1
  V  V56  1  0.26870776  0.36990120  0.62322680  1
  V  V57  1  0.38278943  0.61480960  0.76364465  1
  V  V58  1  0.24207677  0.85876546  0.13767326  1
  V  V59  1  0.13805357  0.13406003  0.49685274  1
  V  V60  1  0.00644779  0.12993889  0.62193880  1
  V  V61  1  0.74962807  0.49984234  0.74018164  1
  V  V62  1  0.23062756  0.62256784  0.88786356  1
  V  V63  1  0.12773786  0.37630472  0.73811635  1
  V  V64  1  0.76280362  0.14246156  0.37441321  1
  V  V65  1  0.25018398  0.49659402  0.75089193  1
  V  V66  1  0.62455191  0.25796480  0.37568799  1
  V  V67  1  0.37270803  0.12153678  0.74460012  1
  V  V68  1  0.62860537  0.63730944  0.50348029  1
  V  V69  1  0.50367145  0.12075465  0.62661835  1
  V  V70  1  0.50710386  0.87181508  0.36936178  1
  V  V71  1  0.13770010  0.25633504  0.36649606  1
  V  V72  1  0.59398265  0.78254788  0.86586078  1
  Zn  Zn73  1  0.26971789  0.26013712  0.50044944  1
  Zn  Zn74  1  0.64139478  0.87852042  0.22307115  1
  Zn  Zn75  1  0.11793114  0.00192310  0.12845445  1
  Zn  Zn76  1  0.63383555  0.64054439  -0.00101805  1
  Zn  Zn77  1  0.81117671  0.83559256  0.54507905  1
  Zn  Zn78  1  0.01211113  0.51345870  0.01054420  1
  Zn  Zn79  1  0.75810018  0.63598554  0.37377083  1
  Zn  Zn80  1  0.50483209  0.75215665  0.23760239  1
  Zn  Zn81  1  0.49516772  0.63857998  0.12224984  1
  Zn  Zn82  1  0.17820434  0.18599413  0.18076393  1
  Zn  Zn83  1  0.19289288  0.18760370  0.68352797  1
  Zn  Zn84  1  0.18899633  0.67533845  0.18896999  1
  Zn  Zn85  1  0.20276178  0.66393803  0.67252934  1
  Zn  Zn86  1  0.68727555  0.18654477  0.18552965  1
  Zn  Zn87  1  0.68760281  0.18674505  0.68781942  1
  Zn  Zn88  1  0.68252414  0.69433695  0.20785384  1
  Zn  Zn89  1  0.66896558  0.67838894  0.69740653  1
  Zn  Zn90  1  0.31751866  0.32301569  0.31319047  1
  Zn  Zn91  1  0.31469174  0.30903785  0.81004849  1
  Zn  Zn92  1  0.31938438  0.81000596  0.31156182  1
  Zn  Zn93  1  0.31275645  0.79572893  0.82214273  1
  Zn  Zn94  1  0.82193892  0.32123543  0.31000243  1
  Zn  Zn95  1  0.81389108  0.30904485  0.81326415  1
  Zn  Zn96  1  0.81862335  0.82237669  0.31615699  1
  Zn  Zn97  1  0.76092212  0.80266911  0.79714877  1
  Zn  Zn98  1  0.19009355  0.43959997  0.44655761  1
  Zn  Zn99  1  0.19169495  0.43567104  0.93322762  1
  Zn  Zn100  1  0.18895583  0.94059037  0.43813300  1
  Zn  Zn101  1  0.19731593  0.93552410  0.95303807  1
  Zn  Zn102  1  0.68553008  0.44212740  0.43510402  1
  Zn  Zn103  1  0.68498171  0.43835774  0.93344984  1
  Zn  Zn104  1  0.69759784  0.95413646  0.43219584  1
  Zn  Zn105  1  0.68782266  0.94063809  0.93162686  1
  Zn  Zn106  1  0.31364019  0.05697609  0.06213395  1
  Zn  Zn107  1  0.31308919  0.06178866  0.55970568  1
  Zn  Zn108  1  0.31455936  0.56469150  0.06918555  1
  Zn  Zn109  1  0.31559835  0.54790001  0.55553952  1
  Zn  Zn110  1  0.81542248  0.07260594  0.06613151  1
  Zn  Zn111  1  0.81894648  0.06913710  0.55614831  1
  Zn  Zn112  1  0.81869728  0.54750009  0.06149823  1
  Zn  Zn113  1  0.80894269  0.56058299  0.55719869  1
  Zn  Zn114  1  0.43300105  0.44159145  0.18694878  1
  Zn  Zn115  1  0.43917402  0.43837987  0.69529676  1
  Zn  Zn116  1  0.43304163  0.94145840  0.18974947  1
  Zn  Zn117  1  0.29902844  0.93602118  0.68439388  1
  Zn  Zn118  1  0.94056992  0.42324562  0.18931497  1
  Zn  Zn119  1  0.93994092  0.43767294  0.68851681  1
  Zn  Zn120  1  0.91899223  0.95121789  0.18003127  1
  Zn  Zn121  1  0.91046582  0.94664436  0.67109046  1
  Zn  Zn122  1  0.07194168  0.06912355  0.31100533  1
  Zn  Zn123  1  0.08360086  0.08262719  0.95995512  1
  Zn  Zn124  1  0.05923967  0.56647566  0.32805171  1
  Zn  Zn125  1  0.06351010  0.56359149  0.80330592  1
  Zn  Zn126  1  0.56565844  0.06535622  0.31595750  1
  Zn  Zn127  1  0.56129121  0.05248114  0.81571278  1
  Zn  Zn128  1  0.58020924  0.57991237  0.30791280  1
  Zn  Zn129  1  0.56490864  0.55363391  0.81255375  1
  Zn  Zn130  1  0.44417512  0.18863930  0.43142905  1
  Zn  Zn131  1  0.43426584  0.18468457  0.93580800  1
  Zn  Zn132  1  0.44241841  0.68269727  0.43305409  1
  Zn  Zn133  1  0.44472954  0.69185472  0.93405126  1
  Zn  Zn134  1  0.94779411  0.19704403  0.43637656  1
  Zn  Zn135  1  0.93433902  0.18617277  0.94441438  1
  Zn  Zn136  1  0.94009040  0.69043720  0.43321693  1
  Zn  Zn137  1  0.91238214  0.69022595  0.96927655  1
  Zn  Zn138  1  0.06330020  0.30418919  0.06365592  1
  Zn  Zn139  1  0.06490604  0.31146376  0.55904578  1
  Zn  Zn140  1  0.03706090  0.82142752  0.11223013  1
  Zn  Zn141  1  0.06592143  0.80926586  0.57159661  1
  Zn  Zn142  1  0.56277268  0.31012399  0.06261182  1
  Zn  Zn143  1  0.54821721  0.30618279  0.56225551  1
  Zn  Zn144  1  0.58163679  0.81199941  0.05945227  1
  Zn  Zn145  1  0.61137821  0.83921914  0.51063150  1
  O  O146  1  0.10778339  0.12004946  0.12489973  1
  O  O147  1  0.11639204  0.13627356  0.61201904  1
  O  O148  1  0.11361620  0.62362771  0.12349028  1
  O  O149  1  0.11320069  0.63445470  0.60943322  1
  O  O150  1  0.61362504  0.13054497  0.11003384  1
  O  O151  1  0.61852653  0.13609376  0.61111491  1
  O  O152  1  0.62688680  0.60684807  0.11371138  1
  O  O153  1  0.61020768  0.60855454  0.62760965  1
  O  O154  1  0.38727272  0.39547381  0.36192537  1
  O  O155  1  0.38437896  0.36741205  0.88408686  1
  O  O156  1  0.38626558  0.88493651  0.38585326  1
  O  O157  1  0.36307283  0.88361481  0.88274066  1
  O  O158  1  0.89186608  0.38101357  0.39030559  1
  O  O159  1  0.88576733  0.37724610  0.87744087  1
  O  O160  1  0.89841766  0.89158638  0.37381226  1
  O  O161  1  0.91212910  0.82085300  0.84879900  1
  O  O162  1  0.26393754  -0.00561222  0.36551610  1
  O  O163  1  0.26209258  0.00780869  0.88400417  1
  O  O164  1  0.21986937  0.50257991  0.34772751  1
  O  O165  1  0.24952381  0.50513864  0.86084638  1
  O  O166  1  0.76442401  0.02203856  0.37236768  1
  O  O167  1  0.74516626  0.01982862  0.86600127  1
  O  O168  1  0.77012793  0.49317041  0.37902898  1
  O  O169  1  0.75846975  0.49704309  0.86339820  1
  O  O170  1  0.25405596  0.48051874  0.11589795  1
  O  O171  1  0.25583332  0.48872348  0.63902262  1
  O  O172  1  0.25812158  0.99336786  0.14008023  1
  O  O173  1  0.24321122  0.99902152  0.61615555  1
  O  O174  1  0.73248036  0.48244391  0.11051239  1
  O  O175  1  0.73423685  0.50045543  0.63529879  1
  O  O176  1  0.75265221  1.02230865  0.15087708  1
  O  O177  1  0.76033222  1.01196392  0.63620448  1
  O  O178  1  0.02455515  0.39793960  0.27245280  1
  O  O179  1  0.00902928  0.36786379  0.75709321  1
  O  O180  1  -0.00090765  0.88148797  0.25034291  1
  O  O181  1  0.02062380  0.90646920  0.75597663  1
  O  O182  1  0.51115984  0.36077636  0.23409188  1
  O  O183  1  0.50432368  0.36432562  0.75803967  1
  O  O184  1  0.49971474  0.88349963  0.26456024  1
  O  O185  1  0.54437297  0.87299569  0.69466611  1
  O  O186  1  0.51106939  0.13595833  0.23756574  1
  O  O187  1  0.49502092  0.12540900  0.74744369  1
  O  O188  1  0.50150834  0.63193607  0.24165067  1
  O  O189  1  0.48817783  0.61262151  0.74509762  1
  O  O190  1  1.00029275  0.11924633  0.24161180  1
  O  O191  1  0.99421520  0.14144113  0.74076322  1
  O  O192  1  1.00727957  0.61189058  0.24060499  1
  O  O193  1  1.00505767  0.62385664  0.72890666  1
  O  O194  1  0.36885022  0.25587461  0.00496335  1
  O  O195  1  0.39666865  0.26653667  0.50132102  1
  O  O196  1  0.38709292  0.76767874  -0.00541062  1
  O  O197  1  0.37312098  0.75601646  0.50558433  1
  O  O198  1  0.85532170  0.25723281  -0.00697798  1
  O  O199  1  0.88564421  0.26667695  0.50664525  1
  O  O200  1  0.85977405  0.75883662  0.04246350  1
  O  O201  1  0.84400202  0.75281309  0.46615331  1
  O  O202  1  0.12803055  0.24259396  0.49357750  1
  O  O203  1  0.13751495  0.25357329  0.98381437  1
  O  O204  1  0.13738509  0.74853138  0.49955032  1
  O  O205  1  0.09517223  0.79686850  0.91138190  1
  O  O206  1  0.61584166  0.24851360  0.48702033  1
  O  O207  1  0.63069778  0.24215728  0.99849064  1
  O  O208  1  0.62865416  0.73181855  0.53676330  1
  O  O209  1  0.61758196  0.75022211  0.96552001  1
  O  O210  1  0.49322819  0.24183781  0.12779950  1
  O  O211  1  0.50071992  0.23460149  0.64170315  1
  O  O212  1  0.51180815  0.75076412  0.11900004  1
  O  O213  1  0.48309894  0.72857646  0.63008850  1
  O  O214  1  1.00502964  0.24040986  0.13183567  1
  O  O215  1  0.99520238  0.24870420  0.63206228  1
  O  O216  1  0.98000404  0.72619348  0.13710598  1
  O  O217  1  0.99184710  0.73716984  0.61337157  1
  O  O218  1  0.01266613  0.26906763  0.37501500  1
  O  O219  1  0.00986219  0.25743915  0.86717596  1
  O  O220  1  0.00819887  0.77235399  0.38011120  1
  O  O221  1  -0.05082144  0.75979763  0.86884199  1
  O  O222  1  0.51252103  0.24531023  0.35924115  1
  O  O223  1  0.49941415  0.25497854  0.86619535  1
  O  O224  1  0.49678493  0.77296046  0.38527833  1
  O  O225  1  0.49669514  0.75820181  0.85470126  1
  O  O226  1  0.24176435  0.13789120  0.50491438  1
  O  O227  1  0.26146227  0.13520303  0.98722196  1
  O  O228  1  0.23500718  0.62883521  0.50361817  1
  O  O229  1  0.25067679  0.60256113  0.98507117  1
  O  O230  1  0.74371599  0.12813028  0.48588574  1
  O  O231  1  0.74151462  0.13241602  0.99340389  1
  O  O232  1  0.73102791  0.61307058  0.49272936  1
  O  O233  1  0.75121384  0.60719970  0.98493942  1
  O  O234  1  0.25906373  0.36372347  -0.00155263  1
  O  O235  1  0.25307815  0.38230262  0.51936135  1
  O  O236  1  0.26559756  0.87194433  0.01943951  1
  O  O237  1  0.26622447  0.86821768  0.49670343  1
  O  O238  1  0.75041111  0.36537586  -0.00425882  1
  O  O239  1  0.76699644  0.37821650  0.49698118  1
  O  O240  1  0.75872842  0.86533203  -0.02303054  1
  O  O241  1  0.71634014  0.88401968  0.51687406  1
  O  O242  1  0.16322603  0.50881933  0.29600095  1
  O  O243  1  0.13413082  0.48448454  0.75293147  1
  O  O244  1  0.14492121  1.00039960  0.25322852  1
  O  O245  1  0.07440348  0.95493692  0.76626445  1
  O  O246  1  0.61413191  0.48642207  0.22688871  1
  O  O247  1  0.62985136  0.48358142  0.74165214  1
  O  O248  1  0.63601947  0.99867886  0.25632283  1
  O  O249  1  0.63804563  1.01438514  0.74256101  1
  O  O250  1  0.37190833  0.00469579  0.26469201  1
  O  O251  1  0.37012833  -0.00008608  0.76479504  1
  O  O252  1  0.38933809  0.51155335  0.26335797  1
  O  O253  1  0.36870854  0.50938139  0.75274557  1
  O  O254  1  0.86695223  0.00857681  0.26603998  1
  O  O255  1  0.87578820  0.02083198  0.74724542  1
  O  O256  1  0.88106335  0.49078499  0.26705709  1
  O  O257  1  0.85551611  0.48420016  0.75315502  1
  O  O258  1  0.11983255  0.36665389  0.39048728  1
  O  O259  1  0.12845401  0.35612050  0.85695202  1
  O  O260  1  0.11502376  0.87004546  0.37658495  1
  O  O261  1  0.13076919  0.85421533  0.88163357  1
  O  O262  1  0.63545186  0.36743103  0.36129896  1
  O  O263  1  0.61540871  0.37530564  0.86080382  1
  O  O264  1  0.60719136  0.88652074  0.39004831  1
  O  O265  1  0.60721081  0.88238880  0.86981553  1
  O  O266  1  0.38583171  0.13709917  0.11542337  1
  O  O267  1  0.38513648  0.11676541  0.63786468  1
  O  O268  1  0.38277972  0.61445542  0.14162862  1
  O  O269  1  0.38248443  0.61847275  0.62950413  1
  O  O270  1  0.88663980  0.13210821  0.12903101  1
  O  O271  1  0.88683664  0.13826309  0.62858750  1
  O  O272  1  0.86560247  0.61403056  0.14198977  1
  O  O273  1  0.88476571  0.61657533  0.61889348  1
  O  O274  1  0.25607386  0.25071458  0.11348899  1
  O  O275  1  0.25455402  0.26471936  0.62307610  1
  O  O276  1  0.24653331  0.76026789  0.13561950  1
  O  O277  1  0.26894187  0.73599941  0.61071929  1
  O  O278  1  0.74370148  0.26309001  0.11266105  1
  O  O279  1  0.76600399  0.24735292  0.62838028  1
  O  O280  1  0.75301273  0.73573970  0.12840010  1
  O  O281  1  0.76423798  0.73764929  0.64476902  1
  O  O282  1  0.24309504  0.26733437  0.38505227  1
  O  O283  1  0.24734066  0.24052101  0.87798411  1
  O  O284  1  0.23768391  0.75945800  0.38640372  1
  O  O285  1  0.25070764  0.72159069  0.87678843  1
  O  O286  1  0.74849007  0.24729285  0.36647897  1
  O  O287  1  0.74532823  0.24018324  0.87894651  1
  O  O288  1  0.78435156  0.75081673  0.40291330  1
  O  O289  1  0.77216149  0.71973822  0.87354241  1
  O  O290  1  -0.00736576  0.12216161  0.01432528  1
  O  O291  1  0.01099042  0.12609783  0.50569424  1
  O  O292  1  -0.01665623  0.62188486  0.02228657  1
  O  O293  1  0.00328526  0.61590684  0.50741986  1
  O  O294  1  0.50375454  0.11917957  0.00373625  1
  O  O295  1  0.50661306  0.12458369  0.50690354  1
  O  O296  1  0.50161035  0.60843757  -0.00522062  1
  O  O297  1  0.50336843  0.62192855  0.51852559  1
  O  O298  1  0.44512674  0.33228978  0.50525136  1
  O  O299  1  0.49397995  0.37339324  0.99242325  1
  O  O300  1  0.49620256  0.88860897  0.49741564  1
  O  O301  1  0.49360376  0.88999165  1.01038432  1
  O  O302  1  1.00492134  0.39106271  0.49883045  1
  O  O303  1  0.98272194  0.35152161  0.99047143  1
  O  O304  1  1.02201445  0.89952766  0.51231079  1
  O  O305  1  0.98487138  0.87893102  1.02826433  1
  O  O306  1  0.51634679  0.49949171  0.37471780  1
  O  O307  1  0.50528768  0.48355832  0.88714860  1
  O  O308  1  0.48906434  1.00039513  0.38160598  1
  O  O309  1  0.48309771  1.00317390  0.88794384  1
  O  O310  1  0.99307087  0.49401803  0.39080879  1
  O  O311  1  0.97955145  0.49047854  0.84733393  1
  O  O312  1  1.00420692  0.99308592  0.37934274  1
  O  O313  1  1.00438603  0.99732468  0.91716531  1
  O  O314  1  -0.00482291  0.00818301  0.11705417  1
  O  O315  1  -0.00544027  0.01768940  0.61171643  1
  O  O316  1  -0.00499724  0.50454779  0.12557154  1
  O  O317  1  0.00155094  0.50486845  0.61507093  1
  O  O318  1  0.48949833  0.01162754  0.11215657  1
  O  O319  1  0.50255096  0.01508025  0.61029382  1
  O  O320  1  0.51118474  0.49046728  0.10737355  1
  O  O321  1  0.50723593  0.50440774  0.62983026  1
  O  O322  1  0.25301085  0.36711910  0.22945430  1
  O  O323  1  0.24745219  0.37662023  0.74324477  1
  O  O324  1  0.26371180  0.88103335  0.23934119  1
  O  O325  1  0.24060296  0.85955225  0.75165049  1
  O  O326  1  0.73850016  0.37106525  0.23334805  1
  O  O327  1  0.73456732  0.37721010  0.75428333  1
  O  O328  1  0.75085751  0.90226577  0.27011630  1
  O  O329  1  0.75888681  0.90563348  0.75929401  1
  O  O330  1  0.25333535  0.11426799  0.24252224  1
  O  O331  1  0.25962838  0.12912531  0.75925578  1
  O  O332  1  0.27014093  0.62767562  0.25097058  1
  O  O333  1  0.25849544  0.61351815  0.75648478  1
  O  O334  1  0.74206769  0.12349360  0.26856959  1
  O  O335  1  0.75853623  0.12377272  0.75463048  1
  O  O336  1  0.69243642  0.61475718  0.28531561  1
  O  O337  1  0.74198410  0.60223036  0.75918210  1
  O  O338  1  0.37353484  0.11295311  0.38459595  1
  O  O339  1  0.37004845  0.11393948  0.86580358  1
  O  O340  1  0.39093699  0.61053136  0.36319633  1
  O  O341  1  0.37758018  0.62470405  0.86345429  1
  O  O342  1  0.86762402  0.13274867  0.37944083  1
  O  O343  1  0.86574637  0.13894322  0.86229807  1
  O  O344  1  0.87740152  0.60837836  0.37981658  1
  O  O345  1  0.86898305  0.60262290  0.87703941  1
  O  O346  1  0.13945566  0.37051307  0.11301654  1
  O  O347  1  0.13312931  0.36785189  0.63535786  1
  O  O348  1  0.13836008  0.87448537  0.13022470  1
  O  O349  1  0.14603072  0.85873189  0.65154672  1
  O  O350  1  0.63346010  0.37659768  0.12677503  1
  O  O351  1  0.60902032  0.38079656  0.63396556  1
  O  O352  1  0.67119207  0.86740601  0.10669086  1
  O  O353  1  0.60451627  0.86889973  0.65406559  1
  O  O354  1  0.13692945  0.24961288  0.26803793  1
  O  O355  1  0.11839490  0.25210638  0.75229657  1
  O  O356  1  0.13060377  0.74406400  0.26942176  1
  O  O357  1  0.17290291  0.81780364  0.71314310  1
  O  O358  1  0.61959225  0.25784066  0.25394801  1
  O  O359  1  0.61767406  0.26031440  0.74585364  1
  O  O360  1  0.61730350  0.77356940  0.25183084  1
  O  O361  1  0.64768254  0.75443625  0.77863459  1
  O  O362  1  0.38652346  0.25510521  0.23911136  1
  O  O363  1  0.38486689  0.23399480  0.75642952  1
  O  O364  1  0.38799164  0.73452066  0.26233351  1
  O  O365  1  0.36669525  0.73071455  0.73691812  1
  O  O366  1  0.89507823  0.32106550  0.22743690  1
  O  O367  1  0.88435843  0.24990411  0.74150491  1
  O  O368  1  0.86107689  0.74855887  0.24182379  1
  O  O369  1  0.81819476  0.75023902  0.69942558  1
  O  O370  1  0.37544202  0.50703565  0.47254405  1
  O  O371  1  0.39139835  0.48551036  1.00579611  1
  O  O372  1  0.38367634  0.99430321  0.49199665  1
  O  O373  1  0.38208645  0.98910257  0.99233321  1
  O  O374  1  0.88662343  0.48826263  0.50014665  1
  O  O375  1  0.87865736  0.48358691  0.97950555  1
  O  O376  1  0.89675559  1.01309957  0.48519873  1
  O  O377  1  0.86650864  0.99556089  1.00141079  1
  O  O378  1  0.13436166  -0.00102906  0.01415680  1
  O  O379  1  0.11771655  0.02274231  0.48792592  1
  O  O380  1  0.07902651  0.45261874  -0.05287851  1
  O  O381  1  0.11535556  0.51753419  0.49292171  1
  O  O382  1  0.60769213  0.00727488  -0.00585912  1
  O  O383  1  0.61406571  0.02350365  0.48577156  1
  O  O384  1  0.61185807  0.49067515  0.00523317  1
  O  O385  1  0.62422211  0.49724645  0.51669810  1
  O  O386  1  0.37027336  0.36218721  0.11356695  1
  O  O387  1  0.36782857  0.37415496  0.63549141  1
  O  O388  1  0.37335425  0.87204463  0.11947057  1
  O  O389  1  0.37712707  0.85769347  0.62279554  1
  O  O390  1  0.85393567  0.39071136  0.10319022  1
  O  O391  1  0.88225270  0.37006962  0.61297450  1
  O  O392  1  0.83643039  0.88558944  0.12965337  1
  O  O393  1  0.89142099  0.85719650  0.61689328  1
  O  O394  1  0.12275874  0.14488203  0.38673766  1
  O  O395  1  0.13766560  0.13412808  0.87023558  1
  O  O396  1  0.10814281  0.64989139  0.39509007  1
  O  O397  1  0.12978987  0.61752861  0.87707925  1
  O  O398  1  0.63464547  0.14168407  0.38131765  1
  O  O399  1  0.62880826  0.12286171  0.88630616  1
  O  O400  1  0.59972335  0.64330089  0.40849446  1
  O  O401  1  0.63997739  0.61363132  0.87647946  1
