# generated using pymatgen
data_V73Zn73O256
_symmetry_space_group_name_H-M   'P 1'
_cell_length_a   16.91286343
_cell_length_b   16.89451533
_cell_length_c   16.83296536
_cell_angle_alpha   90.17933439
_cell_angle_beta   90.09953484
_cell_angle_gamma   89.73190088
_symmetry_Int_Tables_number   1
_chemical_formula_structural   V73Zn73O256
_chemical_formula_sum   'V73 Zn73 O256'
_cell_volume   4809.67778802
_cell_formula_units_Z   1
loop_
 _symmetry_equiv_pos_site_id
 _symmetry_equiv_pos_as_xyz
  1  'x, y, z'
loop_
 _atom_site_type_symbol
 _atom_site_label
 _atom_site_symmetry_multiplicity
 _atom_site_fract_x
 _atom_site_fract_y
 _atom_site_fract_z
 _atom_site_occupancy
  V  V0  1  0.50436834  0.25315071  0.76332562  1
  V  V1  1  0.75338701  0.75253655  0.01204444  1
  V  V2  1  0.25604505  0.75889051  0.00655215  1
  V  V3  1  0.87430969  0.24464311  0.15190554  1
  V  V4  1  0.61897059  0.77141115  0.37493008  1
  V  V5  1  0.87798774  0.50438246  0.87525066  1
  V  V6  1  0.88415742  -0.01518631  0.38121993  1
  V  V7  1  0.50405211  0.62243651  0.62338831  1
  V  V8  1  -0.00019490  0.50211783  -0.00201800  1
  V  V9  1  0.13196858  0.74283993  0.39434907  1
  V  V10  1  0.50265932  0.87948787  0.87544848  1
  V  V11  1  0.62806953  0.62344140  0.01267318  1
  V  V12  1  0.36827967  0.61236455  0.24962584  1
  V  V13  1  0.62607668  0.37278821  0.77409825  1
  V  V14  1  0.13157913  -0.01519195  0.61801223  1
  V  V15  1  0.11805411  0.25084060  0.37212445  1
  V  V16  1  0.74961957  0.37948607  0.12102256  1
  V  V17  1  0.48909574  0.24800032  0.23542429  1
  V  V18  1  0.50983027  0.74965456  0.75167797  1
  V  V19  1  0.00185502  0.00871496  0.00871569  1
  V  V20  1  0.36676928  0.13410621  0.74356492  1
  V  V21  1  0.50957394  0.12401896  0.62727930  1
  V  V22  1  0.49656082  0.49316209  0.49503212  1
  V  V23  1  0.24786723  -0.01873799  0.74661710  1
  V  V24  1  0.13000791  0.52620404  0.62594995  1
  V  V25  1  0.48413418  0.36975604  0.37050219  1
  V  V26  1  -0.00751151  0.64412612  0.12912353  1
  V  V27  1  0.11566978  0.11971271  0.49566119  1
  V  V28  1  0.74775645  0.88077852  0.62558163  1
  V  V29  1  0.62661373  0.48468488  0.62557102  1
  V  V30  1  0.01821858  0.75492259  0.76061734  1
  V  V31  1  -0.00585182  0.11020704  0.63588466  1
  V  V32  1  0.24790678  0.24295459  0.51661984  1
  V  V33  1  0.87754876  0.87894794  0.01092948  1
  V  V34  1  0.50023851  0.61985380  0.13108192  1
  V  V35  1  0.75163624  0.62764843  0.87714848  1
  V  V36  1  0.12446948  0.63807394  -0.00632635  1
  V  V37  1  0.37669991  0.00936457  0.87601105  1
  V  V38  1  0.73297473  0.88011288  0.13258844  1
  V  V39  1  0.25340439  0.63337833  0.87302097  1
  V  V40  1  0.36891858  0.36736858  0.51595151  1
  V  V41  1  0.87927352  0.36279637  -0.00700758  1
  V  V42  1  0.80604483  0.54958039  0.30771398  1
  V  V43  1  0.63466037  0.38029567  0.25265604  1
  V  V44  1  0.25659968  0.61455979  0.39337832  1
  V  V45  1  0.35073830  0.34925799  0.00520901  1
  V  V46  1  0.38036846  0.62496514  0.75457106  1
  V  V47  1  0.00240088  0.12569169  0.14114900  1
  V  V48  1  0.74634885  0.13899611  0.88360184  1
  V  V49  1  0.87700242  -0.00251801  0.86757778  1
  V  V50  1  0.14143810  0.50047289  0.11772988  1
  V  V51  1  0.24978171  0.88827000  0.13529010  1
  V  V52  1  0.25319215  0.48811983  0.74937350  1
  V  V53  1  0.48969630  0.10982898  0.12558233  1
  V  V54  1  0.62477798  0.12735986  0.01343632  1
  V  V55  1  0.63066750  0.62145895  0.48843472  1
  V  V56  1  0.75215391  0.25382200  0.50832140  1
  V  V57  1  0.75644251  0.50011207  0.74516775  1
  V  V58  1  0.75846900  0.12577345  0.37044146  1
  V  V59  1  0.11956072  0.38270726  0.25696918  1
  V  V60  1  0.36680216  0.03522786  0.36555608  1
  V  V61  1  0.73833399  -0.00151669  0.25090387  1
  V  V62  1  0.75573136  0.75159338  0.49442360  1
  V  V63  1  0.88129373  0.24607143  0.62885857  1
  V  V64  1  0.88356300  0.40073486  0.50273584  1
  V  V65  1  0.62229156  0.11551376  0.49908129  1
  V  V66  1  0.86279496  0.74215604  0.65691385  1
  V  V67  1  0.49879980  0.76192562  0.25088290  1
  V  V68  1  0.38203593  0.88044587  0.00801194  1
  V  V69  1  0.37455391  0.76136214  0.61588429  1
  V  V70  1  0.74308538  0.00950190  0.75169161  1
  V  V71  1  0.10462919  0.87227118  0.25297094  1
  V  V72  1  0.50419918  0.49073580  -0.00383695  1
  Zn  Zn73  1  0.02529583  0.52242947  0.47971376  1
  Zn  Zn74  1  0.23137445  0.19613439  -0.01432094  1
  Zn  Zn75  1  0.62705190  0.75482135  0.88070928  1
  Zn  Zn76  1  0.48831076  -0.02407398  0.48710523  1
  Zn  Zn77  1  -0.01044525  0.84999208  0.41088932  1
  Zn  Zn78  1  0.62366041  0.24893547  0.37362509  1
  Zn  Zn79  1  0.13861035  0.79775542  0.87413869  1
  Zn  Zn80  1  0.38499880  0.48469625  0.87585506  1
  Zn  Zn81  1  0.62154386  0.88462131  0.74742077  1
  Zn  Zn82  1  0.17487649  0.23009118  0.16070337  1
  Zn  Zn83  1  0.18025370  0.17948474  0.68452610  1
  Zn  Zn84  1  0.17830047  0.69310338  0.18510110  1
  Zn  Zn85  1  0.19353007  0.70055883  0.68586034  1
  Zn  Zn86  1  0.68533907  0.19767574  0.18738037  1
  Zn  Zn87  1  0.68726991  0.18952958  0.69085293  1
  Zn  Zn88  1  0.68991398  0.68778825  0.19701866  1
  Zn  Zn89  1  0.69007282  0.67996009  0.68247999  1
  Zn  Zn90  1  0.29352772  0.20682857  0.29858681  1
  Zn  Zn91  1  0.31547257  0.30958846  0.82574079  1
  Zn  Zn92  1  0.29477341  0.77511902  0.29115362  1
  Zn  Zn93  1  0.32357139  0.81083273  0.81242002  1
  Zn  Zn94  1  0.81768987  0.32723729  0.32074606  1
  Zn  Zn95  1  0.81851203  0.31778953  0.80745738  1
  Zn  Zn96  1  0.81556478  0.80677244  0.30999779  1
  Zn  Zn97  1  0.80512255  0.82363904  0.82223377  1
  Zn  Zn98  1  0.19287085  0.43567304  0.43921622  1
  Zn  Zn99  1  0.19613752  0.45191236  0.93962147  1
  Zn  Zn100  1  0.17495750  0.95065810  0.40330304  1
  Zn  Zn101  1  0.20015905  0.98621146  0.95589313  1
  Zn  Zn102  1  0.68739823  0.43360028  0.43926522  1
  Zn  Zn103  1  0.69325055  0.44041705  0.94591774  1
  Zn  Zn104  1  0.68889333  0.94010702  0.44152987  1
  Zn  Zn105  1  0.68517943  0.94527646  0.94264761  1
  Zn  Zn106  1  0.27514810  0.09677805  0.11826763  1
  Zn  Zn107  1  0.31450664  0.06095509  0.56203251  1
  Zn  Zn108  1  0.32348459  0.56930432  0.05839125  1
  Zn  Zn109  1  0.31870031  0.55741683  0.56905817  1
  Zn  Zn110  1  0.81168030  0.06652884  0.06563134  1
  Zn  Zn111  1  0.81371825  0.06050473  0.55955751  1
  Zn  Zn112  1  0.81647590  0.56339244  0.07139077  1
  Zn  Zn113  1  0.86237987  0.60785900  0.49791696  1
  Zn  Zn114  1  0.43398033  0.43291040  0.17935985  1
  Zn  Zn115  1  0.44250025  0.43446848  0.69117906  1
  Zn  Zn116  1  0.43296380  0.94713183  0.19957334  1
  Zn  Zn117  1  0.43909065  0.94233923  0.68635983  1
  Zn  Zn118  1  0.94297376  0.44160542  0.18303674  1
  Zn  Zn119  1  0.96233910  0.59862241  0.65026099  1
  Zn  Zn120  1  0.92276583  0.94494322  0.19342639  1
  Zn  Zn121  1  0.97272494  0.88778580  0.62343726  1
  Zn  Zn122  1  0.06373057  0.05959015  0.30862942  1
  Zn  Zn123  1  0.05765311  -0.05954731  0.81097982  1
  Zn  Zn124  1  0.08362208  0.56220358  0.30341056  1
  Zn  Zn125  1  0.06464296  0.56609171  0.80899764  1
  Zn  Zn126  1  0.55549036  0.06133550  0.31237529  1
  Zn  Zn127  1  0.56452301  0.06760294  0.81990734  1
  Zn  Zn128  1  0.56566187  0.55493230  0.31024253  1
  Zn  Zn129  1  0.57142996  0.56391783  0.81833944  1
  Zn  Zn130  1  0.43486307  0.18783651  0.43973974  1
  Zn  Zn131  1  0.43800191  0.18798862  0.94740360  1
  Zn  Zn132  1  0.43812580  0.68639923  0.43122592  1
  Zn  Zn133  1  0.44129549  0.69196595  0.94236695  1
  Zn  Zn134  1  0.93766337  0.18266828  0.43387341  1
  Zn  Zn135  1  0.94126373  0.17319509  0.92518658  1
  Zn  Zn136  1  0.95001051  0.65850547  0.32978305  1
  Zn  Zn137  1  0.93721329  0.69572056  0.93490791  1
  Zn  Zn138  1  0.05726955  0.30907526  0.06251123  1
  Zn  Zn139  1  0.03507053  0.30282923  0.52895472  1
  Zn  Zn140  1  0.07000093  0.82461137  0.06232416  1
  Zn  Zn141  1  0.01631993  0.72580367  0.52771468  1
  Zn  Zn142  1  0.57188971  0.30474617  0.05797301  1
  Zn  Zn143  1  0.55950945  0.30137294  0.56559164  1
  Zn  Zn144  1  0.56097228  0.81020165  0.06735864  1
  Zn  Zn145  1  0.56512536  0.81371064  0.56426787  1
  O  O146  1  0.09970836  0.12532139  0.13184162  1
  O  O147  1  0.11179215  0.11856871  0.61491639  1
  O  O148  1  0.12188561  0.62285232  0.10914357  1
  O  O149  1  0.13283234  0.62638734  0.62334609  1
  O  O150  1  0.62585385  0.12709734  0.11822284  1
  O  O151  1  0.61952135  0.12632039  0.61597203  1
  O  O152  1  0.61805587  0.62855290  0.12111931  1
  O  O153  1  0.61609725  0.61392250  0.61781037  1
  O  O154  1  0.38701390  0.37476161  0.38487652  1
  O  O155  1  0.37911701  0.37082569  0.90125250  1
  O  O156  1  0.33866816  0.86968107  0.45628042  1
  O  O157  1  0.38611604  0.88419543  0.87749923  1
  O  O158  1  0.87365654  0.37038918  0.40581329  1
  O  O159  1  0.86928104  0.38979088  0.88533667  1
  O  O160  1  0.88201148  0.87869885  0.37432587  1
  O  O161  1  0.86277409  0.88949409  0.89486836  1
  O  O162  1  0.27427218  -0.00402338  0.38615346  1
  O  O163  1  0.26817050  0.00294349  0.85580002  1
  O  O164  1  0.24416896  0.51525611  0.37479561  1
  O  O165  1  0.26150195  0.51524152  0.86542514  1
  O  O166  1  0.75139192  0.00824445  0.37115790  1
  O  O167  1  0.75392187  0.00507184  0.86516515  1
  O  O168  1  0.74417613  0.49262580  0.36353948  1
  O  O169  1  0.75673633  0.50928094  0.87416604  1
  O  O170  1  0.24024740  0.51283749  0.11105405  1
  O  O171  1  0.24716463  0.50413521  0.64166317  1
  O  O172  1  0.24967966  0.98568625  0.13415159  1
  O  O173  1  0.24531037  1.00890439  0.63773942  1
  O  O174  1  0.76114434  0.47912987  0.12474758  1
  O  O175  1  0.73815684  0.50430254  0.64433226  1
  O  O176  1  0.75120947  0.99396461  0.14085300  1
  O  O177  1  0.75925651  0.98940611  0.63728321  1
  O  O178  1  0.02606564  0.36985348  0.21853461  1
  O  O179  1  0.04691030  0.36441247  0.71233701  1
  O  O180  1  0.00613106  0.87530735  0.23949754  1
  O  O181  1  0.00310934  0.86235639  0.74077026  1
  O  O182  1  0.50199117  0.36982545  0.25740535  1
  O  O183  1  0.51062276  0.36411405  0.75461622  1
  O  O184  1  0.49257172  0.86012069  0.24615483  1
  O  O185  1  0.50276184  0.86686091  0.75633735  1
  O  O186  1  0.50985000  0.14067935  0.23756877  1
  O  O187  1  0.50195013  0.13423607  0.74367248  1
  O  O188  1  0.49714462  0.61971131  0.24145194  1
  O  O189  1  0.49976175  0.62776533  0.74595727  1
  O  O190  1  0.99139897  0.11657702  0.24197972  1
  O  O191  1  0.99460969  0.10876887  0.73180278  1
  O  O192  1  1.01672202  0.62886403  0.22874094  1
  O  O193  1  1.00379361  0.64454614  0.75171494  1
  O  O194  1  0.34707056  0.24300814  -0.00621723  1
  O  O195  1  0.36153150  0.25808835  0.50033519  1
  O  O196  1  0.36787633  0.76929676  -0.00752829  1
  O  O197  1  0.38834921  0.73721408  0.51822457  1
  O  O198  1  0.88967338  0.26509525  -0.01999377  1
  O  O199  1  0.85681492  0.23339920  0.50247308  1
  O  O200  1  0.86376190  0.76718191  -0.00427273  1
  O  O201  1  0.85400191  0.74344419  0.49667098  1
  O  O202  1  0.13383145  0.23969461  0.50434803  1
  O  O203  1  0.14991003  0.30195038  0.89672163  1
  O  O204  1  0.13410995  0.73921228  0.49355786  1
  O  O205  1  0.13558264  0.75251179  0.99067548  1
  O  O206  1  0.63843449  0.24112542  0.50060351  1
  O  O207  1  0.62431920  0.23029348  0.99279233  1
  O  O208  1  0.62504498  0.74026524  0.48790725  1
  O  O209  1  0.63566901  0.74281118  1.00317444  1
  O  O210  1  0.50095658  0.25035713  0.13308666  1
  O  O211  1  0.50451121  0.23762968  0.64398990  1
  O  O212  1  0.51188718  0.73807289  0.14340475  1
  O  O213  1  0.50159962  0.73703354  0.63381317  1
  O  O214  1  0.98183372  0.23710036  0.12005181  1
  O  O215  1  0.98798060  0.22997151  0.61273511  1
  O  O216  1  1.00945230  0.74219593  0.11351289  1
  O  O217  1  0.97099608  0.74787192  0.65015662  1
  O  O218  1  0.01790875  0.26026084  0.41344636  1
  O  O219  1  0.01404735  0.23179205  0.85535481  1
  O  O220  1  0.02227893  0.73341477  0.38538909  1
  O  O221  1  0.00262048  0.75881024  0.86378530  1
  O  O222  1  0.50101257  0.26097363  0.36953059  1
  O  O223  1  0.50467863  0.23805823  0.86244375  1
  O  O224  1  0.51197249  0.74489323  0.36536129  1
  O  O225  1  0.50185984  0.75937439  0.86760905  1
  O  O226  1  0.24217410  0.13885060  0.50872763  1
  O  O227  1  0.24142189  0.08648207  1.00562128  1
  O  O228  1  0.26313561  0.61978210  0.49301136  1
  O  O229  1  0.24946721  0.63864169  0.99160392  1
  O  O230  1  0.73605631  0.12360301  0.49194116  1
  O  O231  1  0.74284649  0.12568742  0.99179053  1
  O  O232  1  0.73760728  0.64279861  0.50683734  1
  O  O233  1  0.74651444  0.63267503  1.00300735  1
  O  O234  1  0.25624015  0.38172194  0.00567996  1
  O  O235  1  0.26417006  0.36897052  0.50231630  1
  O  O236  1  0.26253298  0.87698596  0.01215958  1
  O  O237  1  0.27517486  0.86843512  0.49110720  1
  O  O238  1  0.76474774  0.37402710  0.00948798  1
  O  O239  1  0.74919792  0.35583974  0.50199997  1
  O  O240  1  0.74998833  0.87266317  0.01297144  1
  O  O241  1  0.74219391  0.86543746  0.51454596  1
  O  O242  1  0.13338901  0.48987414  0.23025470  1
  O  O243  1  0.14796561  0.50626805  0.74867037  1
  O  O244  1  0.13301332  0.97058372  0.28143540  1
  O  O245  1  0.14021444  0.99480143  0.73610902  1
  O  O246  1  0.61523200  0.47799842  0.24223775  1
  O  O247  1  0.62484761  0.48626262  0.74725002  1
  O  O248  1  0.63896225  0.99832080  0.26212060  1
  O  O249  1  0.63903850  1.00339899  0.75289036  1
  O  O250  1  0.36997406  0.01129857  0.26503681  1
  O  O251  1  0.36689492  0.01213951  0.75127261  1
  O  O252  1  0.37629877  0.51261307  0.24022954  1
  O  O253  1  0.37375291  0.50854315  0.75345058  1
  O  O254  1  0.85351260  -0.00387279  0.26946813  1
  O  O255  1  0.86459564  -0.00889452  0.76733745  1
  O  O256  1  0.87403334  0.49054503  0.25690343  1
  O  O257  1  0.85851013  0.49866975  0.76036340  1
  O  O258  1  0.12550907  0.37195559  0.36526866  1
  O  O259  1  0.14544724  0.37329312  0.86454482  1
  O  O260  1  0.11215955  0.85762446  0.37666476  1
  O  O261  1  0.13887233  0.90865936  0.88442699  1
  O  O262  1  0.62034386  0.37068078  0.36289369  1
  O  O263  1  0.62609094  0.37839818  0.87263850  1
  O  O264  1  0.61882229  0.87002259  0.37873702  1
  O  O265  1  0.61353999  0.87647856  0.87670695  1
  O  O266  1  0.39158415  0.11841632  0.12147278  1
  O  O267  1  0.38610068  0.12831950  0.64025127  1
  O  O268  1  0.39225249  0.63016039  0.13244890  1
  O  O269  1  0.39075561  0.62364038  0.63676656  1
  O  O270  1  0.87000820  0.14148278  0.13053000  1
  O  O271  1  0.88728579  0.12487728  0.61742944  1
  O  O272  1  0.89274657  0.63175343  0.11768630  1
  O  O273  1  0.85302234  0.64185706  0.63202423  1
  O  O274  1  0.15281671  0.25044556  0.05082287  1
  O  O275  1  0.24054669  0.25347743  0.61681527  1
  O  O276  1  0.24687260  0.75898871  0.11026504  1
  O  O277  1  0.27591111  0.74935144  0.63096749  1
  O  O278  1  0.76745583  0.26051409  0.13224409  1
  O  O279  1  0.76071827  0.23406532  0.61414780  1
  O  O280  1  0.74404740  0.76481020  0.12234273  1
  O  O281  1  0.74995762  0.75720650  0.62034016  1
  O  O282  1  0.22591634  0.25076154  0.38775901  1
  O  O283  1  0.22105387  0.25771470  0.88080478  1
  O  O284  1  0.24661969  0.73834364  0.38375316  1
  O  O285  1  0.25177831  0.74814408  0.88005040  1
  O  O286  1  0.74992222  0.23511323  0.38398257  1
  O  O287  1  0.76404927  0.23565664  0.86690254  1
  O  O288  1  0.73398224  0.76216599  0.38730725  1
  O  O289  1  0.74769363  0.74387283  0.89001500  1
  O  O290  1  -0.00565089  0.11282588  0.00709175  1
  O  O291  1  0.01342636  0.11688314  0.50161652  1
  O  O292  1  0.00950061  0.62684529  -0.00032095  1
  O  O293  1  -0.02341656  0.61770667  0.53226013  1
  O  O294  1  0.50869086  0.12956663  0.01707844  1
  O  O295  1  0.51304221  0.14159670  0.51364348  1
  O  O296  1  0.50911890  0.62981596  0.01361432  1
  O  O297  1  0.50669148  0.61149448  0.50510963  1
  O  O298  1  0.49386964  0.37178572  0.49192457  1
  O  O299  1  0.51823927  0.39236201  1.00365145  1
  O  O300  1  0.50214272  0.86782008  0.49400555  1
  O  O301  1  0.48925101  0.86799426  0.99325668  1
  O  O302  1  0.98879206  0.40826940  0.50998944  1
  O  O303  1  0.98732737  0.38726455  1.00413831  1
  O  O304  1  0.99830016  0.83902543  0.52317678  1
  O  O305  1  0.98206123  0.88459930  1.01262647  1
  O  O306  1  0.50739211  0.48293319  0.38601161  1
  O  O307  1  0.50217961  0.50917443  0.89014344  1
  O  O308  1  0.47698257  1.01056916  0.37318160  1
  O  O309  1  0.48807495  0.99058555  0.86058056  1
  O  O310  1  1.00026202  0.55245226  0.37461899  1
  O  O311  1  0.99078727  0.51170458  0.88385249  1
  O  O312  1  0.98394429  0.99998012  0.37280250  1
  O  O313  1  0.98327087  0.99951565  0.88898090  1
  O  O314  1  -0.02185497  0.01463019  0.11751924  1
  O  O315  1  0.01971402  -0.00049853  0.62014470  1
  O  O316  1  0.00707829  0.51701380  0.10881619  1
  O  O317  1  0.03294649  0.50696108  0.64980442  1
  O  O318  1  0.50613681  0.01155714  0.13775653  1
  O  O319  1  0.49866262  0.02111934  0.62713381  1
  O  O320  1  0.50237874  0.51440794  0.11419468  1
  O  O321  1  0.50798158  0.50379700  0.61904547  1
  O  O322  1  0.19733977  0.33918411  0.21240481  1
  O  O323  1  0.26618921  0.38993791  0.75619349  1
  O  O324  1  0.27563501  0.86724047  0.23172183  1
  O  O325  1  0.26183477  0.88341527  0.74475139  1
  O  O326  1  0.74046834  0.37036226  0.24442373  1
  O  O327  1  0.73621606  0.38902193  0.75939808  1
  O  O328  1  0.74859100  0.88091868  0.24093258  1
  O  O329  1  0.74367725  0.88561976  0.74511202  1
  O  O330  1  0.24510584  0.15850958  0.20919049  1
  O  O331  1  0.26573302  0.13468647  0.74950838  1
  O  O332  1  0.26878345  0.63787844  0.24041845  1
  O  O333  1  0.26491803  0.62728810  0.75742617  1
  O  O334  1  0.73961122  0.11780589  0.26509424  1
  O  O335  1  0.75026217  0.11372889  0.75546726  1
  O  O336  1  0.75396537  0.60825380  0.24155577  1
  O  O337  1  0.73422822  0.60938472  0.76524657  1
  O  O338  1  0.36158108  0.14053760  0.36662810  1
  O  O339  1  0.38743448  0.11363828  0.86484578  1
  O  O340  1  0.36667385  0.62264062  0.36228948  1
  O  O341  1  0.37147488  0.63223879  0.86743040  1
  O  O342  1  0.86052052  0.11730828  0.37705538  1
  O  O343  1  0.85908827  0.10623125  0.88252338  1
  O  O344  1  0.85244649  0.61291617  0.37851824  1
  O  O345  1  0.86155532  0.61842706  0.88564021  1
  O  O346  1  0.12188133  0.40650094  0.09436991  1
  O  O347  1  0.09544649  0.35803908  0.65799684  1
  O  O348  1  0.13889521  0.87425291  0.14380134  1
  O  O349  1  0.13715177  0.88970784  0.60940830  1
  O  O350  1  0.64414160  0.36584518  0.13027625  1
  O  O351  1  0.61905218  0.38326562  0.62763527  1
  O  O352  1  0.63416448  0.88142805  0.12208343  1
  O  O353  1  0.64097726  0.87000839  0.63068128  1
  O  O354  1  0.10215698  0.24320981  0.27458886  1
  O  O355  1  0.10335701  0.23149042  0.75904886  1
  O  O356  1  0.13951150  0.76904995  0.26187029  1
  O  O357  1  0.12248114  0.75539327  0.75864325  1
  O  O358  1  0.61280698  0.26389633  0.25121232  1
  O  O359  1  0.62174545  0.26568295  0.75122902  1
  O  O360  1  0.61849573  0.74783810  0.26782878  1
  O  O361  1  0.61603279  0.74518711  0.75305130  1
  O  O362  1  0.39127127  0.25677819  0.25018522  1
  O  O363  1  0.38724001  0.24094422  0.76162854  1
  O  O364  1  0.39715347  0.73285569  0.25725984  1
  O  O365  1  0.39152919  0.74125982  0.74269186  1
  O  O366  1  0.87942529  0.25800046  0.25077982  1
  O  O367  1  0.87289158  0.25546892  0.72889464  1
  O  O368  1  0.88510687  0.73236725  0.26756122  1
  O  O369  1  0.85827621  0.74403389  0.75803293  1
  O  O370  1  0.38874411  0.48421235  0.50760429  1
  O  O371  1  0.39531442  0.50307770  0.99804981  1
  O  O372  1  0.38694481  1.02865870  0.48553775  1
  O  O373  1  0.37540130  0.98802849  0.97960846  1
  O  O374  1  0.84880646  0.49338306  0.51436017  1
  O  O375  1  0.88283491  0.49647109  0.99367538  1
  O  O376  1  0.86498271  0.99624415  0.48153263  1
  O  O377  1  0.87296146  0.99147754  0.99768993  1
  O  O378  1  0.09835957  -0.01001612  0.01445644  1
  O  O379  1  0.14215136  0.01407633  0.50445033  1
  O  O380  1  0.11966747  0.51953668  -0.00295470  1
  O  O381  1  0.13250576  0.49259527  0.52410595  1
  O  O382  1  0.62202160  0.02505092  -0.01077063  1
  O  O383  1  0.61513039  0.01363065  0.49642204  1
  O  O384  1  0.61911134  0.51440101  -0.00078288  1
  O  O385  1  0.61932643  0.50115259  0.50800236  1
  O  O386  1  0.38921744  0.37051204  0.09745707  1
  O  O387  1  0.38359327  0.37085885  0.61495436  1
  O  O388  1  0.37617837  0.88771957  0.11071442  1
  O  O389  1  0.38911349  0.86125160  0.62514968  1
  O  O390  1  0.87248052  0.36085448  0.11369898  1
  O  O391  1  0.87747408  0.34717366  0.60105021  1
  O  O392  1  0.85818636  0.88116351  0.11498071  1
  O  O393  1  0.85504097  0.85491681  0.63128581  1
  O  O394  1  0.11934717  0.13151710  0.38807131  1
  O  O395  1  0.07382202  0.19088846  0.81997793  1
  O  O396  1  0.14957838  0.63538465  0.36434547  1
  O  O397  1  0.14047553  0.62612599  0.88262524  1
  O  O398  1  0.62647117  0.12818497  0.38785068  1
  O  O399  1  0.64300148  0.12975922  0.87371492  1
  O  O400  1  0.62147229  0.61972926  0.38656777  1
  O  O401  1  0.63665263  0.62937403  0.89080559  1
