# generated using pymatgen
data_V73Zn73O256
_symmetry_space_group_name_H-M   'P 1'
_cell_length_a   16.94365759
_cell_length_b   16.90816950
_cell_length_c   16.92624784
_cell_angle_alpha   89.71622193
_cell_angle_beta   90.07851077
_cell_angle_gamma   90.07719182
_symmetry_Int_Tables_number   1
_chemical_formula_structural   V73Zn73O256
_chemical_formula_sum   'V73 Zn73 O256'
_cell_volume   4849.06862024
_cell_formula_units_Z   1
loop_
 _symmetry_equiv_pos_site_id
 _symmetry_equiv_pos_as_xyz
  1  'x, y, z'
loop_
 _atom_site_type_symbol
 _atom_site_label
 _atom_site_symmetry_multiplicity
 _atom_site_fract_x
 _atom_site_fract_y
 _atom_site_fract_z
 _atom_site_occupancy
  V  V0  1  0.87200588  0.76485690  0.62292428  1
  V  V1  1  0.61989119  0.61652112  0.50425019  1
  V  V2  1  0.74359573  0.24385986  0.48969308  1
  V  V3  1  0.38290115  0.88642338  0.00066017  1
  V  V4  1  0.62983772  0.48918240  0.62567520  1
  V  V5  1  -0.00070953  0.74115633  0.24308090  1
  V  V6  1  -0.00485648  0.01353874  0.00012122  1
  V  V7  1  0.75132225  0.74368127  -0.00885994  1
  V  V8  1  0.23354244  0.23896377  0.00750994  1
  V  V9  1  0.37299761  0.48104840  0.38417748  1
  V  V10  1  0.74638022  0.13542523  0.88255117  1
  V  V11  1  0.61438832  0.62240156  -0.00048292  1
  V  V12  1  0.11881774  0.74856907  0.37353720  1
  V  V13  1  0.12401759  0.62679967  0.50126732  1
  V  V14  1  0.12848843  0.50016653  0.63282690  1
  V  V15  1  0.12605827  0.24342172  0.87476394  1
  V  V16  1  0.12084929  0.26327148  0.38079640  1
  V  V17  1  0.75751411  -0.00443290  0.26132606  1
  V  V18  1  0.00301613  0.86150208  0.88211030  1
  V  V19  1  0.50101948  0.74311376  0.25366001  1
  V  V20  1  0.00257309  0.25114539  0.75516459  1
  V  V21  1  0.38649965  0.24358615  0.62936812  1
  V  V22  1  0.22256827  0.96030497  0.66810572  1
  V  V23  1  -0.01461999  -0.01441092  0.49071048  1
  V  V24  1  0.23621726  0.74476464  -0.00474593  1
  V  V25  1  -0.01332486  0.37521579  0.37690076  1
  V  V26  1  0.62858405  0.37320078  0.77224387  1
  V  V27  1  0.00674969  0.25555506  0.24131744  1
  V  V28  1  0.75817191  0.37662304  0.12669349  1
  V  V29  1  0.61874307  -0.01461779  0.10475396  1
  V  V30  1  0.24946921  0.62322080  0.37383146  1
  V  V31  1  0.37600582  0.74495767  0.12151544  1
  V  V32  1  0.87998632  0.73147404  0.11572502  1
  V  V33  1  0.25814555  0.37773013  0.62298456  1
  V  V34  1  0.50512399  0.24928170  0.76963617  1
  V  V35  1  0.23131784  0.37378010  0.12689590  1
  V  V36  1  0.61883837  0.75697650  0.85843979  1
  V  V37  1  0.23989793  0.49374183  0.24680418  1
  V  V38  1  0.23936491  0.62688716  0.85456683  1
  V  V39  1  0.12615568  0.37205028  0.75418429  1
  V  V40  1  0.62424359  0.86965702  0.24840108  1
  V  V41  1  0.48650909  0.62054217  0.63622956  1
  V  V42  1  0.00410791  0.50366468  -0.01977629  1
  V  V43  1  0.38462217  0.00580864  0.86277073  1
  V  V44  1  -0.00405640  0.62947619  0.62655605  1
  V  V45  1  0.86391042  0.62032332  0.27073954  1
  V  V46  1  0.62016116  0.13774936  -0.00236017  1
  V  V47  1  0.11798678  0.87997187  0.25659512  1
  V  V48  1  0.74029184  0.77523022  0.51146850  1
  V  V49  1  0.86303329  0.62106491  0.74474269  1
  V  V50  1  -0.00482312  0.49586580  0.49737392  1
  V  V51  1  0.76184589  0.87103303  0.11353331  1
  V  V52  1  0.11408036  0.12542293  0.50070364  1
  V  V53  1  0.87273559  0.26242244  0.61767682  1
  V  V54  1  0.26821532  0.75679906  0.49630337  1
  V  V55  1  0.25252897  0.11971209  0.86939412  1
  V  V56  1  0.74544745  -0.01599824  0.75119403  1
  V  V57  1  0.11770940  0.51752091  0.11422883  1
  V  V58  1  0.39545126  0.25310108  0.13274741  1
  V  V59  1  0.12023959  0.00761944  0.12270322  1
  V  V60  1  0.25083227  0.24775527  0.50432711  1
  V  V61  1  0.24798850  0.87809146  0.13316837  1
  V  V62  1  0.49354287  0.48429300  -0.00796972  1
  V  V63  1  0.87235728  0.48538141  0.86869882  1
  V  V64  1  0.87123066  0.12238037  0.75333007  1
  V  V65  1  0.37356114  0.61964112  0.24713966  1
  V  V66  1  0.52042288  0.12267125  0.61825515  1
  V  V67  1  -0.00300737  0.11404164  0.62959969  1
  V  V68  1  0.47457695  0.76650215  0.74463922  1
  V  V69  1  0.36649331  0.37423228  -0.00858043  1
  V  V70  1  0.89519774  0.12308537  0.24922591  1
  V  V71  1  0.62915859  -0.01713555  0.62415326  1
  V  V72  1  0.63298654  0.74469524  0.37558553  1
  Zn  Zn73  1  0.37538444  0.52846757  0.84102051  1
  Zn  Zn74  1  0.48932151  0.36289289  0.34888746  1
  Zn  Zn75  1  0.45487930  -0.05058587  0.44787812  1
  Zn  Zn76  1  0.27606679  0.09095487  0.35051388  1
  Zn  Zn77  1  0.87044058  -0.01114595  0.88859688  1
  Zn  Zn78  1  0.12268941  0.86935146  0.76016287  1
  Zn  Zn79  1  0.74372667  0.61748881  0.86576359  1
  Zn  Zn80  1  0.50777293  0.61377023  0.12800216  1
  Zn  Zn81  1  0.48744321  0.10795359  0.12293282  1
  Zn  Zn82  1  0.19200230  0.18281633  0.20270172  1
  Zn  Zn83  1  0.19392512  0.16976323  0.68356171  1
  Zn  Zn84  1  0.19062417  0.69107451  0.18820434  1
  Zn  Zn85  1  0.18959268  0.70944185  0.68052572  1
  Zn  Zn86  1  0.63627276  0.14268233  0.21405857  1
  Zn  Zn87  1  0.68960580  0.19430791  0.69359955  1
  Zn  Zn88  1  0.69272353  0.68151645  0.18405707  1
  Zn  Zn89  1  0.68615612  0.68535887  0.67631079  1
  Zn  Zn90  1  0.30284576  0.28827414  0.30407676  1
  Zn  Zn91  1  0.33969038  0.35706888  0.78314990  1
  Zn  Zn92  1  0.28266472  0.90112148  0.34684830  1
  Zn  Zn93  1  0.30563852  0.82376512  0.81625640  1
  Zn  Zn94  1  0.81831948  0.29407861  0.31164323  1
  Zn  Zn95  1  0.80928436  0.31042844  0.80435776  1
  Zn  Zn96  1  0.81044637  0.81158556  0.30692518  1
  Zn  Zn97  1  0.82564294  0.80681292  0.81426821  1
  Zn  Zn98  1  0.18654372  0.43714551  0.44158749  1
  Zn  Zn99  1  0.18989818  0.44373087  0.93281015  1
  Zn  Zn100  1  0.19215758  0.94646133  0.47884799  1
  Zn  Zn101  1  0.18631289  0.93506752  0.94343949  1
  Zn  Zn102  1  0.81115689  0.42216389  0.45812769  1
  Zn  Zn103  1  0.68779656  0.44356493  0.93953129  1
  Zn  Zn104  1  0.64065414  0.96983536  0.41591984  1
  Zn  Zn105  1  0.69137462  0.93165968  0.92685966  1
  Zn  Zn106  1  0.30958278  0.06511183  0.07408361  1
  Zn  Zn107  1  0.32204503  0.06303561  0.56794066  1
  Zn  Zn108  1  0.30924055  0.56081098  0.05558349  1
  Zn  Zn109  1  0.31204113  0.56125090  0.56189434  1
  Zn  Zn110  1  0.81125219  0.06809549  0.06964718  1
  Zn  Zn111  1  0.77731712  0.03096084  0.53541092  1
  Zn  Zn112  1  0.81937077  0.56309038  0.04887864  1
  Zn  Zn113  1  0.80085482  0.56909996  0.54636924  1
  Zn  Zn114  1  0.43071705  0.43624181  0.17901024  1
  Zn  Zn115  1  0.45651198  0.43804189  0.68569742  1
  Zn  Zn116  1  0.43942336  0.92791221  0.18813663  1
  Zn  Zn117  1  0.43084500  0.92426984  0.63813772  1
  Zn  Zn118  1  0.94499897  0.44822611  0.19570874  1
  Zn  Zn119  1  0.94319041  0.44026910  0.69032166  1
  Zn  Zn120  1  0.93863210  0.93409635  0.18784413  1
  Zn  Zn121  1  0.93846888  0.93747513  0.69919665  1
  Zn  Zn122  1  0.06422243  0.06199497  0.32267302  1
  Zn  Zn123  1  0.07444102  0.04737185  0.81034121  1
  Zn  Zn124  1  0.05686757  0.56168524  0.31072099  1
  Zn  Zn125  1  0.06495604  0.57429220  0.80972838  1
  Zn  Zn126  1  0.48860847  0.05962125  0.31078360  1
  Zn  Zn127  1  0.56419361  0.06523040  0.80613525  1
  Zn  Zn128  1  0.55183032  0.56008248  0.32802696  1
  Zn  Zn129  1  0.56047049  0.56175911  0.81156179  1
  Zn  Zn130  1  0.44856008  0.19887264  0.44794085  1
  Zn  Zn131  1  0.43237450  0.18551648  0.95115867  1
  Zn  Zn132  1  0.44401137  0.67504461  0.43386991  1
  Zn  Zn133  1  0.43091840  0.69475794  0.92696167  1
  Zn  Zn134  1  0.88953534  0.14199512  0.45805886  1
  Zn  Zn135  1  0.93503879  0.17873624  0.93676863  1
  Zn  Zn136  1  0.91224923  0.74298024  0.42044193  1
  Zn  Zn137  1  0.94564779  0.67633506  0.93474947  1
  Zn  Zn138  1  0.02059075  0.29654486  0.03409061  1
  Zn  Zn139  1  0.05659423  0.31240207  0.56915197  1
  Zn  Zn140  1  0.05728549  0.82102660  0.06173102  1
  Zn  Zn141  1  0.07971102  0.82517485  0.58342255  1
  Zn  Zn142  1  0.56928978  0.31015860  0.19229772  1
  Zn  Zn143  1  0.56485628  0.31481056  0.53127056  1
  Zn  Zn144  1  0.56249127  0.80335413  0.05831939  1
  Zn  Zn145  1  0.54324696  0.80769693  0.55865768  1
  O  O146  1  0.13448796  0.10418997  0.14501205  1
  O  O147  1  0.10121373  0.14313436  0.61340719  1
  O  O148  1  0.13247754  0.61559651  0.12636795  1
  O  O149  1  0.11963721  0.61964498  0.61758946  1
  O  O150  1  0.63781752  0.09454298  0.10394269  1
  O  O151  1  0.62188366  0.12475199  0.63201420  1
  O  O152  1  0.62557524  0.62882051  0.10535340  1
  O  O153  1  0.61297972  0.61330781  0.62345099  1
  O  O154  1  0.36087387  0.38119104  0.36272298  1
  O  O155  1  0.35540530  0.35962977  0.89446573  1
  O  O156  1  0.39645738  0.91805704  0.33862997  1
  O  O157  1  0.36492220  0.89499408  0.89296034  1
  O  O158  1  0.88415072  0.37320335  0.37775856  1
  O  O159  1  0.87541253  0.38655404  0.86124263  1
  O  O160  1  0.89026327  0.84374458  0.37404032  1
  O  O161  1  0.89060162  0.87528993  0.87752969  1
  O  O162  1  0.22741017  -0.00296400  0.38111621  1
  O  O163  1  0.24944822  0.01614459  0.88582494  1
  O  O164  1  0.25043240  0.50358135  0.36608739  1
  O  O165  1  0.24896586  0.52057368  0.87089641  1
  O  O166  1  0.74208107  -0.02109079  0.35900789  1
  O  O167  1  0.75286429  0.00485956  0.86437579  1
  O  O168  1  0.77212664  0.52316362  0.44152987  1
  O  O169  1  0.76783919  0.50203009  0.88076110  1
  O  O170  1  0.24206106  0.49174986  0.12704929  1
  O  O171  1  0.24215952  0.48576365  0.61803175  1
  O  O172  1  0.23883424  0.98733506  0.12667769  1
  O  O173  1  0.23226704  1.06459210  0.64281390  1
  O  O174  1  0.76103416  0.48400289  0.12160242  1
  O  O175  1  0.72850566  0.50225921  0.61901092  1
  O  O176  1  0.74488272  0.97761057  0.12207157  1
  O  O177  1  0.74306560  0.99921642  0.64421355  1
  O  O178  1  -0.00382179  0.36746707  0.26544418  1
  O  O179  1  0.01487021  0.36269071  0.74857899  1
  O  O180  1  0.01150103  0.85817497  0.24118781  1
  O  O181  1  0.00313284  0.88633288  0.77443238  1
  O  O182  1  0.51218283  0.38978711  0.24317751  1
  O  O183  1  0.51355165  0.35730451  0.74732157  1
  O  O184  1  0.51857315  0.85497014  0.23445407  1
  O  O185  1  0.48079355  0.86552955  0.72867713  1
  O  O186  1  0.52451790  0.12595256  0.23023534  1
  O  O187  1  0.50829848  0.14681115  0.73669747  1
  O  O188  1  0.49276538  0.62185734  0.24756054  1
  O  O189  1  0.49367222  0.62570514  0.74116288  1
  O  O190  1  1.00109255  0.13398474  0.25132173  1
  O  O191  1  0.99728947  0.12537600  0.74429887  1
  O  O192  1  0.99387192  0.63679906  0.24869851  1
  O  O193  1  0.99373453  0.62406592  0.73113584  1
  O  O194  1  0.35732866  0.25768416  0.01304608  1
  O  O195  1  0.35448221  0.24370445  0.51009374  1
  O  O196  1  0.36758674  0.75887534  0.00976109  1
  O  O197  1  0.36435228  0.73702347  0.48152908  1
  O  O198  1  0.91762018  0.25675114  0.01114819  1
  O  O199  1  0.89095159  0.24910042  0.51862738  1
  O  O200  1  0.86591928  0.73390081  0.00814101  1
  O  O201  1  0.84903029  0.74476599  0.51484062  1
  O  O202  1  0.12161118  0.24803836  0.49632168  1
  O  O203  1  0.12795926  0.25743916  0.99139651  1
  O  O204  1  0.13088921  0.73993836  0.49039141  1
  O  O205  1  0.13925237  0.75758625  1.01302156  1
  O  O206  1  0.64643186  0.23762654  0.51383866  1
  O  O207  1  0.63036382  0.23153750  1.00694130  1
  O  O208  1  0.62608034  0.76296583  0.49099936  1
  O  O209  1  0.63135718  0.73967771  0.98659247  1
  O  O210  1  0.49455956  0.26061549  0.11732381  1
  O  O211  1  0.48918981  0.25212625  0.61394639  1
  O  O212  1  0.49106624  0.73961088  0.13151328  1
  O  O213  1  0.50452235  0.73633153  0.64388221  1
  O  O214  1  1.02645367  0.26314524  0.14595747  1
  O  O215  1  0.99248366  0.24484744  0.64079219  1
  O  O216  1  0.98452932  0.75228383  0.12483141  1
  O  O217  1  0.97581379  0.73544428  0.60287653  1
  O  O218  1  0.00767662  0.26808505  0.37773472  1
  O  O219  1  0.01381361  0.23696588  0.86452851  1
  O  O220  1  0.01565230  0.74109675  0.36456566  1
  O  O221  1  0.00281991  0.76128595  0.88703136  1
  O  O222  1  0.59588330  0.18380183  0.36561324  1
  O  O223  1  0.49001840  0.24227548  0.86685631  1
  O  O224  1  0.50736096  0.74242148  0.35886633  1
  O  O225  1  0.50827820  0.74774603  0.85346860  1
  O  O226  1  0.22629961  0.14118778  0.50431193  1
  O  O227  1  0.24122963  0.13848478  1.01278903  1
  O  O228  1  0.24146473  0.62714158  0.49148514  1
  O  O229  1  0.24974165  0.64326588  1.00426017  1
  O  O230  1  0.78044970  0.14031206  0.49943610  1
  O  O231  1  0.74384433  0.11383466  0.98692182  1
  O  O232  1  0.71925893  0.65011996  0.51864146  1
  O  O233  1  0.73821364  0.62917304  0.99532627  1
  O  O234  1  0.25094962  0.37114683  0.01095454  1
  O  O235  1  0.23511284  0.36076486  0.51712719  1
  O  O236  1  0.25851540  0.86616196  0.01333161  1
  O  O237  1  0.26146593  0.85478493  0.45932957  1
  O  O238  1  0.74939001  0.38075686  0.02170328  1
  O  O239  1  0.76515114  0.34260740  0.51658217  1
  O  O240  1  0.74901413  0.85984685  0.00667732  1
  O  O241  1  0.74744584  0.87094146  0.50023631  1
  O  O242  1  0.13554014  0.50634770  0.24046247  1
  O  O243  1  0.11813357  0.49097956  0.73904014  1
  O  O244  1  0.11033671  0.98400442  0.24652761  1
  O  O245  1  0.13819392  0.99079809  0.73403502  1
  O  O246  1  0.65298640  0.49208607  0.29880294  1
  O  O247  1  0.61338782  0.48163243  0.73900765  1
  O  O248  1  0.63642227  0.97331087  0.23271944  1
  O  O249  1  0.63839441  0.99984318  0.74452027  1
  O  O250  1  0.39745324  -0.01466354  0.27955290  1
  O  O251  1  0.36783046  0.00412076  0.76824437  1
  O  O252  1  0.36045502  0.50565681  0.24903822  1
  O  O253  1  0.37293331  0.46215881  0.75386589  1
  O  O254  1  0.86547112  0.00146596  0.24700923  1
  O  O255  1  0.86232380  0.01126236  0.74902196  1
  O  O256  1  0.88734202  0.52095523  0.25896481  1
  O  O257  1  0.88287929  0.51117456  0.75816776  1
  O  O258  1  0.11607515  0.36820411  0.37942404  1
  O  O259  1  0.14148098  0.36109288  0.86203198  1
  O  O260  1  0.12755017  0.86143339  0.35953106  1
  O  O261  1  0.11369929  0.88062687  0.87621426  1
  O  O262  1  0.65432356  0.42661307  0.33431601  1
  O  O263  1  0.62455026  0.38061725  0.87154764  1
  O  O264  1  0.62620030  0.86151292  0.35239474  1
  O  O265  1  0.62623689  0.85521913  0.87450164  1
  O  O266  1  0.37660078  0.14562734  0.12237143  1
  O  O267  1  0.39060829  0.14041776  0.62739946  1
  O  O268  1  0.37017296  0.62905539  0.13214668  1
  O  O269  1  0.38741370  0.61890162  0.61958054  1
  O  O270  1  0.86068331  0.12467489  0.15230652  1
  O  O271  1  0.88977393  0.13658789  0.63968679  1
  O  O272  1  0.87007752  0.63078313  0.12906001  1
  O  O273  1  0.87751635  0.61811701  0.63112410  1
  O  O274  1  0.23514566  0.26166772  0.11967869  1
  O  O275  1  0.25541910  0.25370844  0.61957144  1
  O  O276  1  0.26002376  0.75757617  0.12228791  1
  O  O277  1  0.25614554  0.75368342  0.59520698  1
  O  O278  1  0.76281826  0.27462375  0.11675993  1
  O  O279  1  0.77334721  0.23988214  0.63277336  1
  O  O280  1  0.75962141  0.75276400  0.11380059  1
  O  O281  1  0.75354844  0.76275420  0.62037961  1
  O  O282  1  0.23248815  0.26467847  0.39706824  1
  O  O283  1  0.24287699  0.23638396  0.89794025  1
  O  O284  1  0.23789835  0.72935605  0.37333158  1
  O  O285  1  0.24874008  0.74984916  0.88980742  1
  O  O286  1  0.74947642  0.25567333  0.38728612  1
  O  O287  1  0.75610565  0.23426468  0.87681690  1
  O  O288  1  0.73662190  0.75279819  0.38805696  1
  O  O289  1  0.74490469  0.74577670  0.87993839  1
  O  O290  1  0.00796709  0.11294089  0.00329477  1
  O  O291  1  -0.00445717  0.11847826  0.51347895  1
  O  O292  1  -0.00075805  0.60565525  0.00393998  1
  O  O293  1  0.01286048  0.61035666  0.50538291  1
  O  O294  1  0.51449227  0.12601597  0.00777721  1
  O  O295  1  0.51012212  0.13043824  0.51944331  1
  O  O296  1  0.51038491  0.63465313  -0.00368718  1
  O  O297  1  0.51376353  0.64365540  0.51850034  1
  O  O298  1  0.50307385  0.29775113  0.43654278  1
  O  O299  1  0.48173387  0.38257850  0.99322963  1
  O  O300  1  0.46193333  0.88051441  0.53470026  1
  O  O301  1  0.48080843  0.86521755  1.00556825  1
  O  O302  1  1.00646475  0.38728048  0.49289235  1
  O  O303  1  1.00703767  0.40335426  1.00089595  1
  O  O304  1  1.01359730  0.89082381  0.51660303  1
  O  O305  1  1.00438790  0.89025973  0.98952125  1
  O  O306  1  0.47700513  0.48831884  0.37387723  1
  O  O307  1  0.48532483  0.51381285  0.88990205  1
  O  O308  1  0.53712366  1.00385801  0.39326524  1
  O  O309  1  0.48481523  1.01417977  0.86979052  1
  O  O310  1  1.00667947  0.48855600  0.38672685  1
  O  O311  1  0.99524935  0.50491595  0.87402718  1
  O  O312  1  0.99874392  0.99763897  0.39147071  1
  O  O313  1  1.00065259  1.00479480  0.89076959  1
  O  O314  1  0.01177079  -0.00760414  0.11766437  1
  O  O315  1  -0.00468223  0.01250698  0.62676469  1
  O  O316  1  0.01761339  0.50136047  0.12678878  1
  O  O317  1  0.01174197  0.50456919  0.61588062  1
  O  O318  1  0.51709001  -0.01117730  0.12563204  1
  O  O319  1  0.51923883  0.01470876  0.63226199  1
  O  O320  1  0.48716567  0.50428438  0.09807706  1
  O  O321  1  0.50755285  0.51469456  0.62122919  1
  O  O322  1  0.25059770  0.37998795  0.23402172  1
  O  O323  1  0.23675211  0.36289678  0.72912199  1
  O  O324  1  0.23281745  0.86895843  0.24350541  1
  O  O325  1  0.24633431  0.88339537  0.74034423  1
  O  O326  1  0.76538411  0.37333458  0.22988103  1
  O  O327  1  0.72689034  0.36608341  0.74968663  1
  O  O328  1  0.74246934  0.86785511  0.23250877  1
  O  O329  1  0.75779946  0.88612865  0.75844468  1
  O  O330  1  0.27306653  0.17314427  0.27785673  1
  O  O331  1  0.26249017  0.14190905  0.77410740  1
  O  O332  1  0.25582384  0.61667975  0.25591458  1
  O  O333  1  0.24207498  0.64202080  0.75415547  1
  O  O334  1  0.73317257  0.09193768  0.24895431  1
  O  O335  1  0.75600695  0.12199619  0.76419842  1
  O  O336  1  0.76318344  0.62917581  0.25381196  1
  O  O337  1  0.76046479  0.62010891  0.74367502  1
  O  O338  1  0.38644403  0.10533128  0.40373845  1
  O  O339  1  0.36044653  0.11256769  0.89734964  1
  O  O340  1  0.36755692  0.60951025  0.36505078  1
  O  O341  1  0.35173723  0.63246759  0.87840252  1
  O  O342  1  0.86722567  0.12423539  0.34723716  1
  O  O343  1  0.86478112  0.11794607  0.86968243  1
  O  O344  1  0.87929433  0.64307264  0.36755784  1
  O  O345  1  0.87515187  0.62833979  0.85202643  1
  O  O346  1  0.13415185  0.38964727  0.12257393  1
  O  O347  1  0.12843034  0.38228190  0.63258583  1
  O  O348  1  0.13100042  0.88076123  0.13664007  1
  O  O349  1  0.17085060  0.91370980  0.59076071  1
  O  O350  1  0.65479755  0.38192565  0.13592438  1
  O  O351  1  0.60641441  0.39189187  0.60448280  1
  O  O352  1  0.63622268  0.86857327  0.12439929  1
  O  O353  1  0.61597501  0.88571731  0.62389880  1
  O  O354  1  0.11597196  0.24445680  0.27376200  1
  O  O355  1  0.12088817  0.25157588  0.75487108  1
  O  O356  1  0.11767510  0.75240180  0.25287327  1
  O  O357  1  0.10825076  0.78510891  0.68490525  1
  O  O358  1  0.65331496  0.25145375  0.23178388  1
  O  O359  1  0.61544753  0.25933499  0.75629569  1
  O  O360  1  0.62238308  0.74634797  0.25303451  1
  O  O361  1  0.63183755  0.74477498  0.75948747  1
  O  O362  1  0.39015552  0.26863295  0.23176922  1
  O  O363  1  0.39110766  0.26108589  0.73515731  1
  O  O364  1  0.38484205  0.73275647  0.24057706  1
  O  O365  1  0.37688499  0.75376037  0.75585876  1
  O  O366  1  0.89893146  0.24041523  0.24980552  1
  O  O367  1  0.88646618  0.23920007  0.75414844  1
  O  O368  1  0.87988862  0.73860146  0.23344918  1
  O  O369  1  0.86846871  0.73515637  0.73057031  1
  O  O370  1  0.35874397  0.49154303  0.48243349  1
  O  O371  1  0.37281783  0.48419853  0.99608128  1
  O  O372  1  0.37918136  1.04430709  0.46659087  1
  O  O373  1  0.37502503  0.98680025  1.01805266  1
  O  O374  1  0.89658925  0.49873630  0.51248785  1
  O  O375  1  0.88776085  0.50533496  0.97715808  1
  O  O376  1  0.88537176  1.00125309  0.50538374  1
  O  O377  1  0.88949674  1.00769059  1.00753287  1
  O  O378  1  0.12085669  0.00064052  0.01842993  1
  O  O379  1  0.10653027  0.02362461  0.50006364  1
  O  O380  1  0.12158803  0.50510225  0.00675218  1
  O  O381  1  0.12318813  0.50784231  0.51049783  1
  O  O382  1  0.62279488  -0.02093394  0.00509030  1
  O  O383  1  0.65729961  0.00292235  0.52460005  1
  O  O384  1  0.60748189  0.51165166  -0.00974357  1
  O  O385  1  0.61911394  0.51685477  0.50528689  1
  O  O386  1  0.36271083  0.36551030  0.11257504  1
  O  O387  1  0.36063715  0.36522485  0.61990534  1
  O  O388  1  0.36737197  0.86505099  0.12403630  1
  O  O389  1  0.32443289  0.95578656  0.61798224  1
  O  O390  1  0.86344768  0.38464524  0.12473321  1
  O  O391  1  0.88344970  0.36156543  0.63760319  1
  O  O392  1  0.86372305  0.86216148  0.12677460  1
  O  O393  1  0.88356190  0.86227762  0.63083598  1
  O  O394  1  0.10993751  0.14378208  0.39365948  1
  O  O395  1  0.13805088  0.13314382  0.86934513  1
  O  O396  1  0.13043340  0.62392536  0.38151005  1
  O  O397  1  0.13792039  0.63273695  0.87228487  1
  O  O398  1  0.64436669  0.13544351  0.38971242  1
  O  O399  1  0.63577479  0.12019535  0.88579673  1
  O  O400  1  0.61386455  0.63314888  0.39277711  1
  O  O401  1  0.62671363  0.63234230  0.88121800  1
