# generated using pymatgen
data_V73Zn73O256
_symmetry_space_group_name_H-M   'P 1'
_cell_length_a   16.89610956
_cell_length_b   16.86212843
_cell_length_c   16.89351538
_cell_angle_alpha   90.05287222
_cell_angle_beta   89.79062683
_cell_angle_gamma   90.03869395
_symmetry_Int_Tables_number   1
_chemical_formula_structural   V73Zn73O256
_chemical_formula_sum   'V73 Zn73 O256'
_cell_volume   4813.00107557
_cell_formula_units_Z   1
loop_
 _symmetry_equiv_pos_site_id
 _symmetry_equiv_pos_as_xyz
  1  'x, y, z'
loop_
 _atom_site_type_symbol
 _atom_site_label
 _atom_site_symmetry_multiplicity
 _atom_site_fract_x
 _atom_site_fract_y
 _atom_site_fract_z
 _atom_site_occupancy
  V  V0  1  0.87271534  0.13304932  0.24788893  1
  V  V1  1  0.75554844  0.00053390  0.24997045  1
  V  V2  1  0.11989094  0.13123078  0.00007448  1
  V  V3  1  0.86077473  0.00395010  0.87678737  1
  V  V4  1  -0.00641355  0.14382045  0.12347873  1
  V  V5  1  0.13250365  0.37707018  0.26120803  1
  V  V6  1  0.87754848  0.36130471  0.52484739  1
  V  V7  1  0.12302700  0.00490363  0.12886095  1
  V  V8  1  0.01540291  0.11826419  0.61541339  1
  V  V9  1  0.74915429  0.73924300  0.00345870  1
  V  V10  1  0.12255506  0.62431442  0.00627353  1
  V  V11  1  0.88199352  0.49297746  0.38484309  1
  V  V12  1  0.24908778  0.87885911  0.62202001  1
  V  V13  1  -0.00514087  0.26380032  0.27080094  1
  V  V14  1  0.61728840  0.75321375  0.87494064  1
  V  V15  1  0.12418750  0.75657379  0.87478866  1
  V  V16  1  0.24723897  0.25941675  0.01348839  1
  V  V17  1  0.76561893  0.87752850  0.11969180  1
  V  V18  1  0.61897022  0.00657747  0.11430516  1
  V  V19  1  0.13902123  0.49311804  0.12778122  1
  V  V20  1  0.25236839  0.00246007  0.74657549  1
  V  V21  1  0.36874449  0.25391992  0.60528452  1
  V  V22  1  0.74588070  0.62246962  0.87256255  1
  V  V23  1  0.87683876  0.00720267  0.38044997  1
  V  V24  1  0.50638355  0.12426690  0.61359898  1
  V  V25  1  0.49993333  0.25725139  0.76293387  1
  V  V26  1  -0.00517932  0.37374459  0.86289832  1
  V  V27  1  -0.00418077  -0.00583163  -0.00285502  1
  V  V28  1  0.25361071  0.87853769  0.12059966  1
  V  V29  1  0.37690866  0.74361338  0.13011460  1
  V  V30  1  0.39254967  0.62851816  0.74727114  1
  V  V31  1  0.88637509  0.14003947  0.74233228  1
  V  V32  1  0.62779317  0.73571042  0.38729948  1
  V  V33  1  0.74210586  0.25416692  0.51776932  1
  V  V34  1  -0.00663732  0.49749133  0.00995877  1
  V  V35  1  0.75575380  -0.00506002  0.72673288  1
  V  V36  1  0.49808463  0.62576416  0.60699567  1
  V  V37  1  -0.00870456  0.74027924  0.74172955  1
  V  V38  1  0.25402273  0.74992376  0.50738834  1
  V  V39  1  0.11565628  0.61972460  0.50650555  1
  V  V40  1  0.75738668  0.50959061  0.26796957  1
  V  V41  1  0.87156405  0.87168039  0.51011599  1
  V  V42  1  0.25186190  0.62227100  0.86534219  1
  V  V43  1  0.37238154  0.48777889  0.86754773  1
  V  V44  1  0.87757985  0.72619180  0.12415636  1
  V  V45  1  0.76835996  0.37470829  0.12810144  1
  V  V46  1  0.25928286  0.62577101  0.36456260  1
  V  V47  1  0.11966316  0.88175468  0.74654462  1
  V  V48  1  0.12202210  0.74947375  0.37661295  1
  V  V49  1  0.49517436  0.47503640  0.49569067  1
  V  V50  1  0.37255012  0.37400688  0.01820810  1
  V  V51  1  0.63202584  0.10632778  0.49302156  1
  V  V52  1  0.37958612  0.88857739  0.48917776  1
  V  V53  1  0.61886288  0.86797974  0.25414553  1
  V  V54  1  0.37273332  0.48503710  0.37243283  1
  V  V55  1  0.12245746  0.25994255  0.86024959  1
  V  V56  1  0.24874267  0.37788940  0.62127072  1
  V  V57  1  0.13814134  0.12822826  0.48496937  1
  V  V58  1  0.62468328  0.49529212  0.15276956  1
  V  V59  1  0.48179643  0.13672698  0.12206964  1
  V  V60  1  0.25442235  0.75480182  -0.00128450  1
  V  V61  1  0.50371851  0.49751453  0.00336330  1
  V  V62  1  0.12528926  0.49415512  0.64195471  1
  V  V63  1  0.74554918  0.22819628  -0.03993830  1
  V  V64  1  -0.00782942  0.73714357  0.24764226  1
  V  V65  1  0.88087472  0.51185950  0.86541838  1
  V  V66  1  -0.00314061  0.87932481  0.37829971  1
  V  V67  1  0.75926820  0.50133040  0.73059193  1
  V  V68  1  0.12517232  0.87978667  0.24873677  1
  V  V69  1  0.25228997  0.12682547  0.87315364  1
  V  V70  1  0.62815823  0.26801427  0.36934520  1
  V  V71  1  0.26575112  0.11707332  0.34810300  1
  V  V72  1  0.37789530  0.12758703  0.74650219  1
  Zn  Zn73  1  0.48790490  0.74759807  0.26453806  1
  Zn  Zn74  1  0.63892666  0.35968481  0.74844092  1
  Zn  Zn75  1  0.01006805  0.47089109  0.49821483  1
  Zn  Zn76  1  -0.01287582  0.86981238  0.88010752  1
  Zn  Zn77  1  0.74827358  0.75663759  0.49954971  1
  Zn  Zn78  1  0.50633323  0.77835729  0.73784751  1
  Zn  Zn79  1  0.50974186  0.62593113  0.13210048  1
  Zn  Zn80  1  0.51550393  0.23905156  0.25059218  1
  Zn  Zn81  1  0.62145640  0.49109083  0.61648003  1
  Zn  Zn82  1  0.18147769  0.19463715  0.20101234  1
  Zn  Zn83  1  0.18395276  0.18876961  0.67672370  1
  Zn  Zn84  1  0.18404366  0.68877013  0.18542919  1
  Zn  Zn85  1  0.18118580  0.68628167  0.68797581  1
  Zn  Zn86  1  0.69233961  0.19248159  0.18073630  1
  Zn  Zn87  1  0.68221227  0.16721366  0.70942430  1
  Zn  Zn88  1  0.68581815  0.67980350  0.19150388  1
  Zn  Zn89  1  0.65816149  0.64827681  0.71062909  1
  Zn  Zn90  1  0.30639119  0.30318409  0.31850374  1
  Zn  Zn91  1  0.30638298  0.31134531  0.80353420  1
  Zn  Zn92  1  0.30705028  0.81887250  0.31041451  1
  Zn  Zn93  1  0.30952722  0.80152894  0.80094384  1
  Zn  Zn94  1  0.80241989  0.31798703  0.31982539  1
  Zn  Zn95  1  0.81412590  0.31700741  0.81116896  1
  Zn  Zn96  1  0.80892782  0.81051179  0.31444314  1
  Zn  Zn97  1  0.80863216  0.81946126  0.81162154  1
  Zn  Zn98  1  0.19734502  0.43367138  0.43997558  1
  Zn  Zn99  1  0.18594495  0.43889982  0.93514413  1
  Zn  Zn100  1  0.18898018  0.95061270  0.43644433  1
  Zn  Zn101  1  0.28812288  0.94914165  0.94385542  1
  Zn  Zn102  1  0.68575537  0.43280108  0.44493751  1
  Zn  Zn103  1  0.67887178  0.39559412  0.94623423  1
  Zn  Zn104  1  0.69177605  0.93368435  0.43750627  1
  Zn  Zn105  1  0.68909919  0.92824534  0.93747237  1
  Zn  Zn106  1  0.30750823  0.07530495  0.08065775  1
  Zn  Zn107  1  0.30660390  0.06556765  0.55926925  1
  Zn  Zn108  1  0.31129925  0.56412758  0.05812908  1
  Zn  Zn109  1  0.31335490  0.55926918  0.56001705  1
  Zn  Zn110  1  0.80941952  0.07355705  0.05918099  1
  Zn  Zn111  1  0.81852102  0.07304761  0.56463571  1
  Zn  Zn112  1  0.78788552  0.53051638  0.04380323  1
  Zn  Zn113  1  0.81992229  0.56758122  0.53853547  1
  Zn  Zn114  1  0.42860738  0.44342933  0.19141596  1
  Zn  Zn115  1  0.43356043  0.43506005  0.68239599  1
  Zn  Zn116  1  0.45161680  0.96049716  0.03457557  1
  Zn  Zn117  1  0.42993590  0.93525979  0.67624725  1
  Zn  Zn118  1  0.93598291  0.44740077  0.19631111  1
  Zn  Zn119  1  0.94394889  0.43924626  0.68468758  1
  Zn  Zn120  1  0.94220447  0.93870189  0.18954215  1
  Zn  Zn121  1  0.94130795  0.94493626  0.68916892  1
  Zn  Zn122  1  0.05916337  0.06938658  0.31424029  1
  Zn  Zn123  1  0.06229017  0.06499801  0.81395530  1
  Zn  Zn124  1  0.06708997  0.55788382  0.31718146  1
  Zn  Zn125  1  0.06246969  0.56791032  0.81512643  1
  Zn  Zn126  1  0.57628375  0.06937858  0.29663872  1
  Zn  Zn127  1  0.59193716  -0.03545553  0.68588678  1
  Zn  Zn128  1  0.55252388  0.56749188  0.32163079  1
  Zn  Zn129  1  0.58641378  0.51222355  0.83718063  1
  Zn  Zn130  1  0.44147377  0.18192961  0.42686190  1
  Zn  Zn131  1  0.43380456  0.18611010  0.94368594  1
  Zn  Zn132  1  0.43823205  0.70091895  0.43416834  1
  Zn  Zn133  1  0.43670838  0.67769317  0.94442168  1
  Zn  Zn134  1  0.93733683  0.19048532  0.44740539  1
  Zn  Zn135  1  0.92879826  0.19233836  0.93340504  1
  Zn  Zn136  1  0.92973809  0.68295162  0.43945566  1
  Zn  Zn137  1  0.94009488  0.68744818  0.93934872  1
  Zn  Zn138  1  0.05899372  0.32100235  0.05870929  1
  Zn  Zn139  1  0.06605255  0.29909068  0.57027083  1
  Zn  Zn140  1  0.06150599  0.81105794  0.06490973  1
  Zn  Zn141  1  0.05900172  0.81633285  0.56327349  1
  Zn  Zn142  1  0.57315343  0.31307698  0.06233928  1
  Zn  Zn143  1  0.56486931  0.30851066  0.57058010  1
  Zn  Zn144  1  0.56746801  0.81777658  0.06239813  1
  Zn  Zn145  1  0.55097117  0.81374621  0.56426964  1
  O  O146  1  0.11313574  0.12413478  0.12037122  1
  O  O147  1  0.12540459  0.11804687  0.61152269  1
  O  O148  1  0.12844300  0.61471922  0.11466497  1
  O  O149  1  0.13520848  0.61081457  0.61292216  1
  O  O150  1  0.63944546  0.10586925  0.12539256  1
  O  O151  1  0.61017780  0.13212546  0.61582841  1
  O  O152  1  0.62908210  0.60121079  0.12508286  1
  O  O153  1  0.60217325  0.60972894  0.61939746  1
  O  O154  1  0.35551848  0.38723628  0.37930759  1
  O  O155  1  0.36368059  0.38636243  0.87573173  1
  O  O156  1  0.36425032  0.87065117  0.38967951  1
  O  O157  1  0.38777653  0.87439892  0.85796647  1
  O  O158  1  0.87123510  0.38852107  0.38629338  1
  O  O159  1  0.88890879  0.38878747  0.87151602  1
  O  O160  1  0.88146713  0.88485121  0.37682631  1
  O  O161  1  0.87520563  0.89673965  0.87680591  1
  O  O162  1  0.24813118  0.01344788  0.36479365  1
  O  O163  1  0.24374018  0.01604954  0.86295866  1
  O  O164  1  0.26147716  0.51934663  0.38533548  1
  O  O165  1  0.26063153  0.51098141  0.88187628  1
  O  O166  1  0.76663580  -0.00678817  0.36004789  1
  O  O167  1  0.76076278  0.00379831  0.88416853  1
  O  O168  1  0.75394913  0.49288753  0.37191099  1
  O  O169  1  0.77076756  0.51094571  0.87319376  1
  O  O170  1  0.23797479  0.50021623  0.12274504  1
  O  O171  1  0.23969933  0.49034781  0.61897013  1
  O  O172  1  0.22954510  0.99469464  0.11709247  1
  O  O173  1  0.24725012  0.99204646  0.63589212  1
  O  O174  1  0.74149123  0.49979368  0.14901015  1
  O  O175  1  0.76550011  0.51524741  0.63043886  1
  O  O176  1  0.75638807  0.98754068  0.12710726  1
  O  O177  1  0.76407672  0.99224987  0.62705761  1
  O  O178  1  -0.00289105  0.36667725  0.25243305  1
  O  O179  1  0.00353374  0.37862560  0.76413666  1
  O  O180  1  0.00679405  0.86480653  0.25743700  1
  O  O181  1  0.01424631  0.87454036  0.75598713  1
  O  O182  1  0.45546235  0.34460412  0.25178415  1
  O  O183  1  0.48945400  0.35793648  0.74636056  1
  O  O184  1  0.52068341  0.86335013  0.24015827  1
  O  O185  1  0.44942183  0.88819874  0.81162622  1
  O  O186  1  0.50668805  0.12370967  0.23005836  1
  O  O187  1  0.48457194  0.13691993  0.73837681  1
  O  O188  1  0.50888264  0.63733269  0.24469297  1
  O  O189  1  0.49142591  0.61213168  0.74431026  1
  O  O190  1  0.99362220  0.14186646  0.24291642  1
  O  O191  1  0.99318935  0.11821745  0.74416525  1
  O  O192  1  1.00586262  0.63905723  0.25719809  1
  O  O193  1  1.00201518  0.64027066  0.75339182  1
  O  O194  1  0.35813965  0.26345799  -0.00284167  1
  O  O195  1  0.38043508  0.24238130  0.50778269  1
  O  O196  1  0.35930270  0.74575621  0.00624610  1
  O  O197  1  0.35535490  0.75801962  0.49876505  1
  O  O198  1  0.84385673  0.25412201  -0.02026759  1
  O  O199  1  0.85572376  0.25328674  0.49964718  1
  O  O200  1  0.87218335  0.74267511  0.01668284  1
  O  O201  1  0.87295591  0.76763638  0.49216678  1
  O  O202  1  0.12295660  0.23036427  0.49997726  1
  O  O203  1  0.13078839  0.24790093  0.99438054  1
  O  O204  1  0.12820654  0.74423007  0.49269673  1
  O  O205  1  0.12863281  0.74332429  0.99515172  1
  O  O206  1  0.63171355  0.24574147  0.49198740  1
  O  O207  1  0.65930616  0.28532099  0.99034420  1
  O  O208  1  0.62827964  0.76696248  0.49225162  1
  O  O209  1  0.64310060  0.74567207  0.99727652  1
  O  O210  1  0.51753814  0.23834573  0.12641627  1
  O  O211  1  0.48506972  0.23996000  0.62849130  1
  O  O212  1  0.48093733  0.74891377  0.11510994  1
  O  O213  1  0.49791836  0.72719416  0.62680174  1
  O  O214  1  0.99826576  0.24579189  0.12284069  1
  O  O215  1  1.01441419  0.22404199  0.63817249  1
  O  O216  1  0.98992185  0.75033549  0.13630297  1
  O  O217  1  1.00497690  0.75592763  0.64244831  1
  O  O218  1  -0.00316613  0.25318517  0.36852867  1
  O  O219  1  0.01029611  0.26455389  0.88255364  1
  O  O220  1  0.00317485  0.75431755  0.36615142  1
  O  O221  1  0.01028010  0.75402964  0.87336566  1
  O  O222  1  0.52396039  0.23816930  0.37273504  1
  O  O223  1  0.48830268  0.24604942  0.86215049  1
  O  O224  1  0.52008755  0.75451558  0.37661324  1
  O  O225  1  0.51952492  0.73566153  0.89322155  1
  O  O226  1  0.24320798  0.12387070  0.48658589  1
  O  O227  1  0.23899295  0.13941019  0.99331017  1
  O  O228  1  0.24250825  0.63969990  0.49533224  1
  O  O229  1  0.24096795  0.63374506  0.98994505  1
  O  O230  1  0.73721335  0.13374081  0.50624916  1
  O  O231  1  0.73918722  0.13118197  0.99228015  1
  O  O232  1  0.75568538  0.67541028  0.58534795  1
  O  O233  1  0.76083538  0.62790728  0.98702594  1
  O  O234  1  0.25242879  0.36534333  -0.00286410  1
  O  O235  1  0.24550062  0.36994259  0.51675630  1
  O  O236  1  0.23935153  0.86484557  0.00454227  1
  O  O237  1  0.24272370  0.86644958  0.50496895  1
  O  O238  1  0.75595926  0.41652265  0.02600134  1
  O  O239  1  0.75710920  0.36322181  0.50774315  1
  O  O240  1  0.75337788  0.86005434  0.01559962  1
  O  O241  1  0.76655354  0.87763335  0.50420925  1
  O  O242  1  0.11560737  0.49178658  0.23569996  1
  O  O243  1  0.12632007  0.50633290  0.74057490  1
  O  O244  1  0.10661996  0.99161243  0.23794577  1
  O  O245  1  0.13323798  0.98614235  0.75814365  1
  O  O246  1  0.62964486  0.49773391  0.25574723  1
  O  O247  1  0.65217271  0.51994208  0.73807298  1
  O  O248  1  0.63914404  0.99001313  0.23716970  1
  O  O249  1  0.65606999  1.03089870  0.74236105  1
  O  O250  1  0.41840386  -0.00872009  0.30704418  1
  O  O251  1  0.36212311  0.01178749  0.74265044  1
  O  O252  1  0.37881141  0.50412690  0.27205427  1
  O  O253  1  0.37863084  0.50510411  0.76437257  1
  O  O254  1  0.87320414  0.00949569  0.25442405  1
  O  O255  1  0.86869387  0.00166880  0.76178126  1
  O  O256  1  0.87032455  0.50797696  0.27395491  1
  O  O257  1  0.87506236  0.50423849  0.75765125  1
  O  O258  1  0.12408014  0.39471993  0.36029625  1
  O  O259  1  0.11888173  0.36641150  0.87438868  1
  O  O260  1  0.11786214  0.86815502  0.36847791  1
  O  O261  1  0.13105938  0.86130846  0.86173585  1
  O  O262  1  0.62223478  0.36744994  0.37254428  1
  O  O263  1  0.62332192  0.40510881  0.85191620  1
  O  O264  1  0.62917214  0.88518295  0.35606785  1
  O  O265  1  0.63033163  0.85324842  0.87634756  1
  O  O266  1  0.38140608  0.14092551  0.13361505  1
  O  O267  1  0.37638911  0.13454247  0.62720015  1
  O  O268  1  0.36151856  0.64274450  0.12657073  1
  O  O269  1  0.37923933  0.61594038  0.64109820  1
  O  O270  1  0.88366968  0.12256856  0.13563103  1
  O  O271  1  0.89201423  0.12622481  0.63367838  1
  O  O272  1  0.87321695  0.63005111  0.12931810  1
  O  O273  1  0.88368971  0.64248729  0.61435212  1
  O  O274  1  0.23797256  0.24947956  0.11104441  1
  O  O275  1  0.26240291  0.25415476  0.62309978  1
  O  O276  1  0.24925768  0.75857233  0.11668820  1
  O  O277  1  0.23915065  0.75685583  0.61212734  1
  O  O278  1  0.75044428  0.27382050  0.12613253  1
  O  O279  1  0.73499518  0.24460039  0.61605564  1
  O  O280  1  0.76299078  0.75128405  0.12495275  1
  O  O281  1  0.82801965  0.69362845  0.63061612  1
  O  O282  1  0.24610849  0.22307152  0.36298653  1
  O  O283  1  0.23566235  0.24677916  0.87884618  1
  O  O284  1  0.23669551  0.74666953  0.38309726  1
  O  O285  1  0.24462362  0.74472239  0.88134289  1
  O  O286  1  0.73510804  0.25161625  0.38766820  1
  O  O287  1  0.74062702  0.24081074  0.85769673  1
  O  O288  1  0.73636502  0.75407552  0.38093744  1
  O  O289  1  0.74819916  0.73788743  0.88185648  1
  O  O290  1  0.00397547  0.12897494  0.00501015  1
  O  O291  1  0.00421708  0.12431873  0.50941097  1
  O  O292  1  0.01513456  0.61177694  -0.01037703  1
  O  O293  1  0.01684183  0.63304234  0.50110365  1
  O  O294  1  0.49053405  0.12466223  0.01821549  1
  O  O295  1  0.51152743  0.12424155  0.50757382  1
  O  O296  1  0.48251343  0.60088258  0.01886199  1
  O  O297  1  0.48790967  0.62578567  0.50668915  1
  O  O298  1  0.49223315  0.37653740  0.50248302  1
  O  O299  1  0.48096206  0.38114680  1.01037094  1
  O  O300  1  0.47799273  0.87349375  0.50101148  1
  O  O301  1  0.50488261  0.87568595  0.99313402  1
  O  O302  1  0.98321052  0.35534004  0.50804768  1
  O  O303  1  1.00602308  0.39364928  0.98691062  1
  O  O304  1  0.99352870  0.87092933  0.48447236  1
  O  O305  1  1.00316885  0.89107106  1.00341467  1
  O  O306  1  0.48632009  0.49709080  0.38584203  1
  O  O307  1  0.48104243  0.50333318  0.89258936  1
  O  O308  1  0.47897231  0.99063391  0.34739925  1
  O  O309  1  0.54302159  1.02993309  0.87517666  1
  O  O310  1  0.98633084  0.50632966  0.38379962  1
  O  O311  1  0.99589952  0.49397526  0.87693894  1
  O  O312  1  0.98615374  0.99079056  0.36361727  1
  O  O313  1  1.00444230  0.99782536  0.89104980  1
  O  O314  1  0.00260539  0.01029563  0.11446422  1
  O  O315  1  0.00610166  0.01444156  0.63054056  1
  O  O316  1  0.00129624  0.50023283  0.11201443  1
  O  O317  1  0.02105538  0.49375848  0.61827982  1
  O  O318  1  0.51375780  0.01381792  0.12187528  1
  O  O319  1  0.49659731  0.02319265  0.63474778  1
  O  O320  1  0.51095798  0.49343418  0.12644620  1
  O  O321  1  0.48724385  0.50426780  0.60678861  1
  O  O322  1  0.23011192  0.36389775  0.24885406  1
  O  O323  1  0.25134241  0.37164825  0.72636425  1
  O  O324  1  0.23130888  0.87044422  0.23904507  1
  O  O325  1  0.24401849  0.87930918  0.74291375  1
  O  O326  1  0.75870036  0.39244017  0.24150395  1
  O  O327  1  0.75801817  0.39873249  0.74886420  1
  O  O328  1  0.75221425  0.88248302  0.23787310  1
  O  O329  1  0.74727063  0.89558104  0.75340505  1
  O  O330  1  0.24941067  0.11818981  0.24436729  1
  O  O331  1  0.25203210  0.12080946  0.75296942  1
  O  O332  1  0.23997876  0.63193821  0.26654662  1
  O  O333  1  0.26032510  0.63785670  0.76099733  1
  O  O334  1  0.76284085  0.11292272  0.23913243  1
  O  O335  1  0.77769945  0.11297188  0.74049958  1
  O  O336  1  0.74759425  0.60939544  0.25893775  1
  O  O337  1  0.76074831  0.62039886  0.76573844  1
  O  O338  1  0.36822059  0.12516038  0.36365685  1
  O  O339  1  0.35860853  0.13709898  0.86379678  1
  O  O340  1  0.35946669  0.64037914  0.37368186  1
  O  O341  1  0.36951508  0.61622974  0.86711142  1
  O  O342  1  0.88319516  0.11261770  0.36676587  1
  O  O343  1  0.88811934  0.11043934  0.86087359  1
  O  O344  1  0.85534112  0.59571103  0.42831071  1
  O  O345  1  0.87739692  0.61580176  0.87354136  1
  O  O346  1  0.12090808  0.38945160  0.12894384  1
  O  O347  1  0.13231439  0.38496749  0.62325255  1
  O  O348  1  0.12508829  0.88345434  0.13088216  1
  O  O349  1  0.13192027  0.87080043  0.64007456  1
  O  O350  1  0.63288863  0.39386813  0.12635440  1
  O  O351  1  0.61987019  0.38044197  0.63753679  1
  O  O352  1  0.64094404  0.87884119  0.13528939  1
  O  O353  1  0.53430772  0.87188517  0.66901237  1
  O  O354  1  0.10444669  0.26700985  0.24651011  1
  O  O355  1  0.12728987  0.24590083  0.76295477  1
  O  O356  1  0.11333103  0.75739436  0.25610499  1
  O  O357  1  0.11815260  0.75720152  0.75708555  1
  O  O358  1  0.63506311  0.24421067  0.26532716  1
  O  O359  1  0.60464078  0.24368364  0.74740647  1
  O  O360  1  0.63722792  0.75978511  0.26222287  1
  O  O361  1  0.61564260  0.73830685  0.76822487  1
  O  O362  1  0.39541089  0.28730855  0.24305453  1
  O  O363  1  0.37790114  0.24223718  0.74011711  1
  O  O364  1  0.37249806  0.76222606  0.23364590  1
  O  O365  1  0.39442982  0.73515569  0.75938297  1
  O  O366  1  0.88137218  0.24234802  0.26118104  1
  O  O367  1  0.88022297  0.23881204  0.75728537  1
  O  O368  1  0.88562538  0.74990417  0.24425248  1
  O  O369  1  0.89413082  0.76269820  0.76246527  1
  O  O370  1  0.38371677  0.50531077  0.48705121  1
  O  O371  1  0.37158926  0.48559880  0.99401277  1
  O  O372  1  0.36730372  0.98820762  0.50155553  1
  O  O373  1  0.35975179  1.01101588  1.00195643  1
  O  O374  1  0.88158065  0.47226899  0.50475433  1
  O  O375  1  0.89185538  0.50914181  0.98766327  1
  O  O376  1  0.87036633  0.99601888  0.48338858  1
  O  O377  1  0.88891707  1.01420944  0.99067344  1
  O  O378  1  0.10947239  0.01946062  0.00947676  1
  O  O379  1  0.12002421  0.01937259  0.49327503  1
  O  O380  1  0.12018086  0.50471998  0.00955967  1
  O  O381  1  0.12314108  0.51349115  0.49459431  1
  O  O382  1  0.63486940  -0.01153966  0.01691362  1
  O  O383  1  0.63691213  0.00702034  0.50943608  1
  O  O384  1  0.60230245  0.49179814  -0.00547824  1
  O  O385  1  0.60254790  0.49280795  0.49740200  1
  O  O386  1  0.36167211  0.38327353  0.11533133  1
  O  O387  1  0.36614488  0.36247724  0.61987045  1
  O  O388  1  0.35400734  0.86931832  0.12010158  1
  O  O389  1  0.35532885  0.87301776  0.61300540  1
  O  O390  1  0.86896947  0.38512421  0.12832286  1
  O  O391  1  0.87593664  0.36750255  0.62444979  1
  O  O392  1  0.86745045  0.86935037  0.13018653  1
  O  O393  1  0.89046361  0.88142381  0.60709858  1
  O  O394  1  0.13083095  0.12613883  0.37700183  1
  O  O395  1  0.12731629  0.13835662  0.88267250  1
  O  O396  1  0.13221818  0.63212248  0.38579214  1
  O  O397  1  0.13445713  0.63392097  0.88123972  1
  O  O398  1  0.62393840  0.11040934  0.39099754  1
  O  O399  1  0.58469961  0.08817196  0.88730481  1
  O  O400  1  0.62547667  0.63617355  0.38622700  1
  O  O401  1  0.64359228  0.61931416  0.87661934  1
