# generated using pymatgen
data_V73Zn73O256
_symmetry_space_group_name_H-M   'P 1'
_cell_length_a   16.93380797
_cell_length_b   16.89807349
_cell_length_c   16.99435397
_cell_angle_alpha   90.05704845
_cell_angle_beta   89.88699963
_cell_angle_gamma   89.85425599
_symmetry_Int_Tables_number   1
_chemical_formula_structural   V73Zn73O256
_chemical_formula_sum   'V73 Zn73 O256'
_cell_volume   4862.88520562
_cell_formula_units_Z   1
loop_
 _symmetry_equiv_pos_site_id
 _symmetry_equiv_pos_as_xyz
  1  'x, y, z'
loop_
 _atom_site_type_symbol
 _atom_site_label
 _atom_site_symmetry_multiplicity
 _atom_site_fract_x
 _atom_site_fract_y
 _atom_site_fract_z
 _atom_site_occupancy
  V  V0  1  0.61522359  0.12004686  -0.00164791  1
  V  V1  1  0.49637357  0.64293080  0.63826696  1
  V  V2  1  0.12622492  0.62505614  0.49714637  1
  V  V3  1  0.14089248  0.77493114  0.85598710  1
  V  V4  1  0.49468108  0.37029224  0.38453589  1
  V  V5  1  0.10955761  0.00946345  0.60594994  1
  V  V6  1  0.63564883  0.62683695  -0.00143595  1
  V  V7  1  0.25406346  0.87936716  0.61373997  1
  V  V8  1  0.36693450  0.24657069  0.62655826  1
  V  V9  1  0.50300408  0.63146811  0.11648165  1
  V  V10  1  0.38371642  -0.00499114  0.37705210  1
  V  V11  1  0.49362284  0.11969356  0.59883312  1
  V  V12  1  0.62785060  0.49972898  0.63254338  1
  V  V13  1  0.88455895  0.12025431  0.75652656  1
  V  V14  1  -0.00484466  0.74597990  0.25727660  1
  V  V15  1  0.37987655  0.62197568  0.25158603  1
  V  V16  1  0.11746933  0.11792805  0.00466318  1
  V  V17  1  0.12049788  0.74738522  0.37884172  1
  V  V18  1  0.61060824  0.75484661  0.86974811  1
  V  V19  1  0.64759134  0.13008660  0.49791305  1
  V  V20  1  0.74813446  0.75342894  0.51709426  1
  V  V21  1  0.50913889  0.90347397  0.85099644  1
  V  V22  1  0.01340892  0.60777010  0.13994707  1
  V  V23  1  -0.00027622  0.49298006  0.50016686  1
  V  V24  1  0.12475782  0.88732235  0.25461581  1
  V  V25  1  0.13187274  0.49632910  0.62648097  1
  V  V26  1  0.14607175  0.37800903  0.74359858  1
  V  V27  1  0.75335689  0.13053603  0.87940614  1
  V  V28  1  0.50429661  0.49020353  -0.00175963  1
  V  V29  1  0.24393216  0.23869864  0.49581847  1
  V  V30  1  0.26454298  0.75608080  0.49699788  1
  V  V31  1  0.24444339  0.48952545  0.24720833  1
  V  V32  1  0.75942147  0.50464890  0.76773101  1
  V  V33  1  0.62142256  0.88154462  0.24538688  1
  V  V34  1  0.87769875  0.74490165  0.12858951  1
  V  V35  1  0.74699818  -0.00345169  0.75190113  1
  V  V36  1  0.24712017  0.12608169  0.87801705  1
  V  V37  1  0.49693637  0.50487868  0.50252861  1
  V  V38  1  0.50022115  0.87569895  0.38533172  1
  V  V39  1  0.76651006  0.88767032  0.12598235  1
  V  V40  1  -0.00513154  0.27029338  0.75260147  1
  V  V41  1  0.63532184  0.25779269  0.39907147  1
  V  V42  1  0.39419994  0.12396104  0.23612104  1
  V  V43  1  0.16595533  0.61664609  -0.02259728  1
  V  V44  1  0.37456170  0.11610945  0.74818630  1
  V  V45  1  0.49795430  0.75595110  0.24563652  1
  V  V46  1  -0.00240148  0.63331121  0.63006632  1
  V  V47  1  0.88137084  0.24708810  0.12904703  1
  V  V48  1  0.23515439  -0.00152773  0.74702402  1
  V  V49  1  0.88504680  0.38536778  -0.00955570  1
  V  V50  1  0.62226278  0.63241844  0.49423228  1
  V  V51  1  0.86722246  0.38132118  0.50678047  1
  V  V52  1  0.60289374  -0.00224484  0.11419472  1
  V  V53  1  -0.00135308  -0.01184238  -0.00627111  1
  V  V54  1  0.73563781  0.49227679  0.26125915  1
  V  V55  1  0.92654663  0.44000846  0.33044039  1
  V  V56  1  0.75806118  0.75001516  -0.00588030  1
  V  V57  1  0.39358404  0.87032073  -0.01286970  1
  V  V58  1  0.25778938  0.61900730  0.37723109  1
  V  V59  1  0.63440899  -0.00069293  0.62189123  1
  V  V60  1  -0.01205584  0.88662016  0.38251362  1
  V  V61  1  0.26871046  0.86549303  0.10327937  1
  V  V62  1  0.87191653  0.25094003  0.62418127  1
  V  V63  1  0.74759089  0.26154231  0.00350960  1
  V  V64  1  0.74443449  0.64490463  0.37311743  1
  V  V65  1  0.24351864  0.11707127  0.35901106  1
  V  V66  1  0.10725854  0.25260995  0.37607268  1
  V  V67  1  0.62144217  0.36236645  0.25478589  1
  V  V68  1  0.33927785  0.51707082  0.82191490  1
  V  V69  1  0.36358037  0.37967113  0.50389463  1
  V  V70  1  0.12727206  0.25685313  0.87779878  1
  V  V71  1  0.87463836  0.87510246  0.51001352  1
  V  V72  1  0.86914005  0.62750604  0.25982815  1
  Zn  Zn73  1  0.87901305  0.62637340  0.77525533  1
  Zn  Zn74  1  0.63505955  0.48316781  0.12117791  1
  Zn  Zn75  1  0.00727346  0.50637542  -0.00498213  1
  Zn  Zn76  1  0.74256952  0.37485953  0.63228711  1
  Zn  Zn77  1  0.88710554  0.86971534  -0.01320636  1
  Zn  Zn78  1  0.57808883  0.31163301  0.78297618  1
  Zn  Zn79  1  0.78608289  0.07386867  0.33792594  1
  Zn  Zn80  1  0.87813580  0.74963269  0.64031782  1
  Zn  Zn81  1  0.27483945  0.37671463  0.09592954  1
  Zn  Zn82  1  0.17202263  0.19574603  0.19229386  1
  Zn  Zn83  1  0.18008665  0.18382468  0.68379870  1
  Zn  Zn84  1  0.19081710  0.69162400  0.19216394  1
  Zn  Zn85  1  0.17742509  0.70335824  0.67690793  1
  Zn  Zn86  1  0.73545433  0.15004254  0.16238822  1
  Zn  Zn87  1  0.69146833  0.18698000  0.68779866  1
  Zn  Zn88  1  0.68775372  0.69661180  0.18588323  1
  Zn  Zn89  1  0.68029048  0.67703492  0.69090682  1
  Zn  Zn90  1  0.31794205  0.30119612  0.31215048  1
  Zn  Zn91  1  0.36792688  0.35254840  0.93081392  1
  Zn  Zn92  1  0.31240325  0.81114049  0.30577727  1
  Zn  Zn93  1  0.31469590  0.83159598  0.81327576  1
  Zn  Zn94  1  0.82925116  0.25588153  0.32967467  1
  Zn  Zn95  1  0.80253652  0.32071344  0.81491873  1
  Zn  Zn96  1  0.79173069  0.85995472  0.32842841  1
  Zn  Zn97  1  0.77285865  0.78944048  0.78208777  1
  Zn  Zn98  1  0.18323676  0.43564578  0.43080438  1
  Zn  Zn99  1  0.19725120  0.43996283  0.93183366  1
  Zn  Zn100  1  0.18192668  0.93923897  0.43481953  1
  Zn  Zn101  1  0.20368882  0.94066736  0.94356687  1
  Zn  Zn102  1  0.68744902  0.44770998  0.43928495  1
  Zn  Zn103  1  0.67172195  0.43726924  0.92511165  1
  Zn  Zn104  1  0.68358291  0.94265349  0.43664688  1
  Zn  Zn105  1  0.69251593  0.93612144  0.93561528  1
  Zn  Zn106  1  0.30125676  0.03922824  0.07214259  1
  Zn  Zn107  1  0.30504576  0.05810551  0.55590706  1
  Zn  Zn108  1  0.32811814  0.55202723  0.07036451  1
  Zn  Zn109  1  0.33512660  0.54536094  0.61175639  1
  Zn  Zn110  1  0.84049410  0.05937109  0.05241891  1
  Zn  Zn111  1  0.82841643  0.06672631  0.56391396  1
  Zn  Zn112  1  0.80749655  0.55990073  0.06994049  1
  Zn  Zn113  1  0.81067668  0.56637251  0.56188359  1
  Zn  Zn114  1  0.45342401  0.44622530  0.19236300  1
  Zn  Zn115  1  0.41837260  0.40926823  0.72786619  1
  Zn  Zn116  1  0.42626938  0.94274770  0.18773405  1
  Zn  Zn117  1  0.43626013  0.94313440  0.67490481  1
  Zn  Zn118  1  0.91359303  0.43351463  0.16728362  1
  Zn  Zn119  1  0.93692099  0.44787730  0.68752278  1
  Zn  Zn120  1  0.99071520  0.91723870  0.15094560  1
  Zn  Zn121  1  0.93260924  0.93548389  0.69119518  1
  Zn  Zn122  1  0.06349928  0.06081935  0.33893815  1
  Zn  Zn123  1  0.06334943  0.05860005  0.81423446  1
  Zn  Zn124  1  0.09966353  0.37317310  0.25324878  1
  Zn  Zn125  1  0.07667639  0.57122084  0.81088945  1
  Zn  Zn126  1  0.60286373  0.10804229  0.27638520  1
  Zn  Zn127  1  0.57684413  0.09755766  0.79645854  1
  Zn  Zn128  1  0.55735488  0.56476672  0.31916524  1
  Zn  Zn129  1  0.55920163  0.56717247  0.81694433  1
  Zn  Zn130  1  0.42821512  0.18760266  0.42785312  1
  Zn  Zn131  1  0.43362783  0.17101748  0.93044401  1
  Zn  Zn132  1  0.44223549  0.69344406  0.43287006  1
  Zn  Zn133  1  0.32721813  0.68562036  0.92070387  1
  Zn  Zn134  1  0.92927216  0.16863976  0.44912194  1
  Zn  Zn135  1  0.93869556  0.19286223  0.93543604  1
  Zn  Zn136  1  0.93288509  0.68589105  0.44380122  1
  Zn  Zn137  1  0.97047627  0.69693898  0.95217846  1
  Zn  Zn138  1  0.05492149  0.31010430  0.05931989  1
  Zn  Zn139  1  0.05943959  0.30869063  0.56617794  1
  Zn  Zn140  1  0.09578190  0.80706135  0.03608739  1
  Zn  Zn141  1  0.06568521  0.82308190  0.56645329  1
  Zn  Zn142  1  0.55551928  0.30436386  -0.04428719  1
  Zn  Zn143  1  0.53761509  0.32803517  0.59825858  1
  Zn  Zn144  1  0.56553524  0.81350594  0.05729698  1
  Zn  Zn145  1  0.56565884  0.81617571  0.56782866  1
  O  O146  1  0.13754100  0.14151294  0.09955297  1
  O  O147  1  0.11917316  0.11060551  0.62311972  1
  O  O148  1  0.11042091  0.61620976  0.15916374  1
  O  O149  1  0.11889544  0.62135930  0.61439525  1
  O  O150  1  0.63245401  0.10555383  0.11023784  1
  O  O151  1  0.61142152  0.12688339  0.60646610  1
  O  O152  1  0.62051732  0.63413714  0.11423205  1
  O  O153  1  0.61632321  0.61990098  0.61387884  1
  O  O154  1  0.38718275  0.36870310  0.39251617  1
  O  O155  1  0.38772427  0.42691841  0.84488220  1
  O  O156  1  0.38568768  0.88461128  0.36288469  1
  O  O157  1  0.39976873  0.88134998  0.87357157  1
  O  O158  1  0.87798725  0.36917093  0.39036183  1
  O  O159  1  0.87115205  0.36920377  0.89224304  1
  O  O160  1  0.88595276  0.85718872  0.39002970  1
  O  O161  1  0.89821185  0.86484275  0.84733404  1
  O  O162  1  0.24621514  0.01480395  0.37367778  1
  O  O163  1  0.24075786  0.01284700  0.85367072  1
  O  O164  1  0.24701995  0.51439665  0.37138742  1
  O  O165  1  0.24279710  0.50847293  0.84911146  1
  O  O166  1  0.75898772  -0.03133845  0.35880092  1
  O  O167  1  0.74739779  0.00839773  0.85942672  1
  O  O168  1  0.74433550  0.52006727  0.36636427  1
  O  O169  1  0.74427686  0.50311722  0.86605986  1
  O  O170  1  0.26636548  0.48767134  0.14210019  1
  O  O171  1  0.22960997  0.50830458  0.61445928  1
  O  O172  1  0.24657906  0.95683293  0.14041769  1
  O  O173  1  0.23572109  0.99725416  0.62437862  1
  O  O174  1  0.74747722  0.50461382  0.15498339  1
  O  O175  1  0.73544230  0.50677219  0.62386729  1
  O  O176  1  0.76940683  0.98722928  0.12187644  1
  O  O177  1  0.74151037  1.01851126  0.63297059  1
  O  O178  1  -0.01799976  0.38989307  0.26146672  1
  O  O179  1  -0.00435759  0.37035883  0.75558779  1
  O  O180  1  -0.00360644  0.86270790  0.26929329  1
  O  O181  1  -0.04262464  0.87919321  0.80323456  1
  O  O182  1  0.51105870  0.38629273  0.27758381  1
  O  O183  1  0.51093848  0.35640927  0.70816798  1
  O  O184  1  0.50323812  0.87099699  0.24415511  1
  O  O185  1  0.50070020  0.88898580  0.75218461  1
  O  O186  1  0.49518476  0.12096849  0.24480379  1
  O  O187  1  0.47442293  0.11892473  0.74469580  1
  O  O188  1  0.50093796  0.63604215  0.24647236  1
  O  O189  1  0.50369417  0.62201887  0.73615560  1
  O  O190  1  0.97580799  0.10945970  0.25450225  1
  O  O191  1  0.98637387  0.12615384  0.75615308  1
  O  O192  1  0.98200546  0.63037771  0.24988120  1
  O  O193  1  1.00546667  0.62033849  0.73044010  1
  O  O194  1  0.38175511  0.25374019  0.06946324  1
  O  O195  1  0.36145427  0.25593788  0.50148763  1
  O  O196  1  0.36414766  0.77436755  -0.01414468  1
  O  O197  1  0.36236794  0.75311048  0.49304263  1
  O  O198  1  0.86454093  0.25604771  0.00116884  1
  O  O199  1  0.88106824  0.26438206  0.52002488  1
  O  O200  1  0.87929702  0.75253581  0.01150787  1
  O  O201  1  0.85974507  0.74933464  0.50863224  1
  O  O202  1  0.14007000  0.25855257  0.49786322  1
  O  O203  1  0.11747556  0.24705712  0.97940881  1
  O  O204  1  0.12334921  0.74335365  0.49144247  1
  O  O205  1  0.14201637  0.69538126  1.03486988  1
  O  O206  1  0.62292510  0.24243584  0.50370070  1
  O  O207  1  0.63797115  0.22771265  1.00175452  1
  O  O208  1  0.63758045  0.74356210  0.50652506  1
  O  O209  1  0.63661558  0.74920455  0.98865379  1
  O  O210  1  0.42609276  0.29290371  0.11506926  1
  O  O211  1  0.47806839  0.22876547  0.61126389  1
  O  O212  1  0.50615116  0.74017014  0.12901142  1
  O  O213  1  0.51395031  0.74291372  0.63233302  1
  O  O214  1  0.98153764  0.24345282  0.11712166  1
  O  O215  1  0.98731604  0.25592272  0.64276023  1
  O  O216  1  0.99047375  0.73835284  0.14322540  1
  O  O217  1  1.00533631  0.73594977  0.61644684  1
  O  O218  1  0.01287537  0.23595664  0.40467442  1
  O  O219  1  0.01508432  0.24514132  0.85848023  1
  O  O220  1  0.00474020  0.74330432  0.37156975  1
  O  O221  1  0.05623770  0.76513267  0.92120389  1
  O  O222  1  0.50658197  0.26630076  0.39055390  1
  O  O223  1  0.45112303  0.27860304  0.91631858  1
  O  O224  1  0.49686604  0.76742835  0.36092579  1
  O  O225  1  0.51476552  0.75808842  0.85666512  1
  O  O226  1  0.25450707  0.13600777  0.48416000  1
  O  O227  1  0.24684707  0.11421593  0.98041904  1
  O  O228  1  0.24195628  0.64159478  0.49480523  1
  O  O229  1  0.26908085  0.61091304  0.99179592  1
  O  O230  1  0.74575211  0.13119927  0.50306751  1
  O  O231  1  0.75872406  0.12447084  0.98574554  1
  O  O232  1  0.74411974  0.63637407  0.49277738  1
  O  O233  1  0.74514865  0.63667256  1.00883821  1
  O  O234  1  0.27279425  0.37509884  -0.01617827  1
  O  O235  1  0.26136568  0.36818256  0.49116938  1
  O  O236  1  0.20390933  0.85222221  0.02188721  1
  O  O237  1  0.24589381  0.86470853  0.49785078  1
  O  O238  1  0.74593505  0.36181881  -0.00820968  1
  O  O239  1  0.76588685  0.38753705  0.50341674  1
  O  O240  1  0.76024887  0.87080078  0.01296578  1
  O  O241  1  0.75472970  0.85693188  0.49646355  1
  O  O242  1  0.14564512  0.48270889  0.25094391  1
  O  O243  1  0.11921248  0.48570621  0.74244362  1
  O  O244  1  0.10509867  0.98619452  0.26237454  1
  O  O245  1  0.13370048  1.00447147  0.73800622  1
  O  O246  1  0.62870631  0.49529148  0.25812537  1
  O  O247  1  0.62991724  0.50695162  0.73567477  1
  O  O248  1  0.61813585  0.99083876  0.22384537  1
  O  O249  1  0.63871921  1.01631263  0.73368553  1
  O  O250  1  0.37486970  0.01134173  0.26403871  1
  O  O251  1  0.35732723  0.01296500  0.73438323  1
  O  O252  1  0.38335676  0.51851035  0.25332998  1
  O  O253  1  0.35812720  0.50762666  0.71812935  1
  O  O254  1  0.92539604  0.05835673  0.23811187  1
  O  O255  1  0.86362003  0.01618185  0.73880281  1
  O  O256  1  0.86360335  0.49926236  0.26324434  1
  O  O257  1  0.86565828  0.50856351  0.75258279  1
  O  O258  1  0.12041748  0.35933805  0.37438185  1
  O  O259  1  0.13365854  0.36286073  0.85971997  1
  O  O260  1  0.10326624  0.86680636  0.37765372  1
  O  O261  1  0.15014863  0.87540016  0.86202375  1
  O  O262  1  0.61331369  0.37072126  0.38994236  1
  O  O263  1  0.62212448  0.35018659  0.87629351  1
  O  O264  1  0.60679187  0.88922737  0.35906569  1
  O  O265  1  0.61483619  0.86828622  0.87983261  1
  O  O266  1  0.36625794  0.10317193  0.13866871  1
  O  O267  1  0.38000189  0.12246946  0.62188248  1
  O  O268  1  0.39709341  0.62382512  0.13353999  1
  O  O269  1  0.39902066  0.63565037  0.61012333  1
  O  O270  1  0.85112599  0.14261021  0.12700498  1
  O  O271  1  0.86654069  0.14635980  0.64788346  1
  O  O272  1  0.87192131  0.63070989  0.14211700  1
  O  O273  1  0.89362513  0.62436674  0.61724970  1
  O  O274  1  0.19942758  0.30018336  0.14082438  1
  O  O275  1  0.25692839  0.23493369  0.60705976  1
  O  O276  1  0.25224693  0.78125701  0.15954633  1
  O  O277  1  0.24400247  0.76647809  0.60610254  1
  O  O278  1  0.74965014  0.25112431  0.10477542  1
  O  O279  1  0.76575236  0.25948319  0.63873359  1
  O  O280  1  0.76281691  0.75725654  0.11557875  1
  O  O281  1  0.74791102  0.74502325  0.61815966  1
  O  O282  1  0.24256545  0.24134855  0.38246369  1
  O  O283  1  0.23334034  0.23266663  0.86468389  1
  O  O284  1  0.24168938  0.74596864  0.38342627  1
  O  O285  1  0.24808544  0.75566081  0.86966809  1
  O  O286  1  0.73297535  0.26710867  0.39059043  1
  O  O287  1  0.75251885  0.23621752  0.88224978  1
  O  O288  1  0.74839755  0.74703045  0.37967071  1
  O  O289  1  0.76424877  0.76472183  0.89554052  1
  O  O290  1  0.01396741  0.12155101  -0.01069634  1
  O  O291  1  -0.06504694  0.09526441  0.52961705  1
  O  O292  1  -0.00172631  0.61991343  0.03616163  1
  O  O293  1  0.00937675  0.61494092  0.50260575  1
  O  O294  1  0.51595068  0.12293074  -0.00936643  1
  O  O295  1  0.49183409  0.11745500  0.49993233  1
  O  O296  1  0.51197523  0.61974836  0.01396700  1
  O  O297  1  0.50824085  0.62506906  0.49746928  1
  O  O298  1  0.48889102  0.38321493  0.50097468  1
  O  O299  1  0.52589517  0.39417971  1.02245947  1
  O  O300  1  0.50548685  0.86647293  0.48321139  1
  O  O301  1  0.49653866  0.87834669  0.98871702  1
  O  O302  1  0.99215118  0.38677498  0.50872266  1
  O  O303  1  0.99215395  0.38801432  0.99912162  1
  O  O304  1  0.98632089  0.86592695  0.49145227  1
  O  O305  1  1.00586310  0.88276644  1.01725786  1
  O  O306  1  0.50342102  0.49206638  0.39543802  1
  O  O307  1  0.52502265  0.49873690  0.89907586  1
  O  O308  1  0.48745277  0.98898311  0.37847269  1
  O  O309  1  0.51882435  1.00137760  0.86018497  1
  O  O310  1  0.98803801  0.49714031  0.38556738  1
  O  O311  1  0.98572768  0.54553018  0.88277331  1
  O  O312  1  0.98629138  0.98594083  0.38013654  1
  O  O313  1  1.01783888  0.99400086  0.89209467  1
  O  O314  1  -0.00739021  0.01663619  0.09684925  1
  O  O315  1  0.01519740  -0.01733110  0.63402765  1
  O  O316  1  -0.00474254  0.50653769  0.13795149  1
  O  O317  1  0.01044546  0.50993029  0.61606197  1
  O  O318  1  0.50504394  -0.00558404  0.11203457  1
  O  O319  1  0.51420139  0.01640883  0.62653376  1
  O  O320  1  0.51776197  0.51605694  0.12465318  1
  O  O321  1  0.51343132  0.51394817  0.61138539  1
  O  O322  1  0.27219555  0.39453716  0.26966921  1
  O  O323  1  0.24084680  0.37230556  0.73907560  1
  O  O324  1  0.22192246  0.87682878  0.27970103  1
  O  O325  1  0.25690220  0.89176902  0.73191194  1
  O  O326  1  0.73229555  0.38915143  0.27165781  1
  O  O327  1  0.75054473  0.39556684  0.74688517  1
  O  O328  1  0.73735555  0.86641775  0.22830600  1
  O  O329  1  0.75597483  0.89786113  0.74654107  1
  O  O330  1  0.24183738  0.13017329  0.25862918  1
  O  O331  1  0.25080555  0.11612166  0.75015056  1
  O  O332  1  0.25966874  0.61595638  0.25648832  1
  O  O333  1  0.29098414  0.67427347  0.73095793  1
  O  O334  1  0.71371959  0.12449674  0.26608750  1
  O  O335  1  0.76069408  0.12269422  0.76466994  1
  O  O336  1  0.75133197  0.62704038  0.25794089  1
  O  O337  1  0.75137859  0.60832955  0.74820736  1
  O  O338  1  0.36426798  0.11625154  0.36184771  1
  O  O339  1  0.35842923  0.12659991  0.85833214  1
  O  O340  1  0.36562867  0.63461271  0.36779211  1
  O  O341  1  0.37818833  0.60283775  0.86133200  1
  O  O342  1  0.86063707  0.15271596  0.36328160  1
  O  O343  1  0.86829684  0.12829675  0.86470685  1
  O  O344  1  0.86247724  0.63153157  0.36668532  1
  O  O345  1  0.93042605  0.61235589  0.88182321  1
  O  O346  1  0.12768038  0.35137443  0.13928657  1
  O  O347  1  0.11905759  0.38160044  0.63642658  1
  O  O348  1  0.10063396  0.86509060  0.15577686  1
  O  O349  1  0.14136197  0.88942771  0.61674584  1
  O  O350  1  0.61922518  0.36856884  0.15677982  1
  O  O351  1  0.62933757  0.39705084  0.60817164  1
  O  O352  1  0.63596007  0.88766967  0.11959358  1
  O  O353  1  0.62604914  0.90051871  0.61521599  1
  O  O354  1  0.10548196  0.24895582  0.27141065  1
  O  O355  1  0.11475440  0.26266560  0.74706985  1
  O  O356  1  0.11357611  0.75131348  0.26743629  1
  O  O357  1  0.12003670  0.75226706  0.75910251  1
  O  O358  1  0.62012939  0.26328821  0.27948074  1
  O  O359  1  0.60851068  0.20545745  0.75838547  1
  O  O360  1  0.61315984  0.76895813  0.24015789  1
  O  O361  1  0.65689891  0.75129825  0.77567875  1
  O  O362  1  0.37185792  0.22425928  0.25060114  1
  O  O363  1  0.36023379  0.23123091  0.72607107  1
  O  O364  1  0.38784132  0.74078356  0.25049811  1
  O  O365  1  0.34218664  0.72972800  0.73514761  1
  O  O366  1  0.86358775  0.27006940  0.22553119  1
  O  O367  1  0.88585604  0.25003837  0.75268186  1
  O  O368  1  0.87823629  0.74295964  0.24635970  1
  O  O369  1  0.86567346  0.73617558  0.75110798  1
  O  O370  1  0.37818819  0.48376423  0.51682212  1
  O  O371  1  0.40300669  0.49303414  1.00624926  1
  O  O372  1  0.36259801  1.00221713  0.47556075  1
  O  O373  1  0.32012247  0.95186043  0.99132938  1
  O  O374  1  0.88347670  0.48977348  0.50813914  1
  O  O375  1  0.86803229  0.48644039  1.00733933  1
  O  O376  1  0.85455913  0.97088165  0.50226539  1
  O  O377  1  0.88999619  0.98730805  0.98112759  1
  O  O378  1  0.12543335  0.01401101  0.00060605  1
  O  O379  1  0.11636441  0.00192348  0.50430537  1
  O  O380  1  0.12829602  0.51753510  -0.00945263  1
  O  O381  1  0.11795238  0.50482233  0.50261761  1
  O  O382  1  0.63250771  0.00534044  0.00756570  1
  O  O383  1  0.63500019  0.01811221  0.50902177  1
  O  O384  1  0.63412713  0.51402538  0.00757648  1
  O  O385  1  0.61942006  0.51639085  0.50566975  1
  O  O386  1  0.38523222  0.36514331  0.14413722  1
  O  O387  1  0.37208071  0.35390365  0.61308821  1
  O  O388  1  0.37911004  0.87310832  0.10421741  1
  O  O389  1  0.35514481  0.89184930  0.61288235  1
  O  O390  1  0.86714727  0.35916932  0.10044226  1
  O  O391  1  0.87296041  0.37253789  0.61939871  1
  O  O392  1  0.87296556  0.86402434  0.13311280  1
  O  O393  1  0.88368373  0.86455702  0.61498404  1
  O  O394  1  0.13573392  0.13673922  0.37783040  1
  O  O395  1  0.13216242  0.13233714  0.87847987  1
  O  O396  1  0.13688522  0.63334645  0.38663317  1
  O  O397  1  0.14189559  0.63989060  0.87966211  1
  O  O398  1  0.61996779  0.14361734  0.39433136  1
  O  O399  1  0.64248545  0.11517101  0.89221469  1
  O  O400  1  0.62914126  0.62871914  0.38592152  1
  O  O401  1  0.61931178  0.64141701  0.89057621  1
