# generated using pymatgen
data_V73Zn73O256
_symmetry_space_group_name_H-M   'P 1'
_cell_length_a   16.89501631
_cell_length_b   16.91793338
_cell_length_c   16.88453315
_cell_angle_alpha   90.13114755
_cell_angle_beta   89.82662841
_cell_angle_gamma   90.05460083
_symmetry_Int_Tables_number   1
_chemical_formula_structural   V73Zn73O256
_chemical_formula_sum   'V73 Zn73 O256'
_cell_volume   4826.04828257
_cell_formula_units_Z   1
loop_
 _symmetry_equiv_pos_site_id
 _symmetry_equiv_pos_as_xyz
  1  'x, y, z'
loop_
 _atom_site_type_symbol
 _atom_site_label
 _atom_site_symmetry_multiplicity
 _atom_site_fract_x
 _atom_site_fract_y
 _atom_site_fract_z
 _atom_site_occupancy
  V  V0  1  0.00070137  0.00264835  0.00885592  1
  V  V1  1  0.25872125  0.75410736  0.00133791  1
  V  V2  1  0.25284676  0.89734675  0.63235793  1
  V  V3  1  0.13207249  0.88947711  0.75571811  1
  V  V4  1  0.25209487  0.62021430  0.87962783  1
  V  V5  1  0.76196357  0.13456582  0.36323327  1
  V  V6  1  -0.00290504  0.74127816  0.74554436  1
  V  V7  1  0.74524923  0.50351770  0.24156825  1
  V  V8  1  0.88298339  0.51178843  0.36960795  1
  V  V9  1  0.49945415  0.61730248  0.12558696  1
  V  V10  1  0.24347643  0.87253680  0.12840708  1
  V  V11  1  0.13193175  0.75079322  0.87722436  1
  V  V12  1  -0.00635864  0.87393100  0.88319933  1
  V  V13  1  0.50302979  0.50088039  -0.00124604  1
  V  V14  1  0.37234192  0.00121313  0.89874766  1
  V  V15  1  -0.02160346  0.74852757  0.25536880  1
  V  V16  1  0.47368697  0.04426549  0.48390551  1
  V  V17  1  0.62618967  0.75752086  0.87228112  1
  V  V18  1  0.62506558  -0.01323334  0.12206320  1
  V  V19  1  -0.01309309  0.38300687  0.88827891  1
  V  V20  1  0.38063797  0.75344500  0.12365055  1
  V  V21  1  0.10709480  0.35911094  0.75685907  1
  V  V22  1  0.75524953  0.37900185  0.11382468  1
  V  V23  1  0.49670472  0.60614871  0.62037719  1
  V  V24  1  0.37826218  0.49031793  0.87194882  1
  V  V25  1  0.10627456  0.50695083  0.62050155  1
  V  V26  1  0.12228819  0.35587498  0.25312747  1
  V  V27  1  0.25729961  0.00607715  0.25556393  1
  V  V28  1  0.63252860  0.38563904  0.73311999  1
  V  V29  1  0.37441346  0.60979067  0.26280232  1
  V  V30  1  0.24277437  0.49502849  0.74456254  1
  V  V31  1  0.00249140  0.36021583  0.37411649  1
  V  V32  1  0.49737935  0.76535749  0.74355209  1
  V  V33  1  0.35991278  0.74792178  0.61832465  1
  V  V34  1  0.61584925  0.75815020  0.38182574  1
  V  V35  1  0.83050581  0.75954427  0.57346134  1
  V  V36  1  0.88166361  0.25277765  0.62847955  1
  V  V37  1  0.61633254  0.37470170  0.24378633  1
  V  V38  1  0.62293267  0.63538542  -0.00395363  1
  V  V39  1  0.76192256  0.26329484  0.49911619  1
  V  V40  1  0.36509301  0.12314136  0.72089931  1
  V  V41  1  0.23814066  0.50106970  0.27060495  1
  V  V42  1  0.51499964  0.36500828  0.86577466  1
  V  V43  1  0.38682763  0.35429684  0.00766719  1
  V  V44  1  0.64216339  0.12979307  0.51105783  1
  V  V45  1  0.37576051  0.62067187  0.74861854  1
  V  V46  1  -0.01263351  0.61693952  0.13172463  1
  V  V47  1  0.61669721  0.25648695  0.36550788  1
  V  V48  1  0.61988021  0.12439273  -0.00563034  1
  V  V49  1  0.37484802  0.87961455  0.48977880  1
  V  V50  1  0.24561676  0.35028302  0.63114781  1
  V  V51  1  0.22129416  0.37612842  0.09117108  1
  V  V52  1  0.75286307  0.51401027  0.73273513  1
  V  V53  1  0.88198846  0.14140734  0.22658681  1
  V  V54  1  0.15261598  0.75194724  0.37186422  1
  V  V55  1  0.15321276  0.16069323  0.44544456  1
  V  V56  1  0.87986421  0.38924600  0.50292759  1
  V  V57  1  0.24291691  0.13514897  0.88272883  1
  V  V58  1  0.87176459  0.86261278  0.02190493  1
  V  V59  1  0.50079640  0.13511602  0.13644833  1
  V  V60  1  0.87111256  0.51293081  0.89612900  1
  V  V61  1  0.75522882  0.23993992  -0.00871384  1
  V  V62  1  0.71659834  -0.03964682  0.74251348  1
  V  V63  1  0.12551433  0.61133326  0.01185045  1
  V  V64  1  0.12080904  0.64218992  0.50253547  1
  V  V65  1  0.61583164  0.60258097  0.50001862  1
  V  V66  1  0.02032278  0.08975044  0.62792266  1
  V  V67  1  0.75105110  -0.01332658  0.24411684  1
  V  V68  1  0.12626334  0.01095487  0.12211382  1
  V  V69  1  0.49280768  0.87912896  0.90306680  1
  V  V70  1  0.49858702  0.76429401  0.25387088  1
  V  V71  1  0.74135469  0.62143894  0.37828578  1
  V  V72  1  0.51930515  0.23832953  0.73477965  1
  Zn  Zn73  1  0.39571320  0.11503926  0.27675311  1
  Zn  Zn74  1  -0.05374980  0.21013658  0.78772536  1
  Zn  Zn75  1  0.89717647  0.00899352  0.36398562  1
  Zn  Zn76  1  0.84255291  0.05947316  0.82209934  1
  Zn  Zn77  1  0.05671041  0.19275674  0.16135416  1
  Zn  Zn78  1  0.89040706  0.26837707  0.11656172  1
  Zn  Zn79  1  0.08137835  0.89895995  0.29861126  1
  Zn  Zn80  1  0.41802025  0.42152943  0.42456111  1
  Zn  Zn81  1  0.77040750  0.64468665  0.85982967  1
  Zn  Zn82  1  0.25115333  0.21951676  0.22299578  1
  Zn  Zn83  1  0.17191681  0.16777090  0.70219282  1
  Zn  Zn84  1  0.19131725  0.68367213  0.19207130  1
  Zn  Zn85  1  0.18022186  0.68120875  0.69113253  1
  Zn  Zn86  1  0.68596884  0.19231176  0.17710830  1
  Zn  Zn87  1  0.68347195  0.19232244  0.81776436  1
  Zn  Zn88  1  0.68190448  0.69406863  0.19836488  1
  Zn  Zn89  1  0.68293502  0.69349798  0.68081553  1
  Zn  Zn90  1  0.32585917  0.24945687  0.37464403  1
  Zn  Zn91  1  0.32472690  0.30474748  0.79167903  1
  Zn  Zn92  1  0.31418142  0.81004779  0.30607115  1
  Zn  Zn93  1  0.31658623  0.81702902  0.81307930  1
  Zn  Zn94  1  0.81718293  0.32055382  0.30527044  1
  Zn  Zn95  1  0.80772081  0.33034936  0.81444466  1
  Zn  Zn96  1  0.81782095  0.80190132  0.35779895  1
  Zn  Zn97  1  0.84602980  0.85210004  0.74841413  1
  Zn  Zn98  1  0.22123374  0.38942541  0.41865558  1
  Zn  Zn99  1  0.18684960  0.42440591  0.93097710  1
  Zn  Zn100  1  0.19166352  0.95075870  0.44892388  1
  Zn  Zn101  1  0.19489535  0.94278164  0.94058470  1
  Zn  Zn102  1  0.68619310  0.43769222  0.43073618  1
  Zn  Zn103  1  0.69239096  0.45118082  0.93143113  1
  Zn  Zn104  1  0.60892475  0.93246460  0.47687631  1
  Zn  Zn105  1  0.69474719  0.94019260  0.93338201  1
  Zn  Zn106  1  0.31154881  0.07617599  0.06522681  1
  Zn  Zn107  1  0.29611455  0.07301275  0.54495065  1
  Zn  Zn108  1  0.31385354  0.55245958  0.06954406  1
  Zn  Zn109  1  0.28523677  0.53373185  0.52518692  1
  Zn  Zn110  1  0.81184808  0.05483399  0.05778228  1
  Zn  Zn111  1  0.75598887  0.11785350  0.66057436  1
  Zn  Zn112  1  0.78827909  0.61701055  0.07638148  1
  Zn  Zn113  1  0.81816269  0.57553286  0.55985507  1
  Zn  Zn114  1  0.43052104  0.43457983  0.19060986  1
  Zn  Zn115  1  0.42097821  0.41573136  0.59414286  1
  Zn  Zn116  1  0.43752320  0.94353888  0.17820147  1
  Zn  Zn117  1  0.45850248  0.95222062  0.66499309  1
  Zn  Zn118  1  0.93820495  0.44566894  0.19157161  1
  Zn  Zn119  1  0.93088147  0.44224090  0.69535415  1
  Zn  Zn120  1  0.94057010  0.94091735  0.20254710  1
  Zn  Zn121  1  0.87411972  0.96796155  0.63498562  1
  Zn  Zn122  1  0.06077903  0.06571955  0.29620167  1
  Zn  Zn123  1  0.03982346  0.07485079  0.82624349  1
  Zn  Zn124  1  0.06423674  0.58023979  0.31689755  1
  Zn  Zn125  1  0.05984009  0.55947776  0.81820135  1
  Zn  Zn126  1  0.57881503  0.05996252  0.31540983  1
  Zn  Zn127  1  0.56061603  0.04684966  0.81318312  1
  Zn  Zn128  1  0.55426734  0.55002855  0.31653457  1
  Zn  Zn129  1  0.56306887  0.56399800  0.80905352  1
  Zn  Zn130  1  0.45832851  0.23605498  0.49154074  1
  Zn  Zn131  1  0.44491752  0.17984427  0.92908144  1
  Zn  Zn132  1  0.43380797  0.68622064  0.44108438  1
  Zn  Zn133  1  0.44078741  0.68899523  0.93345026  1
  Zn  Zn134  1  0.95919859  0.17159968  0.44021997  1
  Zn  Zn135  1  0.95662188  0.19687674  0.96186434  1
  Zn  Zn136  1  0.94484523  0.69145394  0.44080847  1
  Zn  Zn137  1  0.94384172  0.68794580  0.94622019  1
  Zn  Zn138  1  0.05000308  0.34818469  0.06733321  1
  Zn  Zn139  1  0.06609534  0.31810954  0.56161548  1
  Zn  Zn140  1  0.05835771  0.80294346  0.07137047  1
  Zn  Zn141  1  0.07270686  0.81684010  0.57206691  1
  Zn  Zn142  1  0.56927078  0.31156192  0.06211819  1
  Zn  Zn143  1  0.57704940  0.32213758  0.55758030  1
  Zn  Zn144  1  0.69968227  0.80512060  0.06180936  1
  Zn  Zn145  1  0.55835103  0.79940765  0.56410637  1
  O  O146  1  0.12974300  0.10976842  0.12299561  1
  O  O147  1  0.12282491  0.09405646  0.63024119  1
  O  O148  1  0.14074415  0.62116911  0.11179006  1
  O  O149  1  0.12033188  0.61588874  0.62072661  1
  O  O150  1  0.62024048  0.11745719  0.11794649  1
  O  O151  1  0.65524590  0.14430207  0.60851104  1
  O  O152  1  0.60835772  0.63046412  0.10691554  1
  O  O153  1  0.60594027  0.62546377  0.61175198  1
  O  O154  1  0.32968108  0.35655832  0.39920021  1
  O  O155  1  0.38925616  0.37978626  0.87108902  1
  O  O156  1  0.36143533  0.86776969  0.39210723  1
  O  O157  1  0.38363502  0.88955408  0.87123146  1
  O  O158  1  0.88830188  0.39022347  0.37525979  1
  O  O159  1  0.87897763  0.39772187  0.87305095  1
  O  O160  1  0.84054898  0.91087467  0.40003644  1
  O  O161  1  0.89543276  0.87291549  0.88618256  1
  O  O162  1  0.24198828  -0.00729160  0.35275082  1
  O  O163  1  0.26782995  0.00551648  0.87754274  1
  O  O164  1  0.24480912  0.50100438  0.37001590  1
  O  O165  1  0.25755926  0.50355152  0.86905159  1
  O  O166  1  0.74510179  0.03091190  0.35139952  1
  O  O167  1  0.74100727  -0.00834180  0.84423813  1
  O  O168  1  0.75526509  0.50592806  0.36619683  1
  O  O169  1  0.76281836  0.51078006  0.86533343  1
  O  O170  1  0.25689174  0.47131855  0.12839312  1
  O  O171  1  0.24145296  0.49323062  0.64003440  1
  O  O172  1  0.24393813  0.98624769  0.12088144  1
  O  O173  1  0.26385341  0.99354151  0.63761100  1
  O  O174  1  0.75187435  0.50206240  0.13752756  1
  O  O175  1  0.75081829  0.51493278  0.63213504  1
  O  O176  1  0.74289120  1.00388596  0.13581636  1
  O  O177  1  0.75844591  1.00154071  0.65184121  1
  O  O178  1  0.01132563  0.38149151  0.26301689  1
  O  O179  1  0.00373600  0.37695985  0.75515159  1
  O  O180  1  0.00832130  0.84680100  0.22744101  1
  O  O181  1  0.02163959  0.86192094  0.77471838  1
  O  O182  1  0.51742545  0.37835545  0.23901944  1
  O  O183  1  0.51425593  0.36951810  0.75866303  1
  O  O184  1  0.49068731  0.86201536  0.24846476  1
  O  O185  1  0.49325836  0.86410035  0.73444805  1
  O  O186  1  0.50846805  0.11614513  0.24225891  1
  O  O187  1  0.53900299  0.14192962  0.75129937  1
  O  O188  1  0.48827508  0.61226861  0.24100377  1
  O  O189  1  0.48961569  0.62827718  0.74110804  1
  O  O190  1  0.98711737  0.13154296  0.23351803  1
  O  O191  1  1.00512426  0.13111941  0.72711978  1
  O  O192  1  0.99519870  0.63502657  0.24324083  1
  O  O193  1  1.01141448  0.64303843  0.76060492  1
  O  O194  1  0.38773838  0.25632076  -0.00698617  1
  O  O195  1  0.36991620  0.16646514  0.45531952  1
  O  O196  1  0.36731192  0.73840192  0.00944598  1
  O  O197  1  0.36921426  0.75201232  0.51472388  1
  O  O198  1  0.85757625  0.24817095  0.00108303  1
  O  O199  1  0.87327654  0.26681963  0.50037135  1
  O  O200  1  0.88030916  0.76289486  0.00528038  1
  O  O201  1  0.85729083  0.76371048  0.46916030  1
  O  O202  1  0.12079797  0.23231376  0.50980286  1
  O  O203  1  0.15268875  0.34904313  1.01591171  1
  O  O204  1  0.12585910  0.74787572  0.49702311  1
  O  O205  1  0.14192576  0.74003228  0.99451250  1
  O  O206  1  0.64351811  0.25881651  0.48304173  1
  O  O207  1  0.63903579  0.23464173  1.00613304  1
  O  O208  1  0.60488382  0.72873526  0.48180766  1
  O  O209  1  0.62039358  0.74344143  0.98756231  1
  O  O210  1  0.51223644  0.23460289  0.12797747  1
  O  O211  1  0.51705005  0.24915736  0.63569749  1
  O  O212  1  0.49259727  0.73585561  0.14341341  1
  O  O213  1  0.48831134  0.74073703  0.63546247  1
  O  O214  1  0.99930328  0.24884511  0.08279524  1
  O  O215  1  0.98158866  0.26284319  0.61959222  1
  O  O216  1  1.01109057  0.72805776  0.14034277  1
  O  O217  1  1.01168756  0.75893590  0.64674668  1
  O  O218  1  -0.01227447  0.26369203  0.37225046  1
  O  O219  1  -0.01648455  0.27702224  0.87998116  1
  O  O220  1  0.00711857  0.74822293  0.35692851  1
  O  O221  1  0.01829806  0.75950604  0.88488935  1
  O  O222  1  0.51973213  0.24921535  0.37724415  1
  O  O223  1  0.50551554  0.26202955  0.86809064  1
  O  O224  1  0.50118666  0.74392675  0.36277949  1
  O  O225  1  0.49125577  0.76770484  0.86217476  1
  O  O226  1  0.20130029  0.07312198  0.48498994  1
  O  O227  1  0.25095989  0.12731253  0.98469801  1
  O  O228  1  0.22318199  0.61946438  0.50689559  1
  O  O229  1  0.25035524  0.62701158  0.99257790  1
  O  O230  1  0.75351354  0.15145633  0.47969497  1
  O  O231  1  0.74710655  0.13487269  0.99768465  1
  O  O232  1  0.72661074  0.61489919  0.49011765  1
  O  O233  1  0.72314881  0.61919754  0.98177076  1
  O  O234  1  0.28601697  0.38538253  -0.00401578  1
  O  O235  1  0.23518102  0.36918682  0.53262828  1
  O  O236  1  0.25301282  0.86152401  0.01046851  1
  O  O237  1  0.25633455  0.88516472  0.52351126  1
  O  O238  1  0.73930297  0.38135077  0.01222946  1
  O  O239  1  0.76845096  0.37181404  0.48050834  1
  O  O240  1  0.76709676  0.87808353  -0.00033193  1
  O  O241  1  0.82557137  0.92418234  0.48168746  1
  O  O242  1  0.14001535  0.51963258  0.25484605  1
  O  O243  1  0.13137503  0.50204091  0.74619804  1
  O  O244  1  0.13508730  0.99070899  0.23352540  1
  O  O245  1  0.12019306  0.98472679  0.76658514  1
  O  O246  1  0.63672332  0.48592501  0.25564656  1
  O  O247  1  0.63214187  0.49287435  0.75453129  1
  O  O248  1  0.64025546  0.99896595  0.23738903  1
  O  O249  1  0.61631500  0.98134727  0.73929196  1
  O  O250  1  0.36523965  0.00435477  0.24643475  1
  O  O251  1  0.41182040  0.03158334  0.73456388  1
  O  O252  1  0.36334436  0.50351002  0.25152570  1
  O  O253  1  0.36381497  0.50949858  0.75848673  1
  O  O254  1  0.85955644  0.02262313  0.24105628  1
  O  O255  1  0.86593192  -0.03394819  0.75341097  1
  O  O256  1  0.85949584  0.49978842  0.26303449  1
  O  O257  1  0.85530141  0.50765998  0.74763066  1
  O  O258  1  0.11145436  0.37088398  0.37057299  1
  O  O259  1  0.10269211  0.38886979  0.86196421  1
  O  O260  1  0.14119641  0.85990006  0.38511215  1
  O  O261  1  0.13945246  0.86412937  0.87256450  1
  O  O262  1  0.63333538  0.36475253  0.35921685  1
  O  O263  1  0.61498239  0.38305642  0.87487803  1
  O  O264  1  0.62560795  0.85634213  0.38928562  1
  O  O265  1  0.60679206  0.86445955  0.88724919  1
  O  O266  1  0.40014563  0.11805522  0.12244908  1
  O  O267  1  0.35826988  0.13241247  0.62037791  1
  O  O268  1  0.38175765  0.63033913  0.13048534  1
  O  O269  1  0.38197497  0.63518554  0.63282853  1
  O  O270  1  0.86793980  0.13383810  0.12677272  1
  O  O271  1  0.86462852  0.15336967  0.62674445  1
  O  O272  1  0.88917853  0.61933613  0.12139342  1
  O  O273  1  0.86820700  0.66861698  0.60191797  1
  O  O274  1  0.25305537  0.29140864  0.13206931  1
  O  O275  1  0.22932527  0.25258451  0.64286425  1
  O  O276  1  0.25962372  0.75577350  0.12183100  1
  O  O277  1  0.26066864  0.74670505  0.63524758  1
  O  O278  1  0.75310049  0.26776790  0.11157762  1
  O  O279  1  0.76049219  0.26591121  0.59985922  1
  O  O280  1  0.74812883  0.72028340  0.11542450  1
  O  O281  1  0.73093006  0.75163913  0.59605908  1
  O  O282  1  0.21528556  0.20725057  0.38086583  1
  O  O283  1  0.26527901  0.23302999  0.86262755  1
  O  O284  1  0.25176004  0.74318449  0.37690214  1
  O  O285  1  0.25362775  0.73990585  0.88203082  1
  O  O286  1  0.75585852  0.24973857  0.37308377  1
  O  O287  1  0.74739722  0.26478734  0.88973262  1
  O  O288  1  0.72382347  0.73221077  0.36436735  1
  O  O289  1  0.72456399  0.75288325  0.86579240  1
  O  O290  1  0.00585230  0.10094182  0.00478786  1
  O  O291  1  -0.01175154  0.12081096  0.53510562  1
  O  O292  1  0.01922530  0.62990220  0.01624609  1
  O  O293  1  0.01706632  0.62600237  0.49840718  1
  O  O294  1  0.51651056  0.12725471  0.00920123  1
  O  O295  1  0.52891503  0.13868043  0.50152834  1
  O  O296  1  0.49996665  0.62006985  0.00531902  1
  O  O297  1  0.49941437  0.61884320  0.51144591  1
  O  O298  1  0.47392113  0.34612792  0.51310655  1
  O  O299  1  0.50011018  0.38001493  0.98735321  1
  O  O300  1  0.47346861  0.86323230  0.50261116  1
  O  O301  1  0.48720369  0.86835146  0.99729245  1
  O  O302  1  0.99016046  0.37811747  0.48487359  1
  O  O303  1  0.99044171  0.39735748  0.98651855  1
  O  O304  1  1.02171031  0.90109226  0.49948528  1
  O  O305  1  0.99636870  0.87236520  0.99958956  1
  O  O306  1  0.49735829  0.47058749  0.36707689  1
  O  O307  1  0.49289555  0.49188936  0.87558750  1
  O  O308  1  0.52868945  0.99985610  0.40815543  1
  O  O309  1  0.49222620  0.98587076  0.88321323  1
  O  O310  1  0.98376496  0.51046530  0.36668814  1
  O  O311  1  0.98045891  0.49853109  0.86941295  1
  O  O312  1  0.99249229  0.97458256  0.31459798  1
  O  O313  1  1.01836537  0.97910269  0.89738552  1
  O  O314  1  0.01807665  -0.01064629  0.12080822  1
  O  O315  1  -0.01220784  -0.00652181  0.63442529  1
  O  O316  1  0.00838396  0.51670889  0.13829443  1
  O  O317  1  0.00733862  0.49939687  0.63250856  1
  O  O318  1  0.52056714  0.00414469  0.12689448  1
  O  O319  1  0.50312447  0.00505914  0.57369443  1
  O  O320  1  0.49044895  0.50749859  0.11134444  1
  O  O321  1  0.49049770  0.50929135  0.63372193  1
  O  O322  1  0.22250352  0.38797445  0.26502390  1
  O  O323  1  0.22942001  0.37946054  0.75561724  1
  O  O324  1  0.25911885  0.88206673  0.23307626  1
  O  O325  1  0.24326920  0.87400055  0.74589567  1
  O  O326  1  0.74583632  0.38692280  0.23834424  1
  O  O327  1  0.73762540  0.39457228  0.74930518  1
  O  O328  1  0.76491623  0.89181038  0.26099077  1
  O  O329  1  0.72889426  0.86012228  0.74005298  1
  O  O330  1  0.24291899  0.10388389  0.23530617  1
  O  O331  1  0.26753976  0.11919176  0.75529917  1
  O  O332  1  0.26708033  0.61175921  0.24345232  1
  O  O333  1  0.25556312  0.61815684  0.76130001  1
  O  O334  1  0.76348112  0.14378653  0.25370454  1
  O  O335  1  0.76714255  0.13446845  0.77172172  1
  O  O336  1  0.73383573  0.60928954  0.26151542  1
  O  O337  1  0.73148557  0.61862841  0.75249795  1
  O  O338  1  0.41152208  0.10729169  0.40632036  1
  O  O339  1  0.37792784  0.10637915  0.87303549  1
  O  O340  1  0.37936197  0.62341639  0.36115050  1
  O  O341  1  0.37072642  0.61690085  0.86787367  1
  O  O342  1  0.87346706  0.12584880  0.36720760  1
  O  O343  1  0.92968413  0.12219592  0.86583663  1
  O  O344  1  0.85894520  0.61532043  0.38567669  1
  O  O345  1  0.87964936  0.62073892  0.88092069  1
  O  O346  1  0.12011910  0.38960033  0.15282312  1
  O  O347  1  0.12434518  0.38378791  0.64407391  1
  O  O348  1  0.14265420  0.86705037  0.12436712  1
  O  O349  1  0.14165144  0.87839645  0.64323713  1
  O  O350  1  0.63883020  0.37396116  0.13549116  1
  O  O351  1  0.62622396  0.38795342  0.63390361  1
  O  O352  1  0.63219777  0.88787751  0.11108353  1
  O  O353  1  0.62608540  0.88485527  0.57650061  1
  O  O354  1  0.12910544  0.25417685  0.23803795  1
  O  O355  1  0.11436128  0.26054843  0.75503307  1
  O  O356  1  0.13743060  0.74649324  0.26871364  1
  O  O357  1  0.12696658  0.75279400  0.76670820  1
  O  O358  1  0.63165996  0.26232203  0.25551154  1
  O  O359  1  0.62632764  0.27339724  0.75366066  1
  O  O360  1  0.60469045  0.74497347  0.26218475  1
  O  O361  1  0.60251272  0.74417046  0.75901838  1
  O  O362  1  0.35347502  0.21813354  0.27066922  1
  O  O363  1  0.40476659  0.22264543  0.75117697  1
  O  O364  1  0.38370870  0.73542965  0.24516737  1
  O  O365  1  0.38190537  0.74108627  0.74600319  1
  O  O366  1  0.87825452  0.24668797  0.23672088  1
  O  O367  1  0.86888699  0.27649292  0.73205064  1
  O  O368  1  0.87878049  0.75762106  0.26798860  1
  O  O369  1  0.89809154  0.75412195  0.76649551  1
  O  O370  1  0.37996278  0.48571015  0.51324953  1
  O  O371  1  0.38789254  0.49945598  0.98582604  1
  O  O372  1  0.37356299  0.99072705  0.49756082  1
  O  O373  1  0.37386172  0.99911911  0.99734217  1
  O  O374  1  0.86839123  0.49459683  0.48652340  1
  O  O375  1  0.86150455  0.51144985  0.99273788  1
  O  O376  1  0.86751491  0.98626621  0.50636748  1
  O  O377  1  0.89386357  0.98648244  1.00960966  1
  O  O378  1  0.12007986  -0.01327427  0.01637448  1
  O  O379  1  0.06484955  -0.03760549  0.48941528  1
  O  O380  1  0.13457589  0.51486739  -0.00859834  1
  O  O381  1  0.12251300  0.49472679  0.52335202  1
  O  O382  1  0.64248532  0.01472750  0.01154525  1
  O  O383  1  0.65902687  0.03385555  0.49446861  1
  O  O384  1  0.60814847  0.51636063  -0.01489408  1
  O  O385  1  0.61610278  0.50260450  0.49752321  1
  O  O386  1  0.39748583  0.36568447  0.10658364  1
  O  O387  1  0.34600082  0.36031643  0.65923153  1
  O  O388  1  0.37139686  0.85855783  0.12718960  1
  O  O389  1  0.36456615  0.86279557  0.62728229  1
  O  O390  1  0.86067039  0.38354441  0.12869977  1
  O  O391  1  0.87803756  0.38263048  0.60448686  1
  O  O392  1  0.87903598  0.87575751  0.12050893  1
  O  O393  1  0.86647240  0.84360994  0.62271544  1
  O  O394  1  0.07077199  0.12575768  0.39119719  1
  O  O395  1  0.14413822  0.12134691  0.86082089  1
  O  O396  1  0.12612718  0.64265140  0.38998900  1
  O  O397  1  0.13751760  0.63117682  0.88467211  1
  O  O398  1  0.64273075  0.14535801  0.37233818  1
  O  O399  1  0.62039915  0.12010429  0.89021220  1
  O  O400  1  0.62127753  0.61706026  0.38535286  1
  O  O401  1  0.59965484  0.64591789  0.88406200  1
