# generated using pymatgen
data_V73Zn73O256
_symmetry_space_group_name_H-M   'P 1'
_cell_length_a   16.80773253
_cell_length_b   16.85684586
_cell_length_c   16.87826352
_cell_angle_alpha   90.11938456
_cell_angle_beta   90.09750753
_cell_angle_gamma   90.02545745
_symmetry_Int_Tables_number   1
_chemical_formula_structural   V73Zn73O256
_chemical_formula_sum   'V73 Zn73 O256'
_cell_volume   4782.02224224
_cell_formula_units_Z   1
loop_
 _symmetry_equiv_pos_site_id
 _symmetry_equiv_pos_as_xyz
  1  'x, y, z'
loop_
 _atom_site_type_symbol
 _atom_site_label
 _atom_site_symmetry_multiplicity
 _atom_site_fract_x
 _atom_site_fract_y
 _atom_site_fract_z
 _atom_site_occupancy
  V  V0  1  0.25612718  0.24772646  0.50672592  1
  V  V1  1  0.00035914  0.86994365  0.36442953  1
  V  V2  1  0.75431843  0.62459044  0.87030593  1
  V  V3  1  0.75173564  0.00530004  0.75559886  1
  V  V4  1  0.37069385  0.12350732  0.24529737  1
  V  V5  1  0.36344267  0.62210115  0.25467633  1
  V  V6  1  0.12457160  -0.00233034  0.14547174  1
  V  V7  1  0.38019690  0.24824221  0.13582895  1
  V  V8  1  0.37885902  0.36220113  0.00159698  1
  V  V9  1  0.62996786  0.13057823  -0.00246766  1
  V  V10  1  0.49286878  0.36708649  0.37255201  1
  V  V11  1  0.38223449  0.49274961  0.89064296  1
  V  V12  1  0.12525843  0.12540155  0.49969404  1
  V  V13  1  0.12806322  0.38673898  0.75405036  1
  V  V14  1  0.38065660  0.87306969  0.49212169  1
  V  V15  1  0.50219129  -0.00197229  0.48419373  1
  V  V16  1  0.86726392  0.86827175  0.49691445  1
  V  V17  1  0.87312766  0.00585995  0.36791835  1
  V  V18  1  0.12273886  0.74880180  0.37061883  1
  V  V19  1  0.38540854  0.23743422  0.63631010  1
  V  V20  1  -0.00390455  0.48701331  0.51303512  1
  V  V21  1  0.62022953  0.39038460  0.75364181  1
  V  V22  1  -0.00183678  0.25577404  0.75276439  1
  V  V23  1  0.12820455  0.62308159  0.50982550  1
  V  V24  1  -0.01425166  0.23340154  0.23553653  1
  V  V25  1  0.63295456  0.63886719  0.00422318  1
  V  V26  1  0.50157906  0.75955095  0.24814090  1
  V  V27  1  0.25766940  0.11140782  0.86298301  1
  V  V28  1  0.38208626  0.60967513  0.74567806  1
  V  V29  1  0.24318880  0.38923740  0.13806640  1
  V  V30  1  0.74232709  -0.00901633  0.24863644  1
  V  V31  1  -0.00078734  0.36989458  0.35528217  1
  V  V32  1  0.12872563  0.62991009  -0.00037487  1
  V  V33  1  0.62033266  0.36548804  0.25479160  1
  V  V34  1  0.74912932  0.13791422  0.36716713  1
  V  V35  1  0.75473865  0.24770677  -0.01544482  1
  V  V36  1  0.62299693  0.49684278  0.11736734  1
  V  V37  1  0.61809819  0.00522893  0.62597888  1
  V  V38  1  0.62259229  0.61840073  0.50510712  1
  V  V39  1  -0.01435782  0.88649378  0.88739873  1
  V  V40  1  0.11945047  0.10904780  0.00313564  1
  V  V41  1  0.76209223  0.36545290  0.12091263  1
  V  V42  1  0.25388140  0.38501488  0.63199158  1
  V  V43  1  0.75535991  0.50191379  0.24829875  1
  V  V44  1  0.87668789  0.48967181  0.87130087  1
  V  V45  1  0.00852663  0.49901360  0.00470960  1
  V  V46  1  0.13116660  0.75756018  0.86845701  1
  V  V47  1  0.61920119  0.13656521  0.49662431  1
  V  V48  1  0.24890208  0.75039177  0.50584422  1
  V  V49  1  0.48916458  0.00784460  0.00572139  1
  V  V50  1  0.12991774  0.24873739  0.36692747  1
  V  V51  1  0.76625464  0.25268679  0.51229664  1
  V  V52  1  0.75194359  0.63386811  0.37527912  1
  V  V53  1  -0.00414367  0.76204444  0.75048102  1
  V  V54  1  0.13346605  0.25079972  0.88220315  1
  V  V55  1  0.75011249  0.39327887  0.62613770  1
  V  V56  1  -0.00313374  0.00055957  0.50228191  1
  V  V57  1  0.37357673  0.84947693  0.00294231  1
  V  V58  1  0.49496584  0.49919317  0.50140217  1
  V  V59  1  -0.00223592  0.62646885  0.62939869  1
  V  V60  1  0.12866655  -0.00356951  0.63655382  1
  V  V61  1  0.61910409  0.75830635  0.37386654  1
  V  V62  1  0.87059515  0.12958924  0.75831824  1
  V  V63  1  0.51124710  0.24065885  0.77550673  1
  V  V64  1  0.87717530  0.49751049  0.37062169  1
  V  V65  1  0.62372128  0.75747363  0.86129897  1
  V  V66  1  0.50273118  0.87710575  0.86994375  1
  V  V67  1  0.90146937  0.74351821  0.13050393  1
  V  V68  1  0.62353006  -0.00582253  0.12744514  1
  V  V69  1  0.49225554  0.62768992  0.12270313  1
  V  V70  1  0.74442429  0.87262746  0.62671508  1
  V  V71  1  0.39308721  0.74908910  0.63100695  1
  V  V72  1  0.35179053  0.00173237  0.36753980  1
  Zn  Zn73  1  0.24875342  0.89051809  0.10026146  1
  Zn  Zn74  1  0.85402987  0.86262255  0.01066961  1
  Zn  Zn75  1  0.89404903  0.36637529  -0.00174111  1
  Zn  Zn76  1  -0.01132730  0.13286807  0.62169224  1
  Zn  Zn77  1  0.36753273  0.49857428  0.37002307  1
  Zn  Zn78  1  0.24677232  0.60773288  0.86306933  1
  Zn  Zn79  1  0.86475463  0.61940491  0.74114597  1
  Zn  Zn80  1  0.86637273  0.74799417  0.62237678  1
  Zn  Zn81  1  0.25003000  0.87981868  0.63004250  1
  Zn  Zn82  1  0.19719653  0.18638409  0.17936538  1
  Zn  Zn83  1  0.18292498  0.18531766  0.68915184  1
  Zn  Zn84  1  0.15203681  0.63451884  0.20951048  1
  Zn  Zn85  1  0.19138040  0.68718705  0.69181239  1
  Zn  Zn86  1  0.68352466  0.18355740  0.17858165  1
  Zn  Zn87  1  0.68208088  0.18928418  0.68857453  1
  Zn  Zn88  1  0.68944956  0.68810964  0.18966141  1
  Zn  Zn89  1  0.68029011  0.68568373  0.68895510  1
  Zn  Zn90  1  0.30967558  0.31003026  0.31090917  1
  Zn  Zn91  1  0.31567772  0.30888408  0.81238638  1
  Zn  Zn92  1  0.32106764  0.79539116  0.32428862  1
  Zn  Zn93  1  0.32227536  0.82022159  0.81302704  1
  Zn  Zn94  1  0.81407607  0.31378139  0.30873887  1
  Zn  Zn95  1  0.80294706  0.31478140  0.80446996  1
  Zn  Zn96  1  0.80335033  0.79951838  0.27458608  1
  Zn  Zn97  1  0.80924343  0.80963264  0.81091834  1
  Zn  Zn98  1  0.17663247  0.42572534  0.45441537  1
  Zn  Zn99  1  0.19917998  0.43591631  0.94034759  1
  Zn  Zn100  1  0.18416555  0.93166419  0.44311835  1
  Zn  Zn101  1  0.18565837  0.93390854  0.92866070  1
  Zn  Zn102  1  0.68611254  0.43406908  0.43952229  1
  Zn  Zn103  1  0.68766188  0.43784552  0.93590230  1
  Zn  Zn104  1  0.68817069  0.94331045  0.43543038  1
  Zn  Zn105  1  0.69993381  0.93856205  0.94972174  1
  Zn  Zn106  1  0.29772360  0.07412725  0.05729923  1
  Zn  Zn107  1  0.31377079  0.06325429  0.56149023  1
  Zn  Zn108  1  0.30248787  0.56245406  0.05785001  1
  Zn  Zn109  1  0.32038522  0.56396846  0.56358457  1
  Zn  Zn110  1  0.81620492  0.05555502  0.05649763  1
  Zn  Zn111  1  0.80932779  0.06689982  0.56552015  1
  Zn  Zn112  1  0.81930898  0.56602116  0.05875057  1
  Zn  Zn113  1  0.81399836  0.56293725  0.55418671  1
  Zn  Zn114  1  0.43593425  0.43973578  0.18605060  1
  Zn  Zn115  1  0.44179778  0.42487106  0.68559202  1
  Zn  Zn116  1  0.43117187  0.93920430  0.18350388  1
  Zn  Zn117  1  0.43989582  0.93311788  0.68070587  1
  Zn  Zn118  1  0.95788802  0.57353806  0.18977495  1
  Zn  Zn119  1  0.93167153  0.43228294  0.69151207  1
  Zn  Zn120  1  0.93505136  0.94456612  0.17749081  1
  Zn  Zn121  1  0.93100002  0.94518618  0.68659624  1
  Zn  Zn122  1  0.06547533  0.06247424  0.31246260  1
  Zn  Zn123  1  0.05814754  0.06759566  0.81715839  1
  Zn  Zn124  1  0.08574017  0.54306170  0.33856431  1
  Zn  Zn125  1  0.05718713  0.56780635  0.81882127  1
  Zn  Zn126  1  0.56082916  0.07198005  0.30961529  1
  Zn  Zn127  1  0.56378530  0.06107209  0.81934572  1
  Zn  Zn128  1  0.56190544  0.55973591  0.31140359  1
  Zn  Zn129  1  0.55669755  0.56467529  0.81236164  1
  Zn  Zn130  1  0.43561084  0.18378066  0.43111080  1
  Zn  Zn131  1  0.43414465  0.18359472  0.94096753  1
  Zn  Zn132  1  0.43835478  0.68210083  0.43393184  1
  Zn  Zn133  1  0.44340009  0.67908947  0.93061969  1
  Zn  Zn134  1  0.93802916  0.18840193  0.43279625  1
  Zn  Zn135  1  0.93960961  0.18594344  0.93503146  1
  Zn  Zn136  1  0.93882941  0.68437916  0.43672464  1
  Zn  Zn137  1  0.93995892  0.69063025  0.94479583  1
  Zn  Zn138  1  0.06464728  0.31662178  0.06513017  1
  Zn  Zn139  1  0.06876795  0.30913519  0.57386428  1
  Zn  Zn140  1  0.06329400  0.81706784  0.06051331  1
  Zn  Zn141  1  0.05933161  0.81575537  0.56521681  1
  Zn  Zn142  1  0.55880948  0.31029649  0.06045602  1
  Zn  Zn143  1  0.56404234  0.32238522  0.56392953  1
  Zn  Zn144  1  0.56197522  0.81786855  0.06369646  1
  Zn  Zn145  1  0.56857040  0.81232153  0.55295660  1
  O  O146  1  0.13256346  0.11434530  0.11254320  1
  O  O147  1  0.11709021  0.11546734  0.61381117  1
  O  O148  1  0.13476544  0.63949970  0.09783501  1
  O  O149  1  0.11401129  0.63006683  0.61810111  1
  O  O150  1  0.62603289  0.11176338  0.11324493  1
  O  O151  1  0.63124022  0.11302699  0.60756074  1
  O  O152  1  0.62879721  0.61774847  0.11753936  1
  O  O153  1  0.63194473  0.63067030  0.60392048  1
  O  O154  1  0.38820048  0.37858122  0.36466479  1
  O  O155  1  0.37156046  0.37689350  0.89136592  1
  O  O156  1  0.36899745  0.88535887  0.38229160  1
  O  O157  1  0.39465146  0.86638053  0.88934321  1
  O  O158  1  0.88937272  0.38137839  0.37109893  1
  O  O159  1  0.86302404  0.38760551  0.87721463  1
  O  O160  1  0.88183907  0.88285283  0.38579147  1
  O  O161  1  0.88270739  0.86453083  0.87811486  1
  O  O162  1  0.25276613  -0.00256207  0.37746327  1
  O  O163  1  0.24275536  0.01051412  0.86956967  1
  O  O164  1  0.24256923  0.49126808  0.38216801  1
  O  O165  1  0.27283897  0.49315255  0.86908014  1
  O  O166  1  0.75353872  0.01266564  0.36823104  1
  O  O167  1  0.72730374  -0.00786402  0.84956359  1
  O  O168  1  0.76031184  0.49591680  0.36803717  1
  O  O169  1  0.76014359  0.51585536  0.88449284  1
  O  O170  1  0.25347314  0.49262140  0.13086295  1
  O  O171  1  0.25791297  0.48385940  0.61796234  1
  O  O172  1  0.23689624  1.00251689  0.12161608  1
  O  O173  1  0.23256485  1.00197509  0.61433408  1
  O  O174  1  0.74379455  0.49382867  0.13023507  1
  O  O175  1  0.74683761  0.49317172  0.61412238  1
  O  O176  1  0.74288716  1.00548336  0.14398260  1
  O  O177  1  0.73886132  0.99331737  0.62836347  1
  O  O178  1  0.00715796  0.36602621  0.25842916  1
  O  O179  1  0.01155435  0.36596489  0.74631774  1
  O  O180  1  -0.00551740  0.88020763  0.26763129  1
  O  O181  1  -0.01065323  0.86432510  0.75037132  1
  O  O182  1  0.51278114  0.38175947  0.25729197  1
  O  O183  1  0.51378438  0.35806378  0.74305285  1
  O  O184  1  0.49410130  0.85852732  0.24023562  1
  O  O185  1  0.49796976  0.88946391  0.77076790  1
  O  O186  1  0.47573091  0.11847706  0.25561469  1
  O  O187  1  0.50672350  0.13910152  0.75873474  1
  O  O188  1  0.49673678  0.63045563  0.23770099  1
  O  O189  1  0.48148373  0.63346011  0.75568874  1
  O  O190  1  0.99786661  0.13503027  0.25654046  1
  O  O191  1  0.98736741  0.13444217  0.74964397  1
  O  O192  1  1.05368248  0.58886942  0.24375588  1
  O  O193  1  0.99600372  0.63001421  0.73827333  1
  O  O194  1  0.37559363  0.25660618  0.01226195  1
  O  O195  1  0.35858427  0.24292673  0.50066680  1
  O  O196  1  0.38093776  0.74998425  0.00191596  1
  O  O197  1  0.36985657  0.75240925  0.50210363  1
  O  O198  1  0.86170220  0.25297733  -0.00851494  1
  O  O199  1  0.86595133  0.24781391  0.50079618  1
  O  O200  1  0.87793515  0.74545059  0.02176618  1
  O  O201  1  0.87677298  0.76527815  0.49951345  1
  O  O202  1  0.12786054  0.24072349  0.49877144  1
  O  O203  1  0.12116420  0.25222992  0.98310588  1
  O  O204  1  0.13010422  0.74319996  0.50434633  1
  O  O205  1  0.11645018  0.74144236  0.97860773  1
  O  O206  1  0.62736214  0.23722870  0.50368192  1
  O  O207  1  0.63225627  0.23829411  1.00885117  1
  O  O208  1  0.61718176  0.73355118  0.48238996  1
  O  O209  1  0.62680818  0.74032595  1.00271690  1
  O  O210  1  0.48201845  0.25395825  0.12689952  1
  O  O211  1  0.48201910  0.25450103  0.61010953  1
  O  O212  1  0.51259154  0.73737593  0.13649102  1
  O  O213  1  0.49227044  0.75482924  0.61769491  1
  O  O214  1  1.00889156  0.25087107  0.13906272  1
  O  O215  1  1.00465304  0.24731014  0.64439909  1
  O  O216  1  1.00318074  0.74465792  0.12742262  1
  O  O217  1  0.99598601  0.74530231  0.63439653  1
  O  O218  1  0.00393828  0.25724831  0.36686175  1
  O  O219  1  0.01218774  0.24855075  0.86142599  1
  O  O220  1  0.00574959  0.76138430  0.38183626  1
  O  O221  1  0.00037531  0.75357803  0.86023463  1
  O  O222  1  0.49697250  0.26636905  0.38040791  1
  O  O223  1  0.50160380  0.25070410  0.87468173  1
  O  O224  1  0.50976291  0.74679716  0.36371209  1
  O  O225  1  0.51445700  0.76050053  0.88388704  1
  O  O226  1  0.23788296  0.13713515  0.50290805  1
  O  O227  1  0.23024713  0.12737175  0.98208544  1
  O  O228  1  0.23474084  0.63024601  0.51172980  1
  O  O229  1  0.23578620  0.61968929  0.98282548  1
  O  O230  1  0.74251069  0.13520993  0.49189236  1
  O  O231  1  0.74459063  0.13998138  1.00714788  1
  O  O232  1  0.73857945  0.61807049  0.48312167  1
  O  O233  1  0.73803016  0.62529194  0.99268934  1
  O  O234  1  0.27003663  0.38364163  0.01659045  1
  O  O235  1  0.23868455  0.35756790  0.51992525  1
  O  O236  1  0.27055493  0.87272072  -0.01507200  1
  O  O237  1  0.26049300  0.86678674  0.50330360  1
  O  O238  1  0.74087423  0.36259935  0.01035910  1
  O  O239  1  0.74132513  0.35979575  0.50984781  1
  O  O240  1  0.73835477  0.84770320  0.00411643  1
  O  O241  1  0.76126172  0.88311596  0.50644460  1
  O  O242  1  0.19642407  0.50626723  0.31664669  1
  O  O243  1  0.11833863  0.48555592  0.76067461  1
  O  O244  1  0.13270984  0.99983454  0.24678534  1
  O  O245  1  0.11754519  1.00751016  0.73414203  1
  O  O246  1  0.63672791  0.49271396  0.24008413  1
  O  O247  1  0.61031575  0.49096654  0.74261043  1
  O  O248  1  0.63142256  1.00945347  0.24170027  1
  O  O249  1  0.62919219  1.01123825  0.73044957  1
  O  O250  1  0.36993737  0.00083546  0.26109794  1
  O  O251  1  0.34281129  -0.02875451  0.74048136  1
  O  O252  1  0.37898120  0.51766076  0.24915872  1
  O  O253  1  0.38048772  0.50801699  0.74049926  1
  O  O254  1  0.86178105  -0.00324873  0.26075172  1
  O  O255  1  0.86026755  0.00863810  0.75277709  1
  O  O256  1  0.87190217  0.50630694  0.26227328  1
  O  O257  1  0.87576563  0.50420754  0.76581317  1
  O  O258  1  0.10785447  0.35916399  0.38614552  1
  O  O259  1  0.13710988  0.36332938  0.86275761  1
  O  O260  1  0.10994902  0.86398713  0.38326118  1
  O  O261  1  0.10471914  0.86247823  0.87812462  1
  O  O262  1  0.62330383  0.37652604  0.35853612  1
  O  O263  1  0.63281656  0.38261588  0.85510686  1
  O  O264  1  0.63148179  0.85674909  0.38513606  1
  O  O265  1  0.61897633  0.86286226  0.88214889  1
  O  O266  1  0.36824661  0.13519677  0.13352691  1
  O  O267  1  0.37373088  0.13730186  0.62401073  1
  O  O268  1  0.38990820  0.62148237  0.12470238  1
  O  O269  1  0.37544091  0.63974973  0.63271497  1
  O  O270  1  0.90393465  0.09756200  0.10807008  1
  O  O271  1  0.87597329  0.11694107  0.64245326  1
  O  O272  1  0.88089262  0.63083875  0.12914164  1
  O  O273  1  0.88023815  0.62956641  0.62152508  1
  O  O274  1  0.26759830  0.26332478  0.12970757  1
  O  O275  1  0.25731713  0.24871992  0.61860007  1
  O  O276  1  0.24396099  0.79719924  0.18001871  1
  O  O277  1  0.25582807  0.75649912  0.61696011  1
  O  O278  1  0.75086936  0.26278691  0.12318322  1
  O  O279  1  0.75134074  0.24399269  0.61234546  1
  O  O280  1  0.77815655  0.75231627  0.16840315  1
  O  O281  1  0.74565281  0.76818896  0.63102182  1
  O  O282  1  0.23564064  0.26108015  0.39057772  1
  O  O283  1  0.23759147  0.24223267  0.86832295  1
  O  O284  1  0.23466187  0.75421339  0.39276162  1
  O  O285  1  0.23123345  0.76811230  0.85680585  1
  O  O286  1  0.75557303  0.24190008  0.38348551  1
  O  O287  1  0.74402813  0.25465224  0.88639723  1
  O  O288  1  0.74312744  0.73741236  0.36389507  1
  O  O289  1  0.73504830  0.73936171  0.87190042  1
  O  O290  1  0.01911952  0.13115099  -0.00724814  1
  O  O291  1  0.00312897  0.11644136  0.49938483  1
  O  O292  1  0.01589310  0.61429125  -0.01373747  1
  O  O293  1  0.00509327  0.62127435  0.51276836  1
  O  O294  1  0.51107065  0.11346060  -0.00176590  1
  O  O295  1  0.51337269  0.11776886  0.49063082  1
  O  O296  1  0.51479795  0.62888639  0.01530601  1
  O  O297  1  0.51150139  0.61307825  0.49190352  1
  O  O298  1  0.51261861  0.38767427  0.48076682  1
  O  O299  1  0.48034082  0.37890077  1.01195930  1
  O  O300  1  0.49051575  0.88293784  0.49911772  1
  O  O301  1  0.48893043  0.88384132  0.99933603  1
  O  O302  1  1.00581365  0.38666699  0.51211805  1
  O  O303  1  1.00723490  0.39031468  0.99549257  1
  O  O304  1  0.98690561  0.88387211  0.49727351  1
  O  O305  1  0.98988336  0.87651361  0.98929836  1
  O  O306  1  0.49803679  0.49051819  0.37819852  1
  O  O307  1  0.48190555  0.49644886  0.86804069  1
  O  O308  1  0.50116681  0.99763939  0.38291242  1
  O  O309  1  0.51320375  0.98596637  0.89499386  1
  O  O310  1  0.99853978  0.48231647  0.38550820  1
  O  O311  1  0.98188086  0.50406799  0.87891350  1
  O  O312  1  0.99354017  0.99137467  0.38194632  1
  O  O313  1  0.99635818  0.98402871  0.86533791  1
  O  O314  1  0.02127863  0.00042512  0.13168280  1
  O  O315  1  0.00726728  -0.00128816  0.61391602  1
  O  O316  1  -0.00037871  0.50490155  0.10291602  1
  O  O317  1  -0.00999298  0.50738513  0.61716721  1
  O  O318  1  0.50947236  -0.00252832  0.11553615  1
  O  O319  1  0.51286178  -0.00527420  0.61364340  1
  O  O320  1  0.51713434  0.51386428  0.13243962  1
  O  O321  1  0.49354682  0.48562217  0.60064646  1
  O  O322  1  0.25428181  0.37676005  0.24052675  1
  O  O323  1  0.24159179  0.37058950  0.74203562  1
  O  O324  1  0.24766485  0.84278586  0.24189935  1
  O  O325  1  0.28731549  0.91287917  0.74458380  1
  O  O326  1  0.74392865  0.38144940  0.23890481  1
  O  O327  1  0.73589995  0.37584053  0.73638325  1
  O  O328  1  0.74101732  0.89335958  0.26528119  1
  O  O329  1  0.75709197  0.88812251  0.73293338  1
  O  O330  1  0.26682493  0.12846491  0.25421932  1
  O  O331  1  0.24642753  0.12742376  0.76134903  1
  O  O332  1  0.26596434  0.63706196  0.23304981  1
  O  O333  1  0.27255393  0.63637088  0.75273656  1
  O  O334  1  0.74284021  0.12560852  0.26499795  1
  O  O335  1  0.75662126  0.11724824  0.74551920  1
  O  O336  1  0.74260359  0.60925727  0.26539344  1
  O  O337  1  0.74432221  0.62441317  0.76506250  1
  O  O338  1  0.37126943  0.10709672  0.37173228  1
  O  O339  1  0.35746581  0.12694691  0.88146536  1
  O  O340  1  0.36816286  0.62537740  0.36029519  1
  O  O341  1  0.37515224  0.61135551  0.86631528  1
  O  O342  1  0.86094382  0.11643751  0.38059249  1
  O  O343  1  0.87459481  0.12373896  0.85920213  1
  O  O344  1  0.86071212  0.61741123  0.38219384  1
  O  O345  1  0.85980992  0.62856841  0.87689153  1
  O  O346  1  0.14455806  0.37303636  0.12130993  1
  O  O347  1  0.13839528  0.37225759  0.64239958  1
  O  O348  1  0.13135516  0.89130288  0.11429448  1
  O  O349  1  0.12671201  0.89001585  0.62177811  1
  O  O350  1  0.62635880  0.38741503  0.13019936  1
  O  O351  1  0.63801039  0.37029113  0.63366422  1
  O  O352  1  0.62586772  0.89334569  0.12346772  1
  O  O353  1  0.63684934  0.88755206  0.61215673  1
  O  O354  1  0.12452485  0.24175323  0.26631131  1
  O  O355  1  0.11468755  0.25464444  0.75804560  1
  O  O356  1  0.12806450  0.73761028  0.27397015  1
  O  O357  1  0.10753039  0.74824909  0.75448083  1
  O  O358  1  0.62872891  0.26724608  0.23964712  1
  O  O359  1  0.61536207  0.25314321  0.75254689  1
  O  O360  1  0.61497061  0.74449934  0.26217159  1
  O  O361  1  0.61900648  0.75044183  0.76202200  1
  O  O362  1  0.37659770  0.23825908  0.24665477  1
  O  O363  1  0.39407272  0.25237122  0.74274845  1
  O  O364  1  0.39291873  0.73709462  0.25509369  1
  O  O365  1  0.37931610  0.76186633  0.73119433  1
  O  O366  1  0.88621712  0.25069924  0.24747882  1
  O  O367  1  0.88409608  0.24376408  0.75765583  1
  O  O368  1  0.89422867  0.74257546  0.24350992  1
  O  O369  1  0.88355854  0.74282287  0.74496697  1
  O  O370  1  0.38812403  0.51164288  0.48738699  1
  O  O371  1  0.38079029  0.50014194  0.99299551  1
  O  O372  1  0.38051044  0.99483202  0.48864005  1
  O  O373  1  0.38939458  1.01130918  1.00713226  1
  O  O374  1  0.89077059  0.50301631  0.48688052  1
  O  O375  1  0.88566878  0.49988537  0.98870279  1
  O  O376  1  0.87958480  0.99624865  0.49083672  1
  O  O377  1  0.81056691  0.96796381  0.98802996  1
  O  O378  1  0.12034965  0.00786852  -0.00616571  1
  O  O379  1  0.11321352  0.00769428  0.49824561  1
  O  O380  1  0.11724850  0.51160704  -0.01750935  1
  O  O381  1  0.10935121  0.51388444  0.49673163  1
  O  O382  1  0.62549297  0.00770439  0.01369585  1
  O  O383  1  0.61938850  0.00740760  0.50388025  1
  O  O384  1  0.63002244  0.50626667  0.01413152  1
  O  O385  1  0.61628393  0.51114981  0.49154972  1
  O  O386  1  0.37129143  0.36725530  0.12409316  1
  O  O387  1  0.35827373  0.35782945  0.63214225  1
  O  O388  1  0.37075867  0.87698083  0.10627349  1
  O  O389  1  0.37454033  0.86495527  0.60922258  1
  O  O390  1  0.85982521  0.37995378  0.11609402  1
  O  O391  1  0.85210456  0.37558440  0.63283232  1
  O  O392  1  0.88621624  0.85707661  0.12608837  1
  O  O393  1  0.86441779  0.87937065  0.61114307  1
  O  O394  1  0.11666425  0.13987381  0.38748199  1
  O  O395  1  0.12970428  0.13470669  0.87877791  1
  O  O396  1  0.11269978  0.64150038  0.40059988  1
  O  O397  1  0.13002970  0.64131648  0.86942362  1
  O  O398  1  0.63793384  0.12195195  0.38661218  1
  O  O399  1  0.62944015  0.11626794  0.89801529  1
  O  O400  1  0.63551855  0.62899339  0.37831347  1
  O  O401  1  0.62656056  0.63271444  0.88716584  1
