# generated using pymatgen
data_V73Zn73O256
_symmetry_space_group_name_H-M   'P 1'
_cell_length_a   16.88461338
_cell_length_b   16.89609424
_cell_length_c   16.87759077
_cell_angle_alpha   89.85246309
_cell_angle_beta   89.51878672
_cell_angle_gamma   90.24646382
_symmetry_Int_Tables_number   1
_chemical_formula_structural   V73Zn73O256
_chemical_formula_sum   'V73 Zn73 O256'
_cell_volume   4814.67614564
_cell_formula_units_Z   1
loop_
 _symmetry_equiv_pos_site_id
 _symmetry_equiv_pos_as_xyz
  1  'x, y, z'
loop_
 _atom_site_type_symbol
 _atom_site_label
 _atom_site_symmetry_multiplicity
 _atom_site_fract_x
 _atom_site_fract_y
 _atom_site_fract_z
 _atom_site_occupancy
  V  V0  1  0.25507254  0.48224757  0.24694395  1
  V  V1  1  0.88154289  0.49778537  0.86734584  1
  V  V2  1  0.37404075  0.62585096  0.75654712  1
  V  V3  1  0.36913786  0.50105503  0.37221086  1
  V  V4  1  -0.03140203  0.50101652  0.46626070  1
  V  V5  1  0.36348346  0.11839945  0.74608411  1
  V  V6  1  0.12767816  0.49434926  0.12089471  1
  V  V7  1  0.87543860  -0.00836426  0.88223433  1
  V  V8  1  0.50289220  0.87014036  0.85515767  1
  V  V9  1  0.75753657  0.13254494  0.37376501  1
  V  V10  1  0.51269870  -0.00133891  0.00475690  1
  V  V11  1  0.12512037  -0.01822441  0.62969942  1
  V  V12  1  0.24501908  0.37889529  0.62542581  1
  V  V13  1  0.12060977  0.37431180  0.75655729  1
  V  V14  1  0.24302654  -0.02213135  0.75274525  1
  V  V15  1  0.00535921  -0.00163650  0.50346389  1
  V  V16  1  0.00337952  0.76268401  0.75315025  1
  V  V17  1  0.90278957  0.25145381  0.12179718  1
  V  V18  1  0.00700856  0.10675732  0.11890628  1
  V  V19  1  0.88067512  -0.00565049  0.36436491  1
  V  V20  1  0.73430425  0.88025194  0.12636120  1
  V  V21  1  0.50360833  0.50382165  0.50071028  1
  V  V22  1  0.63201574  0.48869633  0.13144441  1
  V  V23  1  0.73308609  0.87502143  0.62414536  1
  V  V24  1  0.37462824  0.24754319  0.62063138  1
  V  V25  1  0.86496792  0.61424485  0.24695862  1
  V  V26  1  0.74240663  0.61178091  0.36907063  1
  V  V27  1  0.00505366  0.13623356  0.62324678  1
  V  V28  1  0.36091311  0.74741447  0.62421232  1
  V  V29  1  0.87510759  0.75832596  0.11261152  1
  V  V30  1  0.11154841  0.24698939  0.37739203  1
  V  V31  1  0.24816048  0.11610178  0.37360157  1
  V  V32  1  0.24564488  0.73216751  0.48837056  1
  V  V33  1  0.50328023  0.88619593  0.38165287  1
  V  V34  1  0.51050266  0.63234165  0.62392565  1
  V  V35  1  0.49845450  0.62585064  0.12540387  1
  V  V36  1  0.73373796  -0.00099650  0.74147980  1
  V  V37  1  0.73911619  -0.00278875  0.24915572  1
  V  V38  1  0.37066305  0.62786692  0.24825222  1
  V  V39  1  0.61516176  0.25244363  0.87090512  1
  V  V40  1  -0.00524950  0.61894845  0.11318488  1
  V  V41  1  0.40663773  0.13142789  0.24629834  1
  V  V42  1  0.11906785  0.51981059  0.61879324  1
  V  V43  1  0.37364197  0.37517899  0.49716563  1
  V  V44  1  0.23702747  0.24747909  0.50045251  1
  V  V45  1  0.17148572  0.01533434  0.13223299  1
  V  V46  1  0.50204392  0.10742408  0.61470271  1
  V  V47  1  0.61833869  0.48123776  0.62681650  1
  V  V48  1  0.71976792  0.24486725  0.01421174  1
  V  V49  1  0.25223960  0.50645033  0.76373963  1
  V  V50  1  0.73137401  0.49233837  0.75982348  1
  V  V51  1  -0.00251981  0.48205924  -0.00147997  1
  V  V52  1  0.74633957  0.75889295  -0.00307841  1
  V  V53  1  0.49471793  0.25812195  0.75474453  1
  V  V54  1  0.13309377  0.23082345  0.87382154  1
  V  V55  1  0.12422641  0.72017084  0.88868344  1
  V  V56  1  0.85814311  0.36740951  -0.00512994  1
  V  V57  1  0.86828882  0.12321772  0.74617416  1
  V  V58  1  0.51070080  0.36831741  0.36627155  1
  V  V59  1  0.64385329  0.12368430  0.50330999  1
  V  V60  1  0.74406057  0.74682394  0.49231601  1
  V  V61  1  0.09682327  0.37753659  0.25994380  1
  V  V62  1  0.49006150  0.49687735  -0.01538395  1
  V  V63  1  0.36834825  0.88306160  0.49774927  1
  V  V64  1  -0.00243669  0.75701999  0.24472344  1
  V  V65  1  0.50757647  0.75594083  0.24843172  1
  V  V66  1  0.62404304  0.62866298  -0.00129059  1
  V  V67  1  0.25356784  0.73532518  0.00768315  1
  V  V68  1  0.37206565  -0.00558133  0.87454842  1
  V  V69  1  -0.01153136  0.25448155  0.76116184  1
  V  V70  1  0.62460491  0.75390459  0.85136761  1
  V  V71  1  0.76479784  0.36387309  0.62048183  1
  V  V72  1  0.88121805  0.86655696  0.51020630  1
  Zn  Zn73  1  0.12993314  0.74698340  0.37123695  1
  Zn  Zn74  1  0.01217066  0.87980808  0.36490083  1
  Zn  Zn75  1  0.37490703  0.86398957  -0.00135090  1
  Zn  Zn76  1  0.90310148  0.63636546  0.70377916  1
  Zn  Zn77  1  0.21966430  0.16465023  1.01874251  1
  Zn  Zn78  1  0.62449375  0.75141540  0.37295479  1
  Zn  Zn79  1  0.75267193  0.63367405  0.86780791  1
  Zn  Zn80  1  0.73698150  0.11928850  0.88297298  1
  Zn  Zn81  1  0.34300543  0.25773190  0.11667624  1
  Zn  Zn82  1  0.18513226  0.18997833  0.20111220  1
  Zn  Zn83  1  0.18112769  0.18492733  0.68921636  1
  Zn  Zn84  1  0.17715747  0.67517668  0.20154696  1
  Zn  Zn85  1  0.18185080  0.69705168  0.69940998  1
  Zn  Zn86  1  0.75823442  0.22058340  0.22537126  1
  Zn  Zn87  1  0.67856734  0.18802829  0.68679246  1
  Zn  Zn88  1  0.68494127  0.68677276  0.18411341  1
  Zn  Zn89  1  0.72244960  0.66635781  0.66406977  1
  Zn  Zn90  1  0.31554604  0.30058961  0.31492937  1
  Zn  Zn91  1  0.30663497  0.30774019  0.80768768  1
  Zn  Zn92  1  0.32206898  0.81198113  0.31750511  1
  Zn  Zn93  1  0.30401871  0.80534379  0.82065691  1
  Zn  Zn94  1  0.92602454  0.30195799  0.31411317  1
  Zn  Zn95  1  0.80008514  0.31290713  0.81393845  1
  Zn  Zn96  1  0.81927419  0.81443567  0.30827035  1
  Zn  Zn97  1  0.81769073  0.81663597  0.80503706  1
  Zn  Zn98  1  0.18050666  0.44183124  0.43641493  1
  Zn  Zn99  1  0.18650524  0.43092624  0.93775921  1
  Zn  Zn100  1  0.18592506  0.92296659  0.43640770  1
  Zn  Zn101  1  0.21113594  0.95361155  0.97787469  1
  Zn  Zn102  1  0.68977970  0.43050416  0.44130131  1
  Zn  Zn103  1  0.66989201  0.43030020  0.94167638  1
  Zn  Zn104  1  0.68475377  0.94016281  0.44075243  1
  Zn  Zn105  1  0.68927591  0.93621399  0.93016591  1
  Zn  Zn106  1  0.36168297  0.07530257  0.07378283  1
  Zn  Zn107  1  0.30179444  0.06332719  0.56110030  1
  Zn  Zn108  1  0.31136354  0.56214074  0.06322265  1
  Zn  Zn109  1  0.31187984  0.56237361  0.56691484  1
  Zn  Zn110  1  0.80924752  0.07181938  0.06531008  1
  Zn  Zn111  1  0.81984437  0.05749880  0.56319911  1
  Zn  Zn112  1  0.80862037  0.56346338  0.05466137  1
  Zn  Zn113  1  0.81335001  0.54653758  0.55719634  1
  Zn  Zn114  1  0.44421972  0.42700722  0.17615677  1
  Zn  Zn115  1  0.43385952  0.44049218  0.68856409  1
  Zn  Zn116  1  0.43851303  0.95029732  0.20339302  1
  Zn  Zn117  1  0.43162748  0.93013127  0.68304372  1
  Zn  Zn118  1  0.92354854  0.43550841  0.17761223  1
  Zn  Zn119  1  0.93836024  0.43754426  0.68203865  1
  Zn  Zn120  1  0.93530898  0.93698608  0.17478566  1
  Zn  Zn121  1  0.93539530  0.93635668  0.69471950  1
  Zn  Zn122  1  0.06433505  0.06529466  0.29425955  1
  Zn  Zn123  1  0.05781565  0.05511623  0.80885252  1
  Zn  Zn124  1  0.06144964  0.57344403  0.31159607  1
  Zn  Zn125  1  0.06189235  0.56367827  0.80650404  1
  Zn  Zn126  1  0.57248355  0.06512027  0.32172536  1
  Zn  Zn127  1  0.55260323  0.06933960  0.81200969  1
  Zn  Zn128  1  0.56184587  0.55791100  0.31160984  1
  Zn  Zn129  1  0.56128653  0.57148036  0.80786641  1
  Zn  Zn130  1  0.45213617  0.16895068  0.41778032  1
  Zn  Zn131  1  0.42245274  0.18050178  0.93985596  1
  Zn  Zn132  1  0.43580712  0.68780993  0.43614126  1
  Zn  Zn133  1  0.43847656  0.68975733  0.93794013  1
  Zn  Zn134  1  0.93928334  0.17493131  0.43949942  1
  Zn  Zn135  1  0.93522378  0.17347178  0.93662335  1
  Zn  Zn136  1  0.93337258  0.67769522  0.43540384  1
  Zn  Zn137  1  0.93771508  0.68352562  0.92671979  1
  Zn  Zn138  1  0.11510170  0.28999842  0.08091941  1
  Zn  Zn139  1  0.05232868  0.32858733  0.55974983  1
  Zn  Zn140  1  0.13501418  0.81249699  0.10010738  1
  Zn  Zn141  1  0.06550707  0.80032474  0.56333803  1
  Zn  Zn142  1  0.53405052  0.31947200  0.06489931  1
  Zn  Zn143  1  0.56150515  0.30432025  0.55007148  1
  Zn  Zn144  1  0.55507357  0.81704365  0.05797340  1
  Zn  Zn145  1  0.55965345  0.81365626  0.55801847  1
  O  O146  1  0.11646480  0.11796530  0.12991309  1
  O  O147  1  0.10780951  0.11467041  0.63240223  1
  O  O148  1  0.10679999  0.60081720  0.13369635  1
  O  O149  1  0.13542416  0.61720075  0.63230429  1
  O  O150  1  0.62419171  0.18877822  0.21168914  1
  O  O151  1  0.61091143  0.12405953  0.61714718  1
  O  O152  1  0.61716502  0.62254119  0.11534955  1
  O  O153  1  0.61246991  0.61659633  0.62994498  1
  O  O154  1  0.37477875  0.38126149  0.38468975  1
  O  O155  1  0.34238527  0.37562077  0.95609720  1
  O  O156  1  0.38465965  0.87446156  0.38870320  1
  O  O157  1  0.38756501  0.87673339  0.86448704  1
  O  O158  1  0.86885314  0.32648413  0.42295002  1
  O  O159  1  0.86627744  0.38387494  0.88477733  1
  O  O160  1  0.88242669  0.88474423  0.38367941  1
  O  O161  1  0.86503984  0.89102342  0.87640450  1
  O  O162  1  0.23338190  0.02003851  0.39981495  1
  O  O163  1  0.25620390  -0.01285452  0.85853920  1
  O  O164  1  0.26073733  0.49321279  0.36453353  1
  O  O165  1  0.24905483  0.49453226  0.86233003  1
  O  O166  1  0.76282667  -0.00729896  0.36393269  1
  O  O167  1  0.75106078  0.00111128  0.85549616  1
  O  O168  1  0.74157857  0.51375468  0.37824240  1
  O  O169  1  0.74496025  0.48951624  0.86546613  1
  O  O170  1  0.23414005  0.50039793  0.12915368  1
  O  O171  1  0.24375977  0.49161787  0.63327016  1
  O  O172  1  0.27280558  1.02792931  0.13835983  1
  O  O173  1  0.23177071  1.00118827  0.63265771  1
  O  O174  1  0.73200334  0.50224393  0.11285257  1
  O  O175  1  0.73353278  0.48700378  0.63415242  1
  O  O176  1  0.75770037  0.99099937  0.13621444  1
  O  O177  1  0.75279691  0.98803644  0.63022206  1
  O  O178  1  -0.00637700  0.38084546  0.25785591  1
  O  O179  1  0.00494247  0.35988569  0.74200768  1
  O  O180  1  -0.01978057  0.85976464  0.24714593  1
  O  O181  1  -0.00321412  0.86497803  0.75861133  1
  O  O182  1  0.49593219  0.37851338  0.26776225  1
  O  O183  1  0.47914959  0.35680708  0.75151688  1
  O  O184  1  0.48807456  0.86155572  0.26290128  1
  O  O185  1  0.50267828  0.87610588  0.75564623  1
  O  O186  1  0.49371899  0.14310777  0.30419882  1
  O  O187  1  0.48582851  0.13050201  0.73269972  1
  O  O188  1  0.49577424  0.63244806  0.24308616  1
  O  O189  1  0.48501256  0.61902125  0.73286659  1
  O  O190  1  0.99440912  0.12271392  0.22420868  1
  O  O191  1  0.99043982  0.13762735  0.74043756  1
  O  O192  1  0.98028776  0.63436258  0.23175294  1
  O  O193  1  0.99717543  0.63945927  0.75975993  1
  O  O194  1  0.37542629  0.32807175  -0.09921829  1
  O  O195  1  0.36070057  0.26054095  0.50897464  1
  O  O196  1  0.36319707  0.74541827  0.00180400  1
  O  O197  1  0.36583410  0.74800710  0.50873583  1
  O  O198  1  0.87284892  0.26004543  0.00214144  1
  O  O199  1  0.87472736  0.27286687  0.47718048  1
  O  O200  1  0.85926777  0.74059995  0.00532338  1
  O  O201  1  0.86937264  0.76339948  0.49021571  1
  O  O202  1  0.12499669  0.26752770  0.48700979  1
  O  O203  1  0.13028768  0.24738219  0.97677339  1
  O  O204  1  0.14121495  0.74633110  0.49742499  1
  O  O205  1  0.13326455  0.75110914  0.99278395  1
  O  O206  1  0.62094948  0.22536583  0.49944149  1
  O  O207  1  0.61521513  0.25187278  0.99634504  1
  O  O208  1  0.64068612  0.75111460  0.49695448  1
  O  O209  1  0.63135944  0.74596265  0.99900583  1
  O  O210  1  0.57630773  0.24086436  0.19149200  1
  O  O211  1  0.48531559  0.24732453  0.63093830  1
  O  O212  1  0.50178183  0.74406883  0.13791710  1
  O  O213  1  0.49614546  0.73467933  0.61708528  1
  O  O214  1  1.00214706  0.25813214  0.12321068  1
  O  O215  1  1.00531458  0.23985233  0.62527522  1
  O  O216  1  0.97879577  0.73965195  0.11588428  1
  O  O217  1  1.01409391  0.75066957  0.65132449  1
  O  O218  1  0.00539090  0.24750927  0.37829452  1
  O  O219  1  0.00377530  0.24551704  0.86189735  1
  O  O220  1  -0.00358106  0.74253716  0.34948198  1
  O  O221  1  0.01809374  0.74876517  0.88065731  1
  O  O222  1  0.48961762  0.27339682  0.39278718  1
  O  O223  1  0.49664164  0.23744793  0.86206314  1
  O  O224  1  0.50136856  0.74963359  0.36269886  1
  O  O225  1  0.51165793  0.75951241  0.87060316  1
  O  O226  1  0.24293209  0.14342409  0.50223216  1
  O  O227  1  0.34011500  0.17963451  1.02082891  1
  O  O228  1  0.25723164  0.63250193  0.49648585  1
  O  O229  1  0.25384343  0.63399700  0.99878498  1
  O  O230  1  0.75249225  0.12473042  0.49441546  1
  O  O231  1  0.74343820  0.14388624  0.99979207  1
  O  O232  1  0.75818017  0.64108208  0.47862592  1
  O  O233  1  0.73766380  0.63827489  0.99435268  1
  O  O234  1  0.26670267  0.35511010  -0.02129510  1
  O  O235  1  0.25355150  0.37063480  0.50747950  1
  O  O236  1  0.26105159  0.85524327  -0.00485579  1
  O  O237  1  0.26468222  0.85868842  0.49717126  1
  O  O238  1  0.75145550  0.35793782  -0.00588704  1
  O  O239  1  0.73944423  0.37360387  0.52243256  1
  O  O240  1  0.74323546  0.86872064  0.01181199  1
  O  O241  1  0.76092805  0.87314449  0.50605691  1
  O  O242  1  0.13190687  0.48486836  0.24768090  1
  O  O243  1  0.13729326  0.49417290  0.74520195  1
  O  O244  1  0.13233369  1.00075114  0.22809762  1
  O  O245  1  0.13323487  0.99589538  0.74384967  1
  O  O246  1  0.62049792  0.50193224  0.23178199  1
  O  O247  1  0.62580282  0.49560834  0.74628845  1
  O  O248  1  0.63999190  0.99957924  0.25404669  1
  O  O249  1  0.63539722  1.00521540  0.74969048  1
  O  O250  1  0.38269362  0.03175376  0.25823472  1
  O  O251  1  0.35984002  -0.00139134  0.74691826  1
  O  O252  1  0.37387012  0.49988306  0.25329725  1
  O  O253  1  0.36177293  0.51073000  0.74519091  1
  O  O254  1  0.87655498  -0.00781009  0.26289613  1
  O  O255  1  0.86398942  0.00751624  0.75513864  1
  O  O256  1  0.86934428  0.51502778  0.23898777  1
  O  O257  1  0.87072253  0.49543837  0.76409542  1
  O  O258  1  0.12173372  0.37268931  0.36383161  1
  O  O259  1  0.12635501  0.36622470  0.85988461  1
  O  O260  1  0.12212452  0.86068300  0.36992655  1
  O  O261  1  0.08568509  0.91025555  0.92312335  1
  O  O262  1  0.61042037  0.37924865  0.38076198  1
  O  O263  1  0.61798236  0.35367973  0.87351095  1
  O  O264  1  0.60830424  0.87119671  0.38547365  1
  O  O265  1  0.61554452  0.86377741  0.87008718  1
  O  O266  1  0.43649756  0.13164790  0.14966019  1
  O  O267  1  0.37896507  0.13092254  0.62452362  1
  O  O268  1  0.38804437  0.61590633  0.13891412  1
  O  O269  1  0.38180501  0.63404578  0.62969382  1
  O  O270  1  0.88130267  0.14763843  0.11695100  1
  O  O271  1  0.88914383  0.11796117  0.63519485  1
  O  O272  1  0.87147066  0.63106486  0.12815384  1
  O  O273  1  0.82948616  0.63100109  0.62519229  1
  O  O274  1  0.22288325  0.24532859  0.10987553  1
  O  O275  1  0.25190018  0.25811547  0.62261427  1
  O  O276  1  0.22893612  0.74001454  0.11296997  1
  O  O277  1  0.25769119  0.74397238  0.61604228  1
  O  O278  1  0.73605038  0.24857857  0.11307066  1
  O  O279  1  0.74703579  0.26595847  0.64209733  1
  O  O280  1  0.75346269  0.76086949  0.11854218  1
  O  O281  1  0.74642698  0.76650385  0.60730428  1
  O  O282  1  0.23302875  0.24719130  0.38427074  1
  O  O283  1  0.23268642  0.23623764  0.85541054  1
  O  O284  1  0.25673324  0.74675164  0.38533080  1
  O  O285  1  0.23305275  0.74461130  0.88467967  1
  O  O286  1  0.76763320  0.22815263  0.35345181  1
  O  O287  1  0.72830655  0.24713828  0.87995885  1
  O  O288  1  0.74809450  0.76008501  0.38337689  1
  O  O289  1  0.73763573  0.75725287  0.87863082  1
  O  O290  1  0.00065653  0.13686319  0.01847688  1
  O  O291  1  -0.00571453  0.11289178  0.51631018  1
  O  O292  1  -0.01366894  0.60691345  0.00895672  1
  O  O293  1  -0.01243755  0.59973287  0.49677179  1
  O  O294  1  0.49129515  0.09703782  -0.00934249  1
  O  O295  1  0.49580136  0.12282073  0.51256213  1
  O  O296  1  0.50808784  0.63061556  0.00877331  1
  O  O297  1  0.49094759  0.61382346  0.51172232  1
  O  O298  1  0.48652045  0.38555912  0.50171779  1
  O  O299  1  0.50845606  0.39867996  0.98324640  1
  O  O300  1  0.48591251  0.86693564  0.48944055  1
  O  O301  1  0.49112805  0.87849652  0.98456430  1
  O  O302  1  1.00243183  0.41067739  0.50515681  1
  O  O303  1  0.98370531  0.38248723  0.99492273  1
  O  O304  1  0.99149501  0.87570868  0.50093930  1
  O  O305  1  1.03038230  0.89518586  0.96870872  1
  O  O306  1  0.49108547  0.49222791  0.38404774  1
  O  O307  1  0.49775304  0.52143676  0.88601392  1
  O  O308  1  0.50318919  0.98452865  0.37080206  1
  O  O309  1  0.49444685  0.98473633  0.87519091  1
  O  O310  1  0.99476564  0.50314027  0.36593612  1
  O  O311  1  0.98608414  0.49994806  0.87977886  1
  O  O312  1  0.99412131  1.00318651  0.38075371  1
  O  O313  1  0.97508884  1.01147917  0.86945328  1
  O  O314  1  -0.00790752  0.00661474  0.10958781  1
  O  O315  1  0.00854593  0.00286262  0.62432667  1
  O  O316  1  0.00108833  0.49978972  0.11618370  1
  O  O317  1  0.01939664  0.50574856  0.64078242  1
  O  O318  1  0.48490789  -0.02070149  0.10303793  1
  O  O319  1  0.49389998  0.00948085  0.62786034  1
  O  O320  1  0.50973143  0.51151741  0.11356259  1
  O  O321  1  0.50111012  0.50676692  0.62003022  1
  O  O322  1  0.25947618  0.38143045  0.24600296  1
  O  O323  1  0.24592140  0.38444385  0.74375527  1
  O  O324  1  0.28621242  0.86868666  0.21752506  1
  O  O325  1  0.25188172  0.87980203  0.74415772  1
  O  O326  1  0.76506237  0.38761096  0.28066940  1
  O  O327  1  0.75185582  0.38808918  0.74014887  1
  O  O328  1  0.75488034  0.88308401  0.23665920  1
  O  O329  1  0.75026696  0.88323232  0.73290086  1
  O  O330  1  0.23484850  0.12024434  0.27380329  1
  O  O331  1  0.25978659  0.11522502  0.73842851  1
  O  O332  1  0.26971214  0.60855115  0.24002147  1
  O  O333  1  0.25847857  0.61345975  0.74832401  1
  O  O334  1  0.75763214  0.10559674  0.26169530  1
  O  O335  1  0.75353355  0.11162429  0.73568683  1
  O  O336  1  0.75594169  0.63179959  0.25515820  1
  O  O337  1  0.74470499  0.59984694  0.75634542  1
  O  O338  1  0.34928688  0.13604639  0.38026281  1
  O  O339  1  0.38145590  0.10396925  0.85577905  1
  O  O340  1  0.38512320  0.60969520  0.36064761  1
  O  O341  1  0.38156565  0.63539422  0.85412912  1
  O  O342  1  0.86718415  0.10343513  0.38652276  1
  O  O343  1  0.86131270  0.12388926  0.85903909  1
  O  O344  1  0.86063278  0.63222752  0.35349408  1
  O  O345  1  0.86313135  0.60069177  0.88797692  1
  O  O346  1  0.11320363  0.38489502  0.14712424  1
  O  O347  1  0.13345035  0.37760075  0.63619344  1
  O  O348  1  0.14557913  0.92328190  0.08912110  1
  O  O349  1  0.12127683  0.88350508  0.62773035  1
  O  O350  1  0.61535491  0.39045550  0.11323805  1
  O  O351  1  0.61095199  0.38050340  0.62624971  1
  O  O352  1  0.63582158  0.87299447  0.12700161  1
  O  O353  1  0.63408816  0.87919544  0.61561143  1
  O  O354  1  0.12029690  0.26957519  0.26444937  1
  O  O355  1  0.11165886  0.25464930  0.75402863  1
  O  O356  1  0.09393057  0.76545654  0.20450195  1
  O  O357  1  0.11929657  0.74941433  0.77760986  1
  O  O358  1  0.71425466  0.34490617  0.24901217  1
  O  O359  1  0.60247013  0.24928173  0.75452937  1
  O  O360  1  0.61091188  0.75079711  0.24919617  1
  O  O361  1  0.63627206  0.74226167  0.75558301  1
  O  O362  1  0.35074431  0.22600144  0.23803348  1
  O  O363  1  0.37572738  0.23901820  0.73988770  1
  O  O364  1  0.38245210  0.73127182  0.25515295  1
  O  O365  1  0.36168776  0.73787776  0.73516324  1
  O  O366  1  0.86973507  0.26307048  0.22401992  1
  O  O367  1  0.88311671  0.24597732  0.75689808  1
  O  O368  1  0.87662888  0.74370422  0.23040803  1
  O  O369  1  0.89297753  0.74332277  0.76599989  1
  O  O370  1  0.37709388  0.49234125  0.49392487  1
  O  O371  1  0.39088353  0.50740315  1.00678379  1
  O  O372  1  0.36597296  0.98127115  0.51402724  1
  O  O373  1  0.36987614  0.99218781  0.98089965  1
  O  O374  1  0.86601229  0.49303039  0.47591196  1
  O  O375  1  0.87306521  0.48369275  0.99379245  1
  O  O376  1  0.88704343  0.98611878  0.49478060  1
  O  O377  1  0.85403244  1.01288398  0.97941158  1
  O  O378  1  0.18406917  0.05551249  0.01571825  1
  O  O379  1  0.11210841  -0.01067569  0.51382985  1
  O  O380  1  0.11662506  0.48049743  0.01411597  1
  O  O381  1  0.13456225  0.50390163  0.51866560  1
  O  O382  1  0.61344792  -0.00775926  -0.00380374  1
  O  O383  1  0.62706456  0.02111129  0.49698215  1
  O  O384  1  0.61651443  0.51614366  0.00023812  1
  O  O385  1  0.61045534  0.49660013  0.51081329  1
  O  O386  1  0.42959477  0.33266522  0.11263170  1
  O  O387  1  0.36389320  0.36987554  0.61859953  1
  O  O388  1  0.34357011  0.87685531  0.16613625  1
  O  O389  1  0.38410439  0.85301829  0.61349114  1
  O  O390  1  0.87222525  0.36338103  0.10541315  1
  O  O391  1  0.86516681  0.37843518  0.62163258  1
  O  O392  1  0.86738308  0.86102883  0.11674157  1
  O  O393  1  0.87185309  0.87609808  0.61227180  1
  O  O394  1  0.12119649  0.14364019  0.37309501  1
  O  O395  1  0.11774323  0.13248935  0.86499021  1
  O  O396  1  0.13657722  0.65324125  0.31083420  1
  O  O397  1  0.12230975  0.61984433  0.88830077  1
  O  O398  1  0.65004411  0.12278532  0.38560768  1
  O  O399  1  0.62230924  0.14024814  0.86678705  1
  O  O400  1  0.63887469  0.63038907  0.36475924  1
  O  O401  1  0.62340018  0.64289363  0.88015547  1
