# generated using pymatgen
data_V73Zn73O256
_symmetry_space_group_name_H-M   'P 1'
_cell_length_a   16.85084352
_cell_length_b   16.85705971
_cell_length_c   16.86094104
_cell_angle_alpha   90.15531006
_cell_angle_beta   89.96244968
_cell_angle_gamma   89.80298486
_symmetry_Int_Tables_number   1
_chemical_formula_structural   V73Zn73O256
_chemical_formula_sum   'V73 Zn73 O256'
_cell_volume   4789.39902430
_cell_formula_units_Z   1
loop_
 _symmetry_equiv_pos_site_id
 _symmetry_equiv_pos_as_xyz
  1  'x, y, z'
loop_
 _atom_site_type_symbol
 _atom_site_label
 _atom_site_symmetry_multiplicity
 _atom_site_fract_x
 _atom_site_fract_y
 _atom_site_fract_z
 _atom_site_occupancy
  V  V0  1  0.36578988  0.25625787  0.13126472  1
  V  V1  1  0.50055418  0.11717865  0.64070354  1
  V  V2  1  0.11322958  0.36241241  0.76154994  1
  V  V3  1  0.25982367  0.86299964  0.11663152  1
  V  V4  1  0.75128460  0.36466328  0.62674061  1
  V  V5  1  0.11487247  0.25567249  0.37671691  1
  V  V6  1  0.74254826  0.00817510  0.24885830  1
  V  V7  1  0.50111248  0.87298050  0.87799560  1
  V  V8  1  -0.00708016  0.74738436  0.26611181  1
  V  V9  1  0.62955774  0.88573746  0.74805684  1
  V  V10  1  0.35721208  0.62972946  0.73710298  1
  V  V11  1  0.50360748  0.73455247  0.26300866  1
  V  V12  1  0.25022153  0.11523190  0.37545986  1
  V  V13  1  0.12779880  0.12300929  0.50474808  1
  V  V14  1  0.24462060  0.49844921  0.75416216  1
  V  V15  1  0.13047673  0.86456038  0.26758030  1
  V  V16  1  0.50277261  -0.00471203  0.00587053  1
  V  V17  1  0.87374075  0.74029620  0.61949140  1
  V  V18  1  0.87586325  0.87259713  0.49368276  1
  V  V19  1  0.74463172  0.50745070  0.74146328  1
  V  V20  1  0.74013727  0.24559638  0.48938196  1
  V  V21  1  0.51043728  0.37061143  0.38441618  1
  V  V22  1  0.63301788  0.63302815  0.50746787  1
  V  V23  1  0.13279100  0.63378241  -0.00408725  1
  V  V24  1  0.87399781  0.14548459  0.74987274  1
  V  V25  1  0.12868690  0.63680726  0.49259502  1
  V  V26  1  0.50027293  0.11838784  0.13007714  1
  V  V27  1  0.61873393  0.11677102  0.49751305  1
  V  V28  1  0.88625267  0.36144789  0.50002380  1
  V  V29  1  0.25588018  -0.00615162  0.75309142  1
  V  V30  1  0.87417655  0.00586804  0.37521563  1
  V  V31  1  0.26138429  0.25899090  0.50576859  1
  V  V32  1  0.89344807  0.12467673  0.24142803  1
  V  V33  1  0.75067153  0.13253576  0.88013009  1
  V  V34  1  0.63171470  0.74454427  0.87176147  1
  V  V35  1  0.75787225  0.26810226  0.01604938  1
  V  V36  1  0.88074733  0.87851084  0.00509036  1
  V  V37  1  0.12481021  -0.01205246  0.63636164  1
  V  V38  1  0.00037929  -0.00555979  0.49894714  1
  V  V39  1  0.12696472  0.49712028  0.62238045  1
  V  V40  1  0.61020069  0.37102360  0.75012448  1
  V  V41  1  0.75893234  0.74960487  0.00039824  1
  V  V42  1  0.74929084  0.63140655  0.36652392  1
  V  V43  1  0.26513383  0.86312006  0.62356008  1
  V  V44  1  0.50694467  0.25485549  0.25665745  1
  V  V45  1  0.12743154  0.37397762  0.24130516  1
  V  V46  1  -0.00672481  0.63506788  0.12240283  1
  V  V47  1  0.50087698  0.74600614  0.73189914  1
  V  V48  1  -0.00349180  0.51059746  0.49731435  1
  V  V49  1  0.73842443  0.47457530  0.24124802  1
  V  V50  1  0.27207146  0.74737882  0.48667524  1
  V  V51  1  0.02055553  0.49051627  -0.00247714  1
  V  V52  1  0.36801228  0.49482050  0.38687277  1
  V  V53  1  0.74231268  0.87987645  0.12535995  1
  V  V54  1  0.24895228  0.25170880  0.00784616  1
  V  V55  1  -0.00046708  0.13444570  0.63731319  1
  V  V56  1  0.88163465  0.62104494  0.75854893  1
  V  V57  1  -0.04868986  0.30072427  0.19652287  1
  V  V58  1  0.62372752  0.12874460  0.00690302  1
  V  V59  1  0.88190179  -0.00223091  0.86806514  1
  V  V60  1  0.37778973  0.25284718  0.64672739  1
  V  V61  1  0.61899472  0.62600781  0.01290504  1
  V  V62  1  0.12532757  0.11654646  0.01606985  1
  V  V63  1  0.37814609  0.00260376  0.87874702  1
  V  V64  1  0.51349889  0.49845995  0.51079067  1
  V  V65  1  0.24112308  0.12320029  0.87563866  1
  V  V66  1  0.36895583  0.11291261  0.25308816  1
  V  V67  1  0.38563285  -0.01147670  0.39123676  1
  V  V68  1  0.00532460  -0.00232429  0.01685091  1
  V  V69  1  0.00160986  0.75977972  0.75570651  1
  V  V70  1  0.25197762  0.49346125  0.22582895  1
  V  V71  1  0.87289047  0.48908293  0.88463364  1
  V  V72  1  0.75008099  0.88216984  0.62070692  1
  Zn  Zn73  1  0.43368065  0.42397877  -0.10193750  1
  Zn  Zn74  1  0.36538698  0.62174055  0.24742004  1
  Zn  Zn75  1  0.61312981  0.25788158  0.87740504  1
  Zn  Zn76  1  0.87802871  0.49438226  0.36715018  1
  Zn  Zn77  1  0.12137300  0.75437591  0.87720860  1
  Zn  Zn78  1  0.61505192  0.87462336  0.25103021  1
  Zn  Zn79  1  0.14193042  -0.00586734  0.14711105  1
  Zn  Zn80  1  0.74678275  0.00951841  0.74702112  1
  Zn  Zn81  1  0.06284879  0.93113677  0.82167164  1
  Zn  Zn82  1  0.18233800  0.18508468  0.19431321  1
  Zn  Zn83  1  0.19248852  0.18593133  0.68968731  1
  Zn  Zn84  1  0.17687217  0.68082902  0.18829393  1
  Zn  Zn85  1  0.17469439  0.68433678  0.67360857  1
  Zn  Zn86  1  0.68944691  0.19139498  0.19079897  1
  Zn  Zn87  1  0.67989804  0.19079507  0.68632931  1
  Zn  Zn88  1  0.68410470  0.68663015  0.19864179  1
  Zn  Zn89  1  0.69078594  0.69123021  0.68276541  1
  Zn  Zn90  1  0.31264546  0.31279175  0.32042967  1
  Zn  Zn91  1  0.30378407  0.31660219  0.81456305  1
  Zn  Zn92  1  0.32151621  0.80862687  0.30278096  1
  Zn  Zn93  1  0.32199615  0.81607991  0.80538408  1
  Zn  Zn94  1  0.81013810  0.31267404  0.31583503  1
  Zn  Zn95  1  0.80106962  0.31864195  0.81792106  1
  Zn  Zn96  1  0.81399282  0.80876710  0.30809257  1
  Zn  Zn97  1  0.81484294  0.81457048  0.81041774  1
  Zn  Zn98  1  0.18482689  0.43693080  0.43732273  1
  Zn  Zn99  1  0.21821031  0.43295467  0.92673201  1
  Zn  Zn100  1  0.19395835  0.93000463  0.44117615  1
  Zn  Zn101  1  0.19351304  0.92726685  0.94506130  1
  Zn  Zn102  1  0.69031455  0.43638429  0.43216400  1
  Zn  Zn103  1  0.68428431  0.44538450  0.93093472  1
  Zn  Zn104  1  0.69522545  0.94954179  0.44199821  1
  Zn  Zn105  1  0.68842409  0.94212085  0.93709464  1
  Zn  Zn106  1  0.31472776  0.05142428  0.06727150  1
  Zn  Zn107  1  0.31983515  0.06504562  0.56804649  1
  Zn  Zn108  1  0.30474167  0.69314856  0.05142045  1
  Zn  Zn109  1  0.31577514  0.56602037  0.56437381  1
  Zn  Zn110  1  0.81581369  0.06740246  0.06322060  1
  Zn  Zn111  1  0.81214773  0.06725465  0.56388017  1
  Zn  Zn112  1  0.79869968  0.56537421  0.06548013  1
  Zn  Zn113  1  0.80959719  0.55696186  0.55909383  1
  Zn  Zn114  1  0.44449872  0.43603448  0.18104468  1
  Zn  Zn115  1  0.42497125  0.43799241  0.68180136  1
  Zn  Zn116  1  0.43254048  0.92986964  0.19049515  1
  Zn  Zn117  1  0.44091520  0.93702198  0.68792402  1
  Zn  Zn118  1  0.90408323  0.47691193  0.15817088  1
  Zn  Zn119  1  0.94014438  0.43477950  0.68063998  1
  Zn  Zn120  1  0.93965969  0.92824337  0.19518275  1
  Zn  Zn121  1  0.93384543  0.93702437  0.68179454  1
  Zn  Zn122  1  0.06635105  0.05571858  0.31824451  1
  Zn  Zn123  1  0.02136911  0.13294804  0.86386797  1
  Zn  Zn124  1  0.06425943  0.56009407  0.31032671  1
  Zn  Zn125  1  0.06182662  0.56235913  0.81752991  1
  Zn  Zn126  1  0.56122476  0.06498792  0.31899842  1
  Zn  Zn127  1  0.56308958  0.06738862  0.81759566  1
  Zn  Zn128  1  0.56962921  0.55677638  0.31568370  1
  Zn  Zn129  1  0.56107887  0.55954011  0.80416039  1
  Zn  Zn130  1  0.44025385  0.18025636  0.44133284  1
  Zn  Zn131  1  0.42904581  0.18354798  0.94204694  1
  Zn  Zn132  1  0.44498399  0.67318562  0.43224571  1
  Zn  Zn133  1  0.44792563  0.60200721  0.92721560  1
  Zn  Zn134  1  0.93345817  0.18247467  0.44255165  1
  Zn  Zn135  1  0.94194905  0.30712973  0.93536026  1
  Zn  Zn136  1  0.92762933  0.68042941  0.43514632  1
  Zn  Zn137  1  0.94057092  0.68196640  0.93668257  1
  Zn  Zn138  1  0.06974886  0.30930902  0.05675832  1
  Zn  Zn139  1  0.07096786  0.31445520  0.56937609  1
  Zn  Zn140  1  0.06962006  0.81240746  0.07014879  1
  Zn  Zn141  1  0.05701810  0.80786653  0.56764597  1
  Zn  Zn142  1  0.54864122  0.32072386  0.05653388  1
  Zn  Zn143  1  0.55954595  0.30829023  0.57126110  1
  Zn  Zn144  1  0.56291668  0.80552859  0.06432501  1
  Zn  Zn145  1  0.57370733  0.81560058  0.55295796  1
  O  O146  1  0.13393031  0.10946892  0.12039097  1
  O  O147  1  0.11720096  0.11372724  0.62430825  1
  O  O148  1  0.10828520  0.62456704  0.10676866  1
  O  O149  1  0.11867474  0.61124954  0.60567953  1
  O  O150  1  0.60987809  0.12859632  0.12138185  1
  O  O151  1  0.60976123  0.13350259  0.61983195  1
  O  O152  1  0.63519676  0.63426319  0.11135763  1
  O  O153  1  0.63709536  0.62348110  0.60979754  1
  O  O154  1  0.38729046  0.38653482  0.37021849  1
  O  O155  1  0.32854117  0.39147935  0.89291790  1
  O  O156  1  0.36613340  0.89193745  0.36897727  1
  O  O157  1  0.39246153  0.88569147  0.86924509  1
  O  O158  1  0.86885330  0.37560316  0.39769100  1
  O  O159  1  0.87911807  0.38492501  0.87139224  1
  O  O160  1  0.87034374  0.88156346  0.38831491  1
  O  O161  1  0.86853869  0.89388826  0.88398914  1
  O  O162  1  0.25501294  0.01141366  0.38435190  1
  O  O163  1  0.25837121  0.00078057  0.87276733  1
  O  O164  1  0.26570911  0.49326672  0.38132254  1
  O  O165  1  0.23541672  0.51985902  0.85115799  1
  O  O166  1  0.76234669  -0.00957432  0.35880797  1
  O  O167  1  0.76302519  0.01620915  0.87933371  1
  O  O168  1  0.75210986  0.49739622  0.36091096  1
  O  O169  1  0.76612338  0.49335421  0.85302371  1
  O  O170  1  0.24895295  0.48183412  0.13102122  1
  O  O171  1  0.23307291  0.50521150  0.62325045  1
  O  O172  1  0.25443353  0.97808767  0.12674830  1
  O  O173  1  0.24048506  0.99590902  0.63278761  1
  O  O174  1  0.76302922  0.49013834  0.13853471  1
  O  O175  1  0.75669050  0.48843472  0.63667785  1
  O  O176  1  0.75627936  0.99255660  0.13722702  1
  O  O177  1  0.76250827  0.98657910  0.63063843  1
  O  O178  1  0.01507322  0.36323981  0.25267544  1
  O  O179  1  0.01248184  0.37903665  0.74850047  1
  O  O180  1  0.00880747  0.85646043  0.24872622  1
  O  O181  1  -0.00643123  0.86686639  0.75180480  1
  O  O182  1  0.49692057  0.35823740  0.25794660  1
  O  O183  1  0.51142916  0.39008474  0.74630050  1
  O  O184  1  0.50115543  0.86054117  0.24642941  1
  O  O185  1  0.51112597  0.87016935  0.75586019  1
  O  O186  1  0.49027152  0.13038806  0.24729754  1
  O  O187  1  0.50498090  0.12805933  0.74267566  1
  O  O188  1  0.51118936  0.63194220  0.24920879  1
  O  O189  1  0.52169280  0.64708587  0.73899040  1
  O  O190  1  0.99251526  0.11661693  0.25236514  1
  O  O191  1  0.98850798  0.12607599  0.74571690  1
  O  O192  1  1.01166088  0.63376198  0.23375822  1
  O  O193  1  0.98451243  0.63123072  0.74942313  1
  O  O194  1  0.35939056  0.23876750  0.01880590  1
  O  O195  1  0.36206040  0.24796583  0.49528315  1
  O  O196  1  0.34364167  0.73567507  -0.05389670  1
  O  O197  1  0.37058554  0.73485206  0.49867327  1
  O  O198  1  0.85751381  0.26347077  -0.00020222  1
  O  O199  1  0.86456262  0.25561110  0.50140950  1
  O  O200  1  0.86461102  0.76345163  -0.01602382  1
  O  O201  1  0.88366879  0.75707090  0.51317012  1
  O  O202  1  0.13203362  0.23813548  0.49884811  1
  O  O203  1  0.13755485  0.22476711  1.01240038  1
  O  O204  1  0.12065567  0.73897213  0.50303187  1
  O  O205  1  0.12136973  0.73957814  0.99683947  1
  O  O206  1  0.63652065  0.24745262  0.50512490  1
  O  O207  1  0.62321287  0.24034158  1.00308849  1
  O  O208  1  0.62696672  0.73289287  0.49664577  1
  O  O209  1  0.63759940  0.75042750  0.98825498  1
  O  O210  1  0.48402058  0.23942751  0.13613654  1
  O  O211  1  0.48479499  0.24395467  0.62970905  1
  O  O212  1  0.50077342  0.76959695  0.14830639  1
  O  O213  1  0.50932279  0.76874090  0.63441089  1
  O  O214  1  1.00690291  0.24649545  0.13243649  1
  O  O215  1  1.00724602  0.23165607  0.62330529  1
  O  O216  1  0.99144205  0.73722787  0.11477549  1
  O  O217  1  0.98105867  0.75646444  0.63974356  1
  O  O218  1  0.01663033  0.23745320  0.38586383  1
  O  O219  1  0.01305219  0.24090887  0.88467537  1
  O  O220  1  -0.00395043  0.73927421  0.36616250  1
  O  O221  1  -0.00799947  0.75098730  0.85898081  1
  O  O222  1  0.48873549  0.25651568  0.36516962  1
  O  O223  1  0.49243370  0.26732363  0.89283468  1
  O  O224  1  0.50042633  0.74549065  0.36458474  1
  O  O225  1  0.51936551  0.76279799  0.86355965  1
  O  O226  1  0.23959507  0.12618172  0.49827497  1
  O  O227  1  0.24168564  0.11485790  0.99558347  1
  O  O228  1  0.24027191  0.64098723  0.50748536  1
  O  O229  1  0.23125413  0.61720948  1.00418142  1
  O  O230  1  0.74203911  0.13988225  0.51278886  1
  O  O231  1  0.74285185  0.13196119  0.99847560  1
  O  O232  1  0.74015546  0.61326277  0.49025654  1
  O  O233  1  0.75148717  0.64770701  0.99971973  1
  O  O234  1  0.22940480  0.34823861  0.00770299  1
  O  O235  1  0.24200673  0.35670953  0.50188415  1
  O  O236  1  0.25431592  0.86369118  0.01419574  1
  O  O237  1  0.24888925  0.85790821  0.51265715  1
  O  O238  1  0.72972482  0.36399003  -0.00070734  1
  O  O239  1  0.75137681  0.36463674  0.51124389  1
  O  O240  1  0.75783422  0.87878943  0.00806492  1
  O  O241  1  0.75924129  0.87931502  0.51230623  1
  O  O242  1  0.13351615  0.48151063  0.25636570  1
  O  O243  1  0.12615958  0.50889119  0.73488425  1
  O  O244  1  0.11220706  0.97517271  0.25558805  1
  O  O245  1  0.13021180  0.99375084  0.74049726  1
  O  O246  1  0.63744221  0.49611838  0.24638880  1
  O  O247  1  0.64131144  0.49482668  0.75008057  1
  O  O248  1  0.63930971  0.99419498  0.26087802  1
  O  O249  1  0.62846216  0.99005621  0.75719970  1
  O  O250  1  0.37717288  0.01079442  0.25825773  1
  O  O251  1  0.36395804  -0.00353959  0.76042811  1
  O  O252  1  0.36403049  0.49307012  0.24470220  1
  O  O253  1  0.35121243  0.50878940  0.73584559  1
  O  O254  1  0.87279898  0.00610059  0.25721259  1
  O  O255  1  0.87391701  0.00131269  0.76199840  1
  O  O256  1  0.85649710  0.48794222  0.25697560  1
  O  O257  1  0.87480233  0.51091002  0.74985227  1
  O  O258  1  0.12176345  0.35813206  0.37965938  1
  O  O259  1  0.13105974  0.38249138  0.85962565  1
  O  O260  1  0.12976047  0.86933494  0.36910160  1
  O  O261  1  0.13949772  0.86514777  0.86877837  1
  O  O262  1  0.60975637  0.36917721  0.37581777  1
  O  O263  1  0.63257075  0.37707110  0.85441813  1
  O  O264  1  0.60736474  0.87786235  0.40213157  1
  O  O265  1  0.62162326  0.87433335  0.86696016  1
  O  O266  1  0.38162215  0.12399719  0.13562244  1
  O  O267  1  0.38853533  0.13576993  0.62353850  1
  O  O268  1  0.38198919  0.62624806  0.11609540  1
  O  O269  1  0.38479853  0.62228644  0.63820672  1
  O  O270  1  0.87887202  0.12064146  0.14236128  1
  O  O271  1  0.88750531  0.11865273  0.63991859  1
  O  O272  1  0.89271680  0.61085540  0.12036019  1
  O  O273  1  0.86792976  0.63720142  0.62876695  1
  O  O274  1  0.25723101  0.23605833  0.12112189  1
  O  O275  1  0.26290932  0.23435282  0.61257742  1
  O  O276  1  0.24839411  0.75186573  0.12913879  1
  O  O277  1  0.25006264  0.76135148  0.62571008  1
  O  O278  1  0.74730301  0.24987881  0.11588817  1
  O  O279  1  0.75299599  0.26135402  0.62407990  1
  O  O280  1  0.75104335  0.76734756  0.10812985  1
  O  O281  1  0.76705794  0.76541233  0.63251301  1
  O  O282  1  0.24177962  0.23730791  0.38992771  1
  O  O283  1  0.25524296  0.22849756  0.89347421  1
  O  O284  1  0.25903106  0.75188031  0.38882864  1
  O  O285  1  0.28499837  0.74530055  0.89435883  1
  O  O286  1  0.74872505  0.24814707  0.39034078  1
  O  O287  1  0.74678050  0.24156383  0.88667203  1
  O  O288  1  0.75536534  0.73393828  0.37009528  1
  O  O289  1  0.73968987  0.76509569  0.88451744  1
  O  O290  1  0.01908922  0.10908806  -0.00019033  1
  O  O291  1  0.00469494  0.11383025  0.51597727  1
  O  O292  1  0.00431829  0.61464172  0.00359639  1
  O  O293  1  0.00485649  0.61486127  0.49975397  1
  O  O294  1  0.50386445  0.11845289  0.00994781  1
  O  O295  1  0.51293184  0.12966545  0.51147202  1
  O  O296  1  0.51935279  0.64684424  0.00154964  1
  O  O297  1  0.51854853  0.60663887  0.49372268  1
  O  O298  1  0.50302598  0.37740968  0.49150634  1
  O  O299  1  0.48744058  0.33159453  0.95187385  1
  O  O300  1  0.54747192  0.87570352  0.45167142  1
  O  O301  1  0.51474611  0.88412662  0.98979292  1
  O  O302  1  0.98861907  0.36906420  0.50658970  1
  O  O303  1  1.01039696  0.38509724  0.99513972  1
  O  O304  1  0.98945496  0.88631960  0.51240985  1
  O  O305  1  0.99471668  0.88805898  1.00039270  1
  O  O306  1  0.49872831  0.48276236  0.38265831  1
  O  O307  1  0.50249720  0.50848558  0.88400642  1
  O  O308  1  0.48534124  1.00231037  0.37503528  1
  O  O309  1  0.49636558  0.99573657  0.88255661  1
  O  O310  1  0.99969990  0.49874429  0.39153513  1
  O  O311  1  0.98451002  0.50544799  0.88878124  1
  O  O312  1  0.99164294  1.00213661  0.39212062  1
  O  O313  1  0.99044035  1.01018921  0.87653242  1
  O  O314  1  -0.00093865  -0.00312119  0.11639509  1
  O  O315  1  0.01176887  0.00438315  0.62355555  1
  O  O316  1  0.00121663  0.50301421  0.10133882  1
  O  O317  1  0.01022751  0.49537776  0.60855396  1
  O  O318  1  0.49293607  0.00656698  0.11861320  1
  O  O319  1  0.49513871  0.01569087  0.62892498  1
  O  O320  1  0.39976896  0.55280153  0.08221746  1
  O  O321  1  0.49560459  0.49103217  0.60866382  1
  O  O322  1  0.23756409  0.37883353  0.25990747  1
  O  O323  1  0.23482028  0.39439081  0.74772228  1
  O  O324  1  0.23401449  0.86055893  0.24546872  1
  O  O325  1  0.25305543  0.88111841  0.73736421  1
  O  O326  1  0.74045470  0.37217712  0.25117195  1
  O  O327  1  0.75022517  0.38287074  0.73756701  1
  O  O328  1  0.75348332  0.88045879  0.23573113  1
  O  O329  1  0.74661978  0.88064023  0.74175167  1
  O  O330  1  0.25644261  0.12771567  0.26429928  1
  O  O331  1  0.23919801  0.11040457  0.76784965  1
  O  O332  1  0.24403510  0.59990352  0.23858168  1
  O  O333  1  0.25275184  0.62794482  0.73903693  1
  O  O334  1  0.75563266  0.11056214  0.24621563  1
  O  O335  1  0.75870168  0.12882145  0.75538584  1
  O  O336  1  0.74637625  0.61562677  0.26224519  1
  O  O337  1  0.75949025  0.61342775  0.74230657  1
  O  O338  1  0.36751003  0.11676421  0.37162478  1
  O  O339  1  0.36224039  0.11067705  0.88134785  1
  O  O340  1  0.38797967  0.59660380  0.36298953  1
  O  O341  1  0.38877966  0.62135907  0.83453923  1
  O  O342  1  0.87567579  0.11207337  0.36857982  1
  O  O343  1  0.86957003  0.11894840  0.85987890  1
  O  O344  1  0.85598278  0.61022279  0.38668531  1
  O  O345  1  0.87137272  0.61711332  0.86206671  1
  O  O346  1  0.12955154  0.36176601  0.14318698  1
  O  O347  1  0.12478225  0.38959088  0.63538733  1
  O  O348  1  0.13674764  0.87550667  0.13353527  1
  O  O349  1  0.13145755  0.88630182  0.61966322  1
  O  O350  1  0.52117773  0.41896997  0.10075732  1
  O  O351  1  0.63811116  0.37181344  0.63792838  1
  O  O352  1  0.64116908  0.88128537  0.12055394  1
  O  O353  1  0.64318674  0.87141035  0.63042850  1
  O  O354  1  0.13211429  0.25529104  0.26937480  1
  O  O355  1  0.13247332  0.26275544  0.74693277  1
  O  O356  1  0.11033821  0.75550970  0.24809685  1
  O  O357  1  0.10289596  0.74199168  0.74493937  1
  O  O358  1  0.60545644  0.24025117  0.25035373  1
  O  O359  1  0.62189784  0.26525017  0.75456628  1
  O  O360  1  0.61711208  0.75875129  0.25364256  1
  O  O361  1  0.62849045  0.76283905  0.75719499  1
  O  O362  1  0.37487352  0.23762890  0.24429720  1
  O  O363  1  0.35979981  0.24629086  0.74671793  1
  O  O364  1  0.39017220  0.73413461  0.25296418  1
  O  O365  1  0.39269335  0.74464071  0.74384377  1
  O  O366  1  0.88329446  0.23693079  0.25843519  1
  O  O367  1  0.87061404  0.24331570  0.75379479  1
  O  O368  1  0.89271345  0.75323728  0.24588919  1
  O  O369  1  0.87777281  0.73950999  0.74516988  1
  O  O370  1  0.38695592  0.50515939  0.49147971  1
  O  O371  1  0.37431683  0.54555096  1.00761850  1
  O  O372  1  0.37234601  0.99873841  0.49184772  1
  O  O373  1  0.39126272  1.00035285  0.99177958  1
  O  O374  1  0.88941604  0.48895079  0.50580090  1
  O  O375  1  0.86173690  0.50152444  0.98370916  1
  O  O376  1  0.87959630  0.99549771  0.49550527  1
  O  O377  1  0.88864787  1.00105054  0.99253641  1
  O  O378  1  0.11581913  -0.00128770  0.00311811  1
  O  O379  1  0.12012908  0.00542643  0.50940938  1
  O  O380  1  0.12035564  0.50602122  -0.01409479  1
  O  O381  1  0.11548661  0.50050162  0.50558565  1
  O  O382  1  0.61524051  0.01557656  -0.00478886  1
  O  O383  1  0.63699566  0.01731631  0.51114376  1
  O  O384  1  0.63975960  0.52975771  -0.01017130  1
  O  O385  1  0.61662209  0.49282524  0.50355971  1
  O  O386  1  0.36695674  0.35389290  0.13253911  1
  O  O387  1  0.37175260  0.35268298  0.62831229  1
  O  O388  1  0.36036573  0.86578956  0.13329202  1
  O  O389  1  0.36383859  0.87864775  0.62380118  1
  O  O390  1  0.89504998  0.36113124  0.14102626  1
  O  O391  1  0.86301619  0.37588686  0.61353316  1
  O  O392  1  0.86865368  0.88223952  0.11015676  1
  O  O393  1  0.86716462  0.86878324  0.61628356  1
  O  O394  1  0.13094819  0.12688244  0.38673338  1
  O  O395  1  0.13798084  0.11324220  0.89175188  1
  O  O396  1  0.12517621  0.61578984  0.39409152  1
  O  O397  1  0.11689076  0.63528065  0.88649366  1
  O  O398  1  0.62144534  0.12457651  0.39546530  1
  O  O399  1  0.63387261  0.13124792  0.88485867  1
  O  O400  1  0.64059428  0.61405314  0.38755446  1
  O  O401  1  0.62938203  0.64398986  0.87284232  1
