# generated using pymatgen
data_V73Zn73O256
_symmetry_space_group_name_H-M   'P 1'
_cell_length_a   16.91924196
_cell_length_b   16.95720852
_cell_length_c   16.95111267
_cell_angle_alpha   90.40982830
_cell_angle_beta   90.09000736
_cell_angle_gamma   90.22558438
_symmetry_Int_Tables_number   1
_chemical_formula_structural   V73Zn73O256
_chemical_formula_sum   'V73 Zn73 O256'
_cell_volume   4863.15868553
_cell_formula_units_Z   1
loop_
 _symmetry_equiv_pos_site_id
 _symmetry_equiv_pos_as_xyz
  1  'x, y, z'
loop_
 _atom_site_type_symbol
 _atom_site_label
 _atom_site_symmetry_multiplicity
 _atom_site_fract_x
 _atom_site_fract_y
 _atom_site_fract_z
 _atom_site_occupancy
  V  V0  1  0.49402880  0.47257525  -0.00877928  1
  V  V1  1  0.24856590  0.75167560  0.49645442  1
  V  V2  1  0.00294891  0.24785434  0.74286271  1
  V  V3  1  0.37006807  0.75367691  0.11097104  1
  V  V4  1  0.00763951  0.75571661  0.74195881  1
  V  V5  1  0.25075233  0.47653455  0.74154522  1
  V  V6  1  0.37553500  0.49506549  0.37862689  1
  V  V7  1  0.62395317  0.74946943  0.37187057  1
  V  V8  1  0.12009968  0.00036709  0.65341468  1
  V  V9  1  0.11905255  0.75667582  0.36781025  1
  V  V10  1  0.86579964  0.38523973  0.52184276  1
  V  V11  1  0.24687415  0.88428001  0.63486190  1
  V  V12  1  0.63185040  0.49160665  0.63688510  1
  V  V13  1  0.49546161  0.36988812  0.38321820  1
  V  V14  1  0.11402408  0.11905974  0.01459194  1
  V  V15  1  -0.00830840  0.39060369  0.37315640  1
  V  V16  1  0.74451519  0.61527922  0.36396728  1
  V  V17  1  0.86544916  0.12801307  0.26285380  1
  V  V18  1  0.74725325  0.00752507  0.26378718  1
  V  V19  1  0.73736135  0.11666597  0.87933963  1
  V  V20  1  0.49933434  0.74794243  0.75528813  1
  V  V21  1  0.49293293  0.62624450  0.62687898  1
  V  V22  1  0.37386792  0.87488243  0.49766186  1
  V  V23  1  0.62691143  0.86847826  0.75480710  1
  V  V24  1  -0.02676054  0.36782134  0.88312792  1
  V  V25  1  0.36222464  0.00296938  0.36785161  1
  V  V26  1  0.50187141  0.75089254  0.24628856  1
  V  V27  1  0.50530568  0.62760799  0.10757044  1
  V  V28  1  0.49641336  0.26383958  0.75267766  1
  V  V29  1  0.62081541  0.61950546  0.49832725  1
  V  V30  1  0.36466356  0.12533434  0.25092858  1
  V  V31  1  0.85660165  0.88006804  0.00777029  1
  V  V32  1  0.37258515  0.49757431  0.86364838  1
  V  V33  1  0.50211024  0.00235069  0.49786308  1
  V  V34  1  0.01358997  0.87313541  0.88127742  1
  V  V35  1  0.63179430  0.87951938  0.24426730  1
  V  V36  1  0.63403634  -0.00454145  0.62413334  1
  V  V37  1  0.62792683  0.50157646  0.12351470  1
  V  V38  1  0.88304495  0.11846237  0.73994777  1
  V  V39  1  0.88320968  0.00171621  0.88658606  1
  V  V40  1  0.64000647  0.73708380  0.88590453  1
  V  V41  1  0.49708302  0.12024756  0.11793427  1
  V  V42  1  0.73683965  0.36747037  0.14209194  1
  V  V43  1  0.62628940  0.00406054  0.11330870  1
  V  V44  1  0.63162420  0.24870771  0.38025496  1
  V  V45  1  0.36691013  0.25654329  0.61729689  1
  V  V46  1  0.87613230  0.24610362  0.11627527  1
  V  V47  1  0.74298863  0.25511903  -0.00490528  1
  V  V48  1  0.12601714  0.61746241  0.00252796  1
  V  V49  1  0.49260590  0.12033842  0.63655452  1
  V  V50  1  -0.00114467  0.24739285  0.24774874  1
  V  V51  1  0.62157733  0.26929859  0.86854797  1
  V  V52  1  0.12147268  0.38945883  0.23439517  1
  V  V53  1  0.25079279  0.62300748  0.36876577  1
  V  V54  1  0.23238463  0.89781871  0.13338259  1
  V  V55  1  0.87740371  0.62252587  0.24425182  1
  V  V56  1  0.37914940  0.89081634  -0.00002511  1
  V  V57  1  0.50296067  0.87503001  0.37378423  1
  V  V58  1  0.12649972  0.24852068  0.38341834  1
  V  V59  1  0.50125109  0.24634038  0.25145005  1
  V  V60  1  0.12921768  0.25659899  0.87662860  1
  V  V61  1  0.25410329  0.11823067  0.87211409  1
  V  V62  1  0.87724249  0.88235824  0.50010723  1
  V  V63  1  0.75580889  0.74438364  0.49928358  1
  V  V64  1  0.87542864  0.63205485  0.71695279  1
  V  V65  1  0.75368679  0.86299333  0.62307205  1
  V  V66  1  0.25963409  0.26520643  0.01525787  1
  V  V67  1  -0.00623563  0.88422732  0.37008800  1
  V  V68  1  0.63859578  0.12611504  0.50137660  1
  V  V69  1  0.30847038  0.44051264  0.19658456  1
  V  V70  1  0.10900647  0.62068183  0.50067079  1
  V  V71  1  0.86146023  0.75466514  0.12412715  1
  V  V72  1  0.37471661  0.62745303  0.24463769  1
  Zn  Zn73  1  0.76251714  0.25219596  0.51251917  1
  Zn  Zn74  1  0.91866982  0.05760804  0.44178610  1
  Zn  Zn75  1  0.00306895  0.75443163  0.23672109  1
  Zn  Zn76  1  0.36943595  0.00635579  0.88695569  1
  Zn  Zn77  1  0.36718222  0.74695557  0.63321702  1
  Zn  Zn78  1  0.86742034  0.50220121  0.37381391  1
  Zn  Zn79  1  0.13087647  0.50898199  0.63404952  1
  Zn  Zn80  1  0.75524917  -0.00555976  0.75082702  1
  Zn  Zn81  1  0.49422917  0.48901131  0.50708616  1
  Zn  Zn82  1  0.18591245  0.19755025  0.18845370  1
  Zn  Zn83  1  0.18842342  0.18322002  0.69305673  1
  Zn  Zn84  1  0.19079739  0.69850801  0.18778143  1
  Zn  Zn85  1  0.17151179  0.70002359  0.68073156  1
  Zn  Zn86  1  0.68210739  0.18365226  0.18879072  1
  Zn  Zn87  1  0.68322525  0.17540263  0.69670672  1
  Zn  Zn88  1  0.68845665  0.68956060  0.18223666  1
  Zn  Zn89  1  0.68840942  0.67722692  0.69098376  1
  Zn  Zn90  1  0.30855562  0.30505188  0.31641617  1
  Zn  Zn91  1  0.31683204  0.31314374  0.81544407  1
  Zn  Zn92  1  0.31193516  0.81458043  0.30644251  1
  Zn  Zn93  1  0.31496828  0.81566284  0.81496809  1
  Zn  Zn94  1  0.80949379  0.30860350  0.31432656  1
  Zn  Zn95  1  0.81043737  0.30057702  0.79839334  1
  Zn  Zn96  1  0.80964386  0.81043625  0.31240437  1
  Zn  Zn97  1  0.81662703  0.80657520  0.81193124  1
  Zn  Zn98  1  0.17619704  0.44554028  0.41882313  1
  Zn  Zn99  1  0.19146954  0.43654592  0.92647562  1
  Zn  Zn100  1  0.18412707  0.93746443  0.43510921  1
  Zn  Zn101  1  0.19363482  0.93959094  0.95688411  1
  Zn  Zn102  1  0.68516331  0.43226657  0.44298707  1
  Zn  Zn103  1  0.68346928  0.43650161  0.94696127  1
  Zn  Zn104  1  0.69185956  0.93660528  0.43851291  1
  Zn  Zn105  1  0.68327019  0.93440512  0.93524605  1
  Zn  Zn106  1  0.30077549  0.07146446  0.06421404  1
  Zn  Zn107  1  0.30880517  0.06163040  0.56528384  1
  Zn  Zn108  1  0.32151985  0.56191927  0.05055900  1
  Zn  Zn109  1  0.30909501  0.56142325  0.56018421  1
  Zn  Zn110  1  0.80491765  0.06717470  0.06574242  1
  Zn  Zn111  1  1.00858254  0.12095941  0.60630031  1
  Zn  Zn112  1  0.81740217  0.55576303  0.07135005  1
  Zn  Zn113  1  0.81088866  0.55832458  0.55955515  1
  Zn  Zn114  1  0.47824386  0.43942332  0.19444749  1
  Zn  Zn115  1  0.43406321  0.43722453  0.68588980  1
  Zn  Zn116  1  0.44006294  0.93869745  0.18565599  1
  Zn  Zn117  1  0.44232294  0.92847122  0.68444669  1
  Zn  Zn118  1  0.92080085  0.42443071  0.19533514  1
  Zn  Zn119  1  0.96041916  0.44668376  0.69238643  1
  Zn  Zn120  1  0.92832866  0.94150848  0.19360249  1
  Zn  Zn121  1  0.93952491  0.93346763  0.69134664  1
  Zn  Zn122  1  0.05399524  0.07119699  0.31537586  1
  Zn  Zn123  1  0.06726497  0.06607407  0.82512671  1
  Zn  Zn124  1  0.06147672  0.57016883  0.30736514  1
  Zn  Zn125  1  -0.01906151  0.56770579  0.83884846  1
  Zn  Zn126  1  0.56184863  0.06641440  0.31324741  1
  Zn  Zn127  1  0.55730505  0.05265558  0.81039319  1
  Zn  Zn128  1  0.56004409  0.55837635  0.30826189  1
  Zn  Zn129  1  0.56503816  0.56018668  0.81784479  1
  Zn  Zn130  1  0.43854128  0.18326071  0.43975494  1
  Zn  Zn131  1  0.43348971  0.19947669  0.93673356  1
  Zn  Zn132  1  0.43704364  0.68633372  0.43590718  1
  Zn  Zn133  1  0.43810929  0.68670369  0.92823329  1
  Zn  Zn134  1  0.96774455  0.22475058  0.46377418  1
  Zn  Zn135  1  0.93856243  0.18737019  0.93638004  1
  Zn  Zn136  1  0.93346542  0.69060007  0.42984420  1
  Zn  Zn137  1  0.92872062  0.71045912  0.93826624  1
  Zn  Zn138  1  0.06211588  0.30940065  0.05577392  1
  Zn  Zn139  1  0.06002036  0.33692484  0.56643609  1
  Zn  Zn140  1  0.03684862  0.84793325  0.07549535  1
  Zn  Zn141  1  0.06230977  0.81735463  0.56022160  1
  Zn  Zn142  1  0.56253995  0.30165751  0.06125340  1
  Zn  Zn143  1  0.55716183  0.30891015  0.56379231  1
  Zn  Zn144  1  0.55967473  0.81897552  0.05789111  1
  Zn  Zn145  1  0.56479292  0.80759641  0.56169179  1
  O  O146  1  0.12242386  0.14081075  0.11414918  1
  O  O147  1  0.12543400  0.10398101  0.63657830  1
  O  O148  1  0.14620959  0.62495106  0.10641765  1
  O  O149  1  0.12778405  0.62642105  0.60508441  1
  O  O150  1  0.61039150  0.11478103  0.12836977  1
  O  O151  1  0.61722622  0.11277240  0.62177820  1
  O  O152  1  0.62159938  0.61066223  0.12726511  1
  O  O153  1  0.61546496  0.61843694  0.61493864  1
  O  O154  1  0.37844257  0.38618395  0.36412244  1
  O  O155  1  0.38393391  0.39352143  0.86419374  1
  O  O156  1  0.38152547  0.88410475  0.37889678  1
  O  O157  1  0.35254852  0.87648620  0.89943816  1
  O  O158  1  0.88491538  0.38614747  0.34880382  1
  O  O159  1  0.87135955  0.36340517  0.87003240  1
  O  O160  1  0.88288724  0.86690763  0.38651912  1
  O  O161  1  0.86536581  0.89131009  0.88577807  1
  O  O162  1  0.26408836  -0.00882722  0.37006440  1
  O  O163  1  0.24912422  0.01447385  0.88625152  1
  O  O164  1  0.25784931  0.51485891  0.37291322  1
  O  O165  1  0.26503745  0.49626751  0.86079764  1
  O  O166  1  0.74640256  0.00297100  0.36425632  1
  O  O167  1  0.75456351  0.00861663  0.87536658  1
  O  O168  1  0.74141775  0.51184959  0.37482488  1
  O  O169  1  0.76540822  0.51963261  0.91987814  1
  O  O170  1  0.26710497  0.49934934  0.12944300  1
  O  O171  1  0.25309047  0.50264298  0.63559250  1
  O  O172  1  0.24635475  0.99776860  0.13476619  1
  O  O173  1  0.24670473  0.98964457  0.63233924  1
  O  O174  1  0.73622491  0.48493539  0.12138839  1
  O  O175  1  0.73011693  0.50505951  0.61937043  1
  O  O176  1  0.73033906  1.01196247  0.13717202  1
  O  O177  1  0.73763040  0.98568427  0.62654948  1
  O  O178  1  0.00576056  0.37042203  0.24972264  1
  O  O179  1  -0.01302927  0.34791898  0.75945132  1
  O  O180  1  -0.01319443  0.87338259  0.26768835  1
  O  O181  1  -0.01052645  0.86909288  0.77168793  1
  O  O182  1  0.49976041  0.35165076  0.26389178  1
  O  O183  1  0.50581732  0.36086219  0.74146985  1
  O  O184  1  0.50933116  0.87133979  0.25554604  1
  O  O185  1  0.52067712  0.85642771  0.73198481  1
  O  O186  1  0.49116596  0.13147541  0.24793691  1
  O  O187  1  0.50613585  0.12643757  0.73726116  1
  O  O188  1  0.48988875  0.62963995  0.24029248  1
  O  O189  1  0.50747371  0.63723237  0.73490155  1
  O  O190  1  0.98178744  0.13923813  0.25129441  1
  O  O191  1  0.99152125  0.12537679  0.75687193  1
  O  O192  1  0.98157512  0.63491169  0.25441200  1
  O  O193  1  0.99475632  0.64939514  0.75474031  1
  O  O194  1  0.35920997  0.25910241  -0.00374810  1
  O  O195  1  0.37733100  0.23453389  0.51812949  1
  O  O196  1  0.37994569  0.75081549  0.00878911  1
  O  O197  1  0.36766287  0.76204251  0.49483904  1
  O  O198  1  0.86256909  0.24146919  0.01237728  1
  O  O199  1  0.87480036  0.27809631  0.49810594  1
  O  O200  1  0.86661916  0.76819352  0.01191952  1
  O  O201  1  0.85950222  0.75431014  0.49378491  1
  O  O202  1  0.09466183  0.26404740  0.48204000  1
  O  O203  1  0.13085377  0.24477986  0.98833176  1
  O  O204  1  0.13189630  0.74387014  0.49047122  1
  O  O205  1  0.13690324  0.71762571  0.98584746  1
  O  O206  1  0.62154399  0.24151351  0.49428992  1
  O  O207  1  0.62699250  0.25017713  0.97779364  1
  O  O208  1  0.63088055  0.74012577  0.49123373  1
  O  O209  1  0.61997489  0.76115575  0.98254103  1
  O  O210  1  0.51061840  0.23718526  0.14429804  1
  O  O211  1  0.49749614  0.23460352  0.63444055  1
  O  O212  1  0.49750554  0.74395989  0.12875514  1
  O  O213  1  0.50121637  0.73883548  0.62897327  1
  O  O214  1  0.97989755  0.25927798  0.13106409  1
  O  O215  1  1.01593920  0.24368936  0.64033459  1
  O  O216  1  0.97670266  0.76553128  0.12576148  1
  O  O217  1  0.99987083  0.77015806  0.64116098  1
  O  O218  1  -0.00039774  0.26808050  0.35823146  1
  O  O219  1  0.00877053  0.25131681  0.86821052  1
  O  O220  1  0.00676017  0.76157917  0.37369263  1
  O  O221  1  -0.00065656  0.76891538  0.87412159  1
  O  O222  1  0.50310967  0.25173988  0.37225801  1
  O  O223  1  0.51041919  0.24941968  0.86436790  1
  O  O224  1  0.50442664  0.75479771  0.36748702  1
  O  O225  1  0.51043047  0.74656395  0.85760163  1
  O  O226  1  0.21641684  0.08915204  0.49600410  1
  O  O227  1  0.24019621  0.14214659  0.99680088  1
  O  O228  1  0.25190077  0.63865193  0.48619274  1
  O  O229  1  0.23286237  0.60953194  0.99108498  1
  O  O230  1  0.73731137  0.13724089  0.51474528  1
  O  O231  1  0.74864437  0.13474973  0.98465479  1
  O  O232  1  0.73880841  0.62917033  0.48860507  1
  O  O233  1  0.76446135  0.58036873  0.96804886  1
  O  O234  1  0.23896946  0.36364169  -0.00263451  1
  O  O235  1  0.24172889  0.37891835  0.50500921  1
  O  O236  1  0.26408457  0.87937630  0.02741908  1
  O  O237  1  0.25782861  0.86981954  0.50012121  1
  O  O238  1  0.74744118  0.35819703  0.00498287  1
  O  O239  1  0.75941733  0.37240264  0.50505033  1
  O  O240  1  0.75744941  0.88218774  0.00295408  1
  O  O241  1  0.75480322  0.86313952  0.50303699  1
  O  O242  1  0.11728501  0.48973771  0.24617826  1
  O  O243  1  0.15723499  0.51397021  0.75304986  1
  O  O244  1  0.08483112  1.00636759  0.21543622  1
  O  O245  1  0.12274623  0.99343434  0.75169906  1
  O  O246  1  0.59419682  0.48836684  0.22223707  1
  O  O247  1  0.61979204  0.50403365  0.73620018  1
  O  O248  1  0.62928170  0.99582197  0.24950170  1
  O  O249  1  0.62644676  0.98344121  0.74043392  1
  O  O250  1  0.38274181  0.00767259  0.26280715  1
  O  O251  1  0.41254294  -0.00850258  0.77404434  1
  O  O252  1  0.37485279  0.50902393  0.25470293  1
  O  O253  1  0.36526319  0.50130218  0.75159656  1
  O  O254  1  0.86234032  0.01994157  0.24167117  1
  O  O255  1  0.87378413  0.00453920  0.76478939  1
  O  O256  1  0.87302438  0.52000932  0.23833390  1
  O  O257  1  0.90653112  0.53230139  0.74518724  1
  O  O258  1  0.10758162  0.37460065  0.36134609  1
  O  O259  1  0.12398979  0.35686196  0.87385950  1
  O  O260  1  0.10649178  0.86991009  0.38666188  1
  O  O261  1  0.11168878  0.88549849  0.89194253  1
  O  O262  1  0.61316538  0.35711745  0.38463572  1
  O  O263  1  0.63716785  0.36712196  0.86556118  1
  O  O264  1  0.62116142  0.86947991  0.36812636  1
  O  O265  1  0.62763055  0.87074708  0.85738679  1
  O  O266  1  0.38617937  0.11512807  0.14325269  1
  O  O267  1  0.39025791  0.11755744  0.62543300  1
  O  O268  1  0.38413811  0.63477879  0.12564446  1
  O  O269  1  0.38901378  0.63054286  0.61533552  1
  O  O270  1  0.86191500  0.14280309  0.13395214  1
  O  O271  1  0.88335146  0.10948320  0.64275482  1
  O  O272  1  0.86413026  0.64096985  0.13273743  1
  O  O273  1  0.87846864  0.63119314  0.61609117  1
  O  O274  1  0.25113830  0.25699294  0.11584623  1
  O  O275  1  0.26971333  0.23499920  0.63578554  1
  O  O276  1  0.27035052  0.74657917  0.12336777  1
  O  O277  1  0.24897322  0.76148145  0.61075601  1
  O  O278  1  0.74066339  0.25493198  0.11688940  1
  O  O279  1  0.75031541  0.25926439  0.64752611  1
  O  O280  1  0.75982993  0.75967689  0.12820888  1
  O  O281  1  0.73852670  0.75561641  0.61210427  1
  O  O282  1  0.22654183  0.26601644  0.38241495  1
  O  O283  1  0.23974658  0.24494170  0.87644603  1
  O  O284  1  0.24298474  0.74845339  0.37910318  1
  O  O285  1  0.25815180  0.70821383  0.82751257  1
  O  O286  1  0.73320350  0.25337012  0.37960256  1
  O  O287  1  0.73629643  0.23828198  0.87411078  1
  O  O288  1  0.74160964  0.74016961  0.38064872  1
  O  O289  1  0.73948565  0.75238333  0.87550983  1
  O  O290  1  0.01336364  0.13104481  -0.00234377  1
  O  O291  1  -0.01052097  0.12244026  0.49655710  1
  O  O292  1  0.02858812  0.61723064  0.03416763  1
  O  O293  1  0.01063922  0.62970247  0.48870632  1
  O  O294  1  0.48874232  0.13742764  0.02100900  1
  O  O295  1  0.50749904  0.11294205  0.51168274  1
  O  O296  1  0.50264672  0.63039979  0.00847492  1
  O  O297  1  0.50791921  0.62967977  0.50779788  1
  O  O298  1  0.49264319  0.37142250  0.48733493  1
  O  O299  1  0.49513897  0.37406144  1.00409408  1
  O  O300  1  0.49384407  0.88195592  0.49730214  1
  O  O301  1  0.47934162  0.87651139  1.00138294  1
  O  O302  1  0.98075092  0.37968620  0.47601754  1
  O  O303  1  0.98920400  0.35436479  0.98249658  1
  O  O304  1  0.98230172  0.87270886  0.49488048  1
  O  O305  1  0.97806754  0.87997262  0.98532903  1
  O  O306  1  0.49253575  0.48731478  0.37163042  1
  O  O307  1  0.50684228  0.49237731  0.88927173  1
  O  O308  1  0.49815637  0.99507739  0.38602489  1
  O  O309  1  0.47503076  0.97920013  0.83751075  1
  O  O310  1  0.99595933  0.49287137  0.36370890  1
  O  O311  1  1.00505215  0.46155696  0.86408051  1
  O  O312  1  0.99771611  0.98886497  0.37542175  1
  O  O313  1  0.98589684  0.99402008  0.87571320  1
  O  O314  1  0.03066370  0.00068613  0.16135529  1
  O  O315  1  0.01792394  -0.00737776  0.63002719  1
  O  O316  1  -0.03380951  0.47986415  0.09512388  1
  O  O317  1  0.05213570  0.43069100  0.62686234  1
  O  O318  1  0.50952955  0.01243534  0.12963839  1
  O  O319  1  0.50853305  0.00314995  0.61712676  1
  O  O320  1  0.50119917  0.50892759  0.10510254  1
  O  O321  1  0.50161904  0.51507127  0.62375355  1
  O  O322  1  0.23722452  0.37910906  0.24943946  1
  O  O323  1  0.24640286  0.37680295  0.74590256  1
  O  O324  1  0.25358729  0.86823733  0.22974834  1
  O  O325  1  0.25400131  0.86510419  0.73159170  1
  O  O326  1  0.73565616  0.36401034  0.24073700  1
  O  O327  1  0.75469144  0.32337717  0.69562457  1
  O  O328  1  0.73815370  0.88577681  0.25548085  1
  O  O329  1  0.74241824  0.87040160  0.73918478  1
  O  O330  1  0.26625720  0.13464997  0.24717376  1
  O  O331  1  0.24677623  0.12450265  0.77291004  1
  O  O332  1  0.26287042  0.63553067  0.25760537  1
  O  O333  1  0.25603270  0.66488826  0.76453042  1
  O  O334  1  0.75628512  0.12432114  0.25290836  1
  O  O335  1  0.76312108  0.12059179  0.76322872  1
  O  O336  1  0.75599472  0.63200770  0.25726553  1
  O  O337  1  0.77568410  0.62706167  0.74047847  1
  O  O338  1  0.37739995  0.10989675  0.36957013  1
  O  O339  1  0.35992230  0.12665350  0.88593408  1
  O  O340  1  0.37221365  0.62012604  0.36279175  1
  O  O341  1  0.39239632  0.60111885  0.87222861  1
  O  O342  1  0.87134083  0.12908273  0.36226744  1
  O  O343  1  0.86705756  0.11074598  0.87718851  1
  O  O344  1  0.86324284  0.62420834  0.36157649  1
  O  O345  1  0.92204721  0.60372338  0.92853659  1
  O  O346  1  0.11458556  0.37278585  0.13628873  1
  O  O347  1  0.20347793  0.36070309  0.56612855  1
  O  O348  1  0.13422309  0.87206247  0.12003207  1
  O  O349  1  0.14023011  0.89028552  0.61126728  1
  O  O350  1  0.63137433  0.37818812  0.11984987  1
  O  O351  1  0.61126652  0.39460561  0.61389828  1
  O  O352  1  0.61381809  0.89171276  0.13609324  1
  O  O353  1  0.63422704  0.87717541  0.62583091  1
  O  O354  1  0.11412142  0.26271011  0.25627077  1
  O  O355  1  0.11208131  0.23555745  0.76566179  1
  O  O356  1  0.12039882  0.74488182  0.26232912  1
  O  O357  1  0.10963079  0.75833641  0.75292833  1
  O  O358  1  0.61188883  0.23517210  0.27013550  1
  O  O359  1  0.61485831  0.24245037  0.76306954  1
  O  O360  1  0.62150681  0.75961965  0.25090095  1
  O  O361  1  0.62367171  0.75433540  0.75514191  1
  O  O362  1  0.38717445  0.23360823  0.26448658  1
  O  O363  1  0.39256947  0.24948380  0.74439754  1
  O  O364  1  0.38341285  0.74335022  0.24096012  1
  O  O365  1  0.39605864  0.76343198  0.74748915  1
  O  O366  1  0.87490709  0.24185172  0.24333268  1
  O  O367  1  0.88910596  0.22612084  0.75581519  1
  O  O368  1  0.87180998  0.74595795  0.23927744  1
  O  O369  1  0.88472951  0.73912368  0.75365023  1
  O  O370  1  0.37865499  0.50987327  0.48242727  1
  O  O371  1  0.38916176  0.49713604  0.98743608  1
  O  O372  1  0.38101871  0.99373743  0.48973316  1
  O  O373  1  0.37423096  0.99472245  1.00734593  1
  O  O374  1  0.86782071  0.48760313  0.48982008  1
  O  O375  1  0.91251697  0.48939372  1.04225660  1
  O  O376  1  0.85885484  0.97957763  0.49465037  1
  O  O377  1  0.86789077  0.99735916  0.99456855  1
  O  O378  1  0.12717199  0.01911529  0.00698471  1
  O  O379  1  0.15945927  0.03442406  0.49788906  1
  O  O380  1  0.13243029  0.51127617  -0.00218871  1
  O  O381  1  0.12952207  0.52054937  0.49164339  1
  O  O382  1  0.62660143  -0.00470840  0.01440344  1
  O  O383  1  0.62057743  0.00363737  0.50552296  1
  O  O384  1  0.60879062  0.49175475  0.01362453  1
  O  O385  1  0.61571525  0.51123383  0.49954273  1
  O  O386  1  0.37837580  0.38460669  0.15402044  1
  O  O387  1  0.38103414  0.35645730  0.62209895  1
  O  O388  1  0.37881841  0.86310772  0.12056227  1
  O  O389  1  0.36503532  0.87695529  0.61267356  1
  O  O390  1  0.84984079  0.35577312  0.13390813  1
  O  O391  1  0.88167574  0.39287639  0.61893072  1
  O  O392  1  0.87231787  0.87917023  0.11470766  1
  O  O393  1  0.86263458  0.87888935  0.61404321  1
  O  O394  1  0.11706870  0.14883077  0.36561520  1
  O  O395  1  0.13503594  0.13254331  0.88872514  1
  O  O396  1  0.13276136  0.63485096  0.37940558  1
  O  O397  1  0.09811476  0.60977563  0.90250641  1
  O  O398  1  0.61668584  0.13594638  0.39021758  1
  O  O399  1  0.63629093  0.11334910  0.86797168  1
  O  O400  1  0.62501530  0.62830387  0.37600774  1
  O  O401  1  0.62604138  0.63783539  0.87429232  1
