# generated using pymatgen
data_V73Zn73O256
_symmetry_space_group_name_H-M   'P 1'
_cell_length_a   16.91096964
_cell_length_b   16.92065217
_cell_length_c   16.87795160
_cell_angle_alpha   90.01276404
_cell_angle_beta   89.89514133
_cell_angle_gamma   89.87472470
_symmetry_Int_Tables_number   1
_chemical_formula_structural   V73Zn73O256
_chemical_formula_sum   'V73 Zn73 O256'
_cell_volume   4829.51554407
_cell_formula_units_Z   1
loop_
 _symmetry_equiv_pos_site_id
 _symmetry_equiv_pos_as_xyz
  1  'x, y, z'
loop_
 _atom_site_type_symbol
 _atom_site_label
 _atom_site_symmetry_multiplicity
 _atom_site_fract_x
 _atom_site_fract_y
 _atom_site_fract_z
 _atom_site_occupancy
  V  V0  1  0.73041916  0.49356983  0.23790756  1
  V  V1  1  0.76260556  -0.00026560  0.24949588  1
  V  V2  1  0.61772875  0.86387187  0.75770902  1
  V  V3  1  0.12499570  0.36873537  0.26559326  1
  V  V4  1  0.38469796  0.65415587  0.77847674  1
  V  V5  1  0.23716890  0.38579914  0.11378112  1
  V  V6  1  0.37083258  0.48090818  0.87336225  1
  V  V7  1  0.50779973  0.86631830  0.37364392  1
  V  V8  1  0.12917716  0.11661383  0.00175315  1
  V  V9  1  0.48285917  0.38874041  0.37092443  1
  V  V10  1  0.88195264  0.00435318  0.37352836  1
  V  V11  1  0.73916604  0.62528163  0.87193433  1
  V  V12  1  0.87785987  0.00108944  0.87431979  1
  V  V13  1  0.01049099  0.11647968  0.62702885  1
  V  V14  1  0.73762793  0.38644021  0.63024423  1
  V  V15  1  0.25656696  0.89735799  0.14154214  1
  V  V16  1  0.74447865  0.13571615  0.87449954  1
  V  V17  1  0.50748359  -0.03035660  0.00228616  1
  V  V18  1  0.74811035  0.25288900  0.01572359  1
  V  V19  1  0.74258274  0.00243776  0.74427280  1
  V  V20  1  0.13470174  0.88944722  0.25342456  1
  V  V21  1  0.87693308  0.86493404  0.50107532  1
  V  V22  1  0.00437323  0.50479270  0.50726324  1
  V  V23  1  -0.00591653  0.00095875  0.00906825  1
  V  V24  1  0.74771302  0.25280469  0.49034478  1
  V  V25  1  0.87653652  0.63194228  0.75199477  1
  V  V26  1  0.00125155  0.75735551  0.77148591  1
  V  V27  1  0.24607175  0.25186346  -0.00654558  1
  V  V28  1  0.25336543  0.25874776  0.49631190  1
  V  V29  1  0.12432842  0.62804341  0.51081113  1
  V  V30  1  0.38266858  0.62305135  0.27457903  1
  V  V31  1  0.74539139  0.63057133  0.36257607  1
  V  V32  1  0.23952373  0.88810700  0.62252446  1
  V  V33  1  0.49869618  0.12690953  0.64147430  1
  V  V34  1  0.25320771  0.00178671  0.77323924  1
  V  V35  1  -0.00910087  0.25774455  0.26385502  1
  V  V36  1  0.50048826  0.51427455  0.01724733  1
  V  V37  1  0.87948982  0.13119831  0.74789401  1
  V  V38  1  0.37123339  0.25909294  0.63606797  1
  V  V39  1  0.39312285  0.75335348  0.62284349  1
  V  V40  1  0.38841338  0.37277221  0.01014188  1
  V  V41  1  0.86491668  0.37626403  0.01094952  1
  V  V42  1  0.00194449  0.87348525  0.37037132  1
  V  V43  1  0.37844595  0.88411567  0.50137839  1
  V  V44  1  0.36822048  0.23436182  0.13434671  1
  V  V45  1  0.25051340  0.74723853  0.50527196  1
  V  V46  1  0.88418314  0.37901247  0.49517718  1
  V  V47  1  0.62869147  0.85847263  0.25490110  1
  V  V48  1  -0.00344624  0.64375578  0.62210462  1
  V  V49  1  0.88288907  0.50391321  0.36192332  1
  V  V50  1  -0.01252093  0.35909269  0.87218030  1
  V  V51  1  0.61599725  0.12205105  0.00689308  1
  V  V52  1  -0.01247616  0.14542888  0.12692653  1
  V  V53  1  0.87678511  0.25749318  0.62426797  1
  V  V54  1  0.87961298  0.86729346  -0.00817129  1
  V  V55  1  0.86953247  0.50022033  0.86816905  1
  V  V56  1  0.74967855  0.87958642  0.62343171  1
  V  V57  1  0.75275576  0.86321799  0.12202421  1
  V  V58  1  0.74575227  0.74438248  0.50482305  1
  V  V59  1  0.73039528  0.74919748  -0.01027225  1
  V  V60  1  0.37079403  0.74204704  0.14118063  1
  V  V61  1  0.37277789  0.00888310  0.36316142  1
  V  V62  1  0.01927276  0.49924756  -0.00926944  1
  V  V63  1  0.13430908  0.12319681  0.49055221  1
  V  V64  1  0.11522507  0.88190673  0.76014901  1
  V  V65  1  0.12902235  0.74853109  0.37534634  1
  V  V66  1  0.11880455  0.24721033  0.87454838  1
  V  V67  1  0.24663383  0.50698338  0.27831194  1
  V  V68  1  0.36896230  0.87321812  -0.00167488  1
  V  V69  1  0.62286493  0.60893600  0.51261057  1
  V  V70  1  0.05660824  0.30136959  0.69356400  1
  V  V71  1  0.24857614  0.62338444  0.89851378  1
  V  V72  1  0.51200748  0.00850181  0.50466893  1
  Zn  Zn73  1  0.62725688  0.13033129  0.49449086  1
  Zn  Zn74  1  0.75127208  0.13010040  0.37006074  1
  Zn  Zn75  1  0.60302676  0.25485048  0.33277020  1
  Zn  Zn76  1  0.62523625  0.00140791  0.13635266  1
  Zn  Zn77  1  0.19328270  0.44094121  0.68185812  1
  Zn  Zn78  1  0.11903243  0.51865543  0.13527276  1
  Zn  Zn79  1  -0.05800885  0.69644603  0.17554863  1
  Zn  Zn80  1  0.29060165  0.15708446  0.31592639  1
  Zn  Zn81  1  0.01098567  -0.00320865  0.50277879  1
  Zn  Zn82  1  0.18244205  0.19309770  0.17343947  1
  Zn  Zn83  1  0.20061206  0.18168555  0.68710138  1
  Zn  Zn84  1  0.19434689  0.69557380  0.19263217  1
  Zn  Zn85  1  0.19012308  0.69593290  0.69861047  1
  Zn  Zn86  1  0.70719769  0.18068628  0.18784070  1
  Zn  Zn87  1  0.69876377  0.17440263  0.66531333  1
  Zn  Zn88  1  0.67988466  0.67640145  0.17890649  1
  Zn  Zn89  1  0.68809674  0.68764043  0.68687911  1
  Zn  Zn90  1  0.31491217  0.32494732  0.31384944  1
  Zn  Zn91  1  0.30930635  0.31390192  0.80948014  1
  Zn  Zn92  1  0.31535016  0.81486404  0.32040885  1
  Zn  Zn93  1  0.30753569  0.81566539  0.81011091  1
  Zn  Zn94  1  0.80893656  0.32464621  0.30699261  1
  Zn  Zn95  1  0.80281928  0.31438482  0.80985752  1
  Zn  Zn96  1  0.81985999  0.80683370  0.30583512  1
  Zn  Zn97  1  0.80830354  0.81235385  0.81168317  1
  Zn  Zn98  1  0.22711538  0.47033694  0.48949673  1
  Zn  Zn99  1  0.17173962  0.44504862  0.84620424  1
  Zn  Zn100  1  0.18937540  0.94551448  0.43577218  1
  Zn  Zn101  1  0.17725344  0.91631517  0.95200770  1
  Zn  Zn102  1  0.68217533  0.43450352  0.42674726  1
  Zn  Zn103  1  0.68158681  0.44457470  0.94153400  1
  Zn  Zn104  1  0.69324055  0.93577896  0.43629333  1
  Zn  Zn105  1  0.68948750  0.94187507  0.93253012  1
  Zn  Zn106  1  0.36160658  0.09444608  -0.00222402  1
  Zn  Zn107  1  0.31751488  0.06824864  0.56459368  1
  Zn  Zn108  1  0.31517987  0.56148204  0.06913508  1
  Zn  Zn109  1  0.29911136  0.58350692  0.62758006  1
  Zn  Zn110  1  0.81070758  0.06173027  0.06609665  1
  Zn  Zn111  1  0.81916042  0.06256273  0.55900490  1
  Zn  Zn112  1  0.81629738  0.57030003  0.06535274  1
  Zn  Zn113  1  0.81771818  0.56326474  0.56609824  1
  Zn  Zn114  1  0.43193351  0.43961106  0.19509251  1
  Zn  Zn115  1  0.44641536  0.45265242  0.69226918  1
  Zn  Zn116  1  0.44476047  0.93936225  0.18427256  1
  Zn  Zn117  1  0.43545383  0.94277770  0.69225741  1
  Zn  Zn118  1  0.94696128  0.44109939  0.18007526  1
  Zn  Zn119  1  1.00148570  0.47497742  0.71972702  1
  Zn  Zn120  1  0.96552839  0.88814863  0.16053919  1
  Zn  Zn121  1  0.93107903  0.93804702  0.68638743  1
  Zn  Zn122  1  0.10745119  0.09680426  0.28402891  1
  Zn  Zn123  1  0.06567839  0.05973537  0.81365303  1
  Zn  Zn124  1  0.06866229  0.56622695  0.31514104  1
  Zn  Zn125  1  0.06202660  0.58407025  0.83489638  1
  Zn  Zn126  1  0.58116828  0.04853784  0.32885060  1
  Zn  Zn127  1  0.56061499  0.05531883  0.82417223  1
  Zn  Zn128  1  0.56347213  0.55956972  0.32325522  1
  Zn  Zn129  1  0.52958567  0.60565906  0.87955523  1
  Zn  Zn130  1  0.43249974  0.19525614  0.44340064  1
  Zn  Zn131  1  0.37166194  0.12463830  0.78719030  1
  Zn  Zn132  1  0.43841922  0.68310471  0.44886627  1
  Zn  Zn133  1  0.40568758  0.69658233  0.94424894  1
  Zn  Zn134  1  0.93988008  0.18338729  0.43933628  1
  Zn  Zn135  1  0.92899502  0.18497000  0.94225255  1
  Zn  Zn136  1  0.92345229  0.70086040  0.38585598  1
  Zn  Zn137  1  0.92885971  0.66819498  0.97739176  1
  Zn  Zn138  1  0.06028200  0.31750135  0.05919548  1
  Zn  Zn139  1  0.07221871  0.31195393  0.44943238  1
  Zn  Zn140  1  0.08153014  0.79566335  0.05831958  1
  Zn  Zn141  1  0.06129368  0.81606873  0.56207426  1
  Zn  Zn142  1  0.57649141  0.26063825  0.12267819  1
  Zn  Zn143  1  0.55848612  0.30902370  0.56478001  1
  Zn  Zn144  1  0.55902798  0.78073540  0.08036662  1
  Zn  Zn145  1  0.57316000  0.81906609  0.56037241  1
  O  O146  1  0.10564898  0.13055664  0.10590173  1
  O  O147  1  0.11200612  0.12735965  0.62758724  1
  O  O148  1  0.09984646  0.63357410  0.15610495  1
  O  O149  1  0.11506669  0.63802986  0.61843399  1
  O  O150  1  0.64362799  0.11610493  0.11123126  1
  O  O151  1  0.60592308  0.13417417  0.61898301  1
  O  O152  1  0.59543042  0.67469694  0.11048554  1
  O  O153  1  0.63406805  0.62373471  0.61311337  1
  O  O154  1  0.37981356  0.38513694  0.38054669  1
  O  O155  1  0.36363654  0.37248568  0.90248831  1
  O  O156  1  0.39021567  0.88472283  0.38172806  1
  O  O157  1  0.36290796  0.86540209  0.89960434  1
  O  O158  1  0.86985844  0.39499284  0.38402654  1
  O  O159  1  0.87300071  0.38095098  0.87247464  1
  O  O160  1  0.88501770  0.87826672  0.38092106  1
  O  O161  1  0.86015568  0.89087126  0.88298145  1
  O  O162  1  0.27341968  -0.00487923  0.37823709  1
  O  O163  1  0.24035004  -0.01543911  0.87086254  1
  O  O164  1  0.24525657  0.49739323  0.37704874  1
  O  O165  1  0.25751782  0.50976604  0.88754738  1
  O  O166  1  0.76220907  -0.00404525  0.36569546  1
  O  O167  1  0.75931909  0.01456563  0.86666084  1
  O  O168  1  0.75913729  0.50816257  0.35685296  1
  O  O169  1  0.75804540  0.51445878  0.88058404  1
  O  O170  1  0.23517120  0.49303034  0.12186170  1
  O  O171  1  0.24943985  0.49120214  0.59927854  1
  O  O172  1  0.25493575  0.99294667  0.14234754  1
  O  O173  1  0.25804043  0.98801994  0.63171078  1
  O  O174  1  0.75285326  0.51978687  0.14101042  1
  O  O175  1  0.75622618  0.48460720  0.61981194  1
  O  O176  1  0.75386939  0.98615738  0.13783627  1
  O  O177  1  0.75821376  0.99603134  0.63300109  1
  O  O178  1  0.01240873  0.36711243  0.24475996  1
  O  O179  1  -0.00632778  0.36094097  0.75263372  1
  O  O180  1  0.01561769  0.87506825  0.26491959  1
  O  O181  1  0.00479812  0.86897327  0.74252288  1
  O  O182  1  0.49001767  0.37668817  0.26585156  1
  O  O183  1  0.54733244  0.40780578  0.74084096  1
  O  O184  1  0.51768641  0.88018108  0.26400906  1
  O  O185  1  0.52053907  0.88813847  0.74220049  1
  O  O186  1  0.51172159  0.10367044  0.23494739  1
  O  O187  1  0.49698867  0.10990369  0.74385211  1
  O  O188  1  0.48125107  0.61629413  0.26343623  1
  O  O189  1  0.43765640  0.58933201  0.72547209  1
  O  O190  1  1.01099688  0.14712604  0.23637138  1
  O  O191  1  0.98971399  0.11759315  0.73974004  1
  O  O192  1  1.03884102  0.63092948  0.21841866  1
  O  O193  1  0.99884851  0.64451557  0.74743467  1
  O  O194  1  0.35784682  0.26534957  0.01432096  1
  O  O195  1  0.36172619  0.24323690  0.52007590  1
  O  O196  1  0.37348945  0.76679960  0.02622627  1
  O  O197  1  0.36959946  0.77001916  0.50053471  1
  O  O198  1  0.86167838  0.26680831  -0.00907363  1
  O  O199  1  0.87660450  0.25859570  0.50455972  1
  O  O200  1  0.86993784  0.76726898  -0.01900854  1
  O  O201  1  0.86772995  0.76099433  0.48597405  1
  O  O202  1  0.13914293  0.23777906  0.50515794  1
  O  O203  1  0.12614838  0.24263694  0.99377115  1
  O  O204  1  0.13316239  0.74872366  0.49878388  1
  O  O205  1  0.15393495  0.80643100  0.98054539  1
  O  O206  1  0.64653245  0.25272666  0.49998078  1
  O  O207  1  0.63806022  0.23909993  1.01882571  1
  O  O208  1  0.64351867  0.74902244  0.49764651  1
  O  O209  1  0.63286283  0.76023758  0.98736983  1
  O  O210  1  0.46590935  0.26024238  0.12959462  1
  O  O211  1  0.48822710  0.23517413  0.62510382  1
  O  O212  1  0.46946109  0.76584942  0.14982328  1
  O  O213  1  0.49171789  0.76299725  0.61453553  1
  O  O214  1  0.99241494  0.24815493  0.12590790  1
  O  O215  1  0.99518469  0.24087469  0.63162209  1
  O  O216  1  0.99818455  0.78391055  0.12488367  1
  O  O217  1  0.99502314  0.74578943  0.62509208  1
  O  O218  1  0.00212881  0.25162829  0.36816716  1
  O  O219  1  -0.00262864  0.25195748  0.87685295  1
  O  O220  1  0.01942192  0.76396640  0.39026157  1
  O  O221  1  0.00601621  0.75317467  0.86741115  1
  O  O222  1  0.49528558  0.26196453  0.37868731  1
  O  O223  1  0.50951146  0.26983370  0.84208086  1
  O  O224  1  0.49718099  0.76941091  0.38555498  1
  O  O225  1  0.46477418  0.69490712  0.84218982  1
  O  O226  1  0.23884791  0.12904127  0.50708739  1
  O  O227  1  0.23189878  0.13215354  1.00314495  1
  O  O228  1  0.23845441  0.64162404  0.51302840  1
  O  O229  1  0.25200211  0.62934682  0.99950491  1
  O  O230  1  0.75483090  0.14054257  0.50073952  1
  O  O231  1  0.75594984  0.13892984  0.99254187  1
  O  O232  1  0.74909318  0.63574996  0.50075192  1
  O  O233  1  0.74924764  0.63963854  0.98582924  1
  O  O234  1  0.24123562  0.36996770  0.01165602  1
  O  O235  1  0.24004235  0.35679599  0.49670868  1
  O  O236  1  0.26749295  0.89317692  0.02503139  1
  O  O237  1  0.25730048  0.87726466  0.51074327  1
  O  O238  1  0.75204071  0.36535260  -0.00517152  1
  O  O239  1  0.76320327  0.36566611  0.50342391  1
  O  O240  1  0.75258819  0.86597682  0.00182584  1
  O  O241  1  0.75604752  0.86599413  0.50280592  1
  O  O242  1  0.13118153  0.48854943  0.25383979  1
  O  O243  1  0.10613438  0.50063025  0.76274862  1
  O  O244  1  0.12056551  0.98590368  0.26380717  1
  O  O245  1  0.13209312  0.98960423  0.74842253  1
  O  O246  1  0.63137682  0.50616498  0.24637577  1
  O  O247  1  0.59299242  0.44498944  0.79392734  1
  O  O248  1  0.64700160  0.98607376  0.25508941  1
  O  O249  1  0.64099217  0.99906417  0.75493333  1
  O  O250  1  0.38831449  -0.00072711  0.26466839  1
  O  O251  1  0.35752545  -0.00512067  0.75912160  1
  O  O252  1  0.35322287  0.51307541  0.25066893  1
  O  O253  1  0.36989100  0.45905472  0.77547858  1
  O  O254  1  0.86728586  -0.01698457  0.26405322  1
  O  O255  1  0.86710321  0.01048838  0.75538451  1
  O  O256  1  0.88779277  0.50103616  0.26059201  1
  O  O257  1  0.89525327  0.51769709  0.76207008  1
  O  O258  1  0.12498827  0.37294787  0.36528363  1
  O  O259  1  0.10076664  0.35515395  0.87813400  1
  O  O260  1  0.12041436  0.87198619  0.37670984  1
  O  O261  1  0.11304006  0.88162298  0.85750676  1
  O  O262  1  0.61315831  0.36516808  0.37280336  1
  O  O263  1  0.62607756  0.39462853  0.84538602  1
  O  O264  1  0.61820208  0.87690449  0.36987320  1
  O  O265  1  0.63612695  0.87660136  0.85700329  1
  O  O266  1  0.36437319  0.13821694  0.10720670  1
  O  O267  1  0.38977076  0.12762665  0.63037098  1
  O  O268  1  0.36569802  0.63742233  0.13972345  1
  O  O269  1  0.37973079  0.65648504  0.59534576  1
  O  O270  1  0.88971229  0.12306878  0.12523143  1
  O  O271  1  0.88510513  0.13604310  0.62761472  1
  O  O272  1  0.90124199  0.63857763  0.08569116  1
  O  O273  1  0.88436030  0.62395527  0.64075571  1
  O  O274  1  0.24806744  0.26294676  0.11232322  1
  O  O275  1  0.26188883  0.24963164  0.61992231  1
  O  O276  1  0.26102074  0.76674248  0.13760389  1
  O  O277  1  0.25731444  0.76928290  0.61823419  1
  O  O278  1  0.76672089  0.24815681  0.11221452  1
  O  O279  1  0.76119029  0.25575744  0.61204992  1
  O  O280  1  0.74790078  0.75508162  0.10562091  1
  O  O281  1  0.75568383  0.75894459  0.61021379  1
  O  O282  1  0.26726671  0.24481219  0.39179648  1
  O  O283  1  0.23347666  0.25450370  0.88634127  1
  O  O284  1  0.23880826  0.76454928  0.39498522  1
  O  O285  1  0.29836617  0.71706872  0.86787875  1
  O  O286  1  0.76436473  0.25167842  0.38550733  1
  O  O287  1  0.74643113  0.23993294  0.87698647  1
  O  O288  1  0.75703792  0.73595086  0.38371583  1
  O  O289  1  0.74995668  0.73969411  0.88094082  1
  O  O290  1  -0.00164067  0.12106407  0.01084574  1
  O  O291  1  0.01010986  0.12728028  0.51472398  1
  O  O292  1  0.01753465  0.59905175  -0.04298740  1
  O  O293  1  0.00603737  0.62487179  0.50893739  1
  O  O294  1  0.51905237  0.12424440  0.00858209  1
  O  O295  1  0.50132643  0.11420226  0.50138422  1
  O  O296  1  0.48397979  0.61556069  -0.00622891  1
  O  O297  1  0.52568523  0.63028168  0.49346841  1
  O  O298  1  0.50529371  0.35251309  0.47648395  1
  O  O299  1  0.48625344  0.37864030  1.01208616  1
  O  O300  1  0.49950906  0.88765827  0.49424764  1
  O  O301  1  0.49669793  0.86674474  1.00850145  1
  O  O302  1  0.99515560  0.38808707  0.49568878  1
  O  O303  1  0.98154142  0.37527236  0.99047050  1
  O  O304  1  0.99282796  0.87981736  0.49436742  1
  O  O305  1  0.98123145  0.88602933  0.99253808  1
  O  O306  1  0.50313961  0.48792389  0.38439677  1
  O  O307  1  0.47569937  0.49742314  0.89098599  1
  O  O308  1  0.49500844  0.99392147  0.38800735  1
  O  O309  1  0.50990404  0.99344520  0.90294203  1
  O  O310  1  0.98745608  0.51767320  0.38467198  1
  O  O311  1  0.98653267  0.47646798  0.87941346  1
  O  O312  1  0.98771994  0.99101148  0.37912108  1
  O  O313  1  0.98317128  1.01125583  0.88345970  1
  O  O314  1  -0.00558737  -0.00505445  0.11123917  1
  O  O315  1  -0.00814442  0.01398271  0.62131558  1
  O  O316  1  0.01084035  0.49351122  0.09824289  1
  O  O317  1  0.00191263  0.51709660  0.61255970  1
  O  O318  1  0.51362535  -0.00840706  0.11164179  1
  O  O319  1  0.49582639  0.01022628  0.61129298  1
  O  O320  1  0.48486686  0.50398281  0.11625250  1
  O  O321  1  0.47706655  0.49389322  0.57993089  1
  O  O322  1  0.23862986  0.38796085  0.24424121  1
  O  O323  1  0.22805573  0.37919327  0.76884938  1
  O  O324  1  0.24316535  0.88024716  0.25689499  1
  O  O325  1  0.23676468  0.87994012  0.74234049  1
  O  O326  1  0.75003350  0.39396515  0.24287576  1
  O  O327  1  0.74893273  0.36977932  0.73007506  1
  O  O328  1  0.74775456  0.87297770  0.24444083  1
  O  O329  1  0.75003625  0.88364715  0.74054117  1
  O  O330  1  0.21328318  0.11887558  0.24910054  1
  O  O331  1  0.24642591  0.10499699  0.75828614  1
  O  O332  1  0.23822588  0.60781151  0.25925478  1
  O  O333  1  0.27910515  0.63161983  0.73291844  1
  O  O334  1  0.76160793  0.10329114  0.24993475  1
  O  O335  1  0.75564132  0.12148186  0.75098449  1
  O  O336  1  0.74448413  0.62658793  0.25916487  1
  O  O337  1  0.76444824  0.63724381  0.76198292  1
  O  O338  1  0.37992010  0.11393247  0.37609290  1
  O  O339  1  0.38092193  0.13527806  0.89763918  1
  O  O340  1  0.37025467  0.62875425  0.37479438  1
  O  O341  1  0.36256304  0.59350643  0.87102529  1
  O  O342  1  0.87566477  0.10762736  0.37910572  1
  O  O343  1  0.86596327  0.12257199  0.86502831  1
  O  O344  1  0.85702203  0.60777826  0.38663968  1
  O  O345  1  0.86918460  0.61719347  0.87168520  1
  O  O346  1  0.13212809  0.37504701  0.13199946  1
  O  O347  1  0.10854280  0.36333678  0.63705142  1
  O  O348  1  0.14058656  0.87594665  0.14830530  1
  O  O349  1  0.13684393  0.88017469  0.62388553  1
  O  O350  1  0.63027004  0.25353138  0.22125842  1
  O  O351  1  0.63854130  0.37202524  0.61508074  1
  O  O352  1  0.63559102  0.86930286  0.14214904  1
  O  O353  1  0.64387656  0.87754315  0.63073437  1
  O  O354  1  0.11908275  0.26586716  0.24688745  1
  O  O355  1  0.11852112  0.24186003  0.75432580  1
  O  O356  1  0.13569618  0.76207589  0.27391741  1
  O  O357  1  0.11221371  0.76794175  0.74358723  1
  O  O358  1  0.48534724  0.16893182  0.25773889  1
  O  O359  1  0.56527453  0.25277890  0.79883526  1
  O  O360  1  0.63475384  0.76098731  0.25849892  1
  O  O361  1  0.62727064  0.76405403  0.74418490  1
  O  O362  1  0.34150416  0.23989766  0.23724203  1
  O  O363  1  0.36176552  0.23584283  0.74236589  1
  O  O364  1  0.35982482  0.73103865  0.25630990  1
  O  O365  1  0.37783704  0.75732028  0.72929969  1
  O  O366  1  0.89191103  0.26236160  0.25475381  1
  O  O367  1  0.86731238  0.23821771  0.74021282  1
  O  O368  1  0.89734326  0.73250317  0.27498689  1
  O  O369  1  0.88993535  0.74597324  0.76004358  1
  O  O370  1  0.42144113  0.49667871  0.53104027  1
  O  O371  1  0.37643995  0.48495677  1.00351684  1
  O  O372  1  0.38587417  0.99449868  0.49536003  1
  O  O373  1  0.39754823  0.98235072  1.01154850  1
  O  O374  1  0.88599833  0.49442728  0.49764147  1
  O  O375  1  0.87215353  0.48645978  0.98718597  1
  O  O376  1  0.87067349  0.98681948  0.48548486  1
  O  O377  1  0.87533796  0.99683045  0.99171877  1
  O  O378  1  0.11221123  0.01252135  -0.00923523  1
  O  O379  1  0.12682636  0.01537446  0.50187679  1
  O  O380  1  0.11408762  0.47932177  -0.02136102  1
  O  O381  1  0.11554218  0.51955932  0.48991194  1
  O  O382  1  0.62449279  0.00419114  0.00631382  1
  O  O383  1  0.61566618  0.00316603  0.49404108  1
  O  O384  1  0.59929582  0.49801554  -0.00239828  1
  O  O385  1  0.63770109  0.51002590  0.49974391  1
  O  O386  1  0.35295869  0.37766909  0.12138094  1
  O  O387  1  0.39246558  0.35679015  0.64162568  1
  O  O388  1  0.36384336  0.87225144  0.13874077  1
  O  O389  1  0.37009275  0.87365353  0.61646500  1
  O  O390  1  0.87363329  0.38314373  0.10898331  1
  O  O391  1  0.87220114  0.36341447  0.61333690  1
  O  O392  1  0.86197783  0.87787854  0.10349659  1
  O  O393  1  0.86524839  0.87983376  0.61168110  1
  O  O394  1  0.11700447  0.12849174  0.39330959  1
  O  O395  1  0.10949084  0.13670183  0.88942942  1
  O  O396  1  0.12028221  0.64430090  0.38839858  1
  O  O397  1  0.15533901  0.64029251  0.86551949  1
  O  O398  1  0.63315851  0.13935905  0.37335364  1
  O  O399  1  0.63573218  0.11844664  0.89313492  1
  O  O400  1  0.64485118  0.61970484  0.38722826  1
  O  O401  1  0.64086595  0.61560256  0.86153261  1
