# generated using pymatgen
data_V73Zn73O256
_symmetry_space_group_name_H-M   'P 1'
_cell_length_a   16.87838519
_cell_length_b   16.88692730
_cell_length_c   16.86364685
_cell_angle_alpha   90.10537197
_cell_angle_beta   90.14227520
_cell_angle_gamma   90.08961797
_symmetry_Int_Tables_number   1
_chemical_formula_structural   V73Zn73O256
_chemical_formula_sum   'V73 Zn73 O256'
_cell_volume   4806.51629102
_cell_formula_units_Z   1
loop_
 _symmetry_equiv_pos_site_id
 _symmetry_equiv_pos_as_xyz
  1  'x, y, z'
loop_
 _atom_site_type_symbol
 _atom_site_label
 _atom_site_symmetry_multiplicity
 _atom_site_fract_x
 _atom_site_fract_y
 _atom_site_fract_z
 _atom_site_occupancy
  V  V0  1  0.88627237  0.61843645  0.25279571  1
  V  V1  1  0.74481461  0.62702574  0.35780308  1
  V  V2  1  0.75324177  0.75525483  0.00303485  1
  V  V3  1  0.50491795  0.11690520  0.62454108  1
  V  V4  1  0.24838065  0.62573118  0.87797837  1
  V  V5  1  0.49244092  0.13888737  0.13111248  1
  V  V6  1  0.38031846  0.14032986  0.26779616  1
  V  V7  1  0.50357031  0.76151929  0.75493035  1
  V  V8  1  0.63880536  -0.00080401  0.64044359  1
  V  V9  1  0.24460746  0.87396760  0.63816247  1
  V  V10  1  0.83515812  0.08242456  0.19940064  1
  V  V11  1  0.50193982  0.61116367  0.62362844  1
  V  V12  1  0.50815184  -0.00158023  0.00266404  1
  V  V13  1  -0.00956523  0.49434987  0.49095900  1
  V  V14  1  0.09720553  0.36286448  0.25814035  1
  V  V15  1  0.36632123  0.01426840  0.86400914  1
  V  V16  1  0.75325177  0.61876207  0.87477584  1
  V  V17  1  0.63738881  0.62390539  0.51072265  1
  V  V18  1  0.73419222  0.49386391  0.74049452  1
  V  V19  1  0.87858125  0.39789605  -0.00386149  1
  V  V20  1  0.11785974  0.37080109  0.75064068  1
  V  V21  1  0.11991035  0.61316024  0.00047682  1
  V  V22  1  0.85837160  0.87912049  0.48412850  1
  V  V23  1  0.00949802  -0.00984004  -0.00699551  1
  V  V24  1  0.13161378  0.12994549  -0.01448140  1
  V  V25  1  0.11296115  0.77203431  0.35954795  1
  V  V26  1  0.24827456  0.75285659  0.00310776  1
  V  V27  1  0.25342223  0.24670997  -0.01636938  1
  V  V28  1  0.00063606  0.76545466  0.74295240  1
  V  V29  1  0.24548680  0.50024312  0.74887212  1
  V  V30  1  0.48538187  0.75329494  0.25163597  1
  V  V31  1  0.74744422  0.38090452  0.13465380  1
  V  V32  1  -0.00799254  0.13126626  0.61618012  1
  V  V33  1  0.00352724  0.61440943  0.12024219  1
  V  V34  1  0.76216603  0.25368453  -0.00666674  1
  V  V35  1  0.50983738  0.36569527  0.86670690  1
  V  V36  1  0.00318333  -0.00617789  0.48942842  1
  V  V37  1  0.63222340  0.87556267  0.24352920  1
  V  V38  1  -0.01412736  0.25261332  0.75752082  1
  V  V39  1  0.37992378  0.88453454  0.49128802  1
  V  V40  1  0.00122473  0.12833585  0.13067908  1
  V  V41  1  0.12245146  -0.00479101  0.63903580  1
  V  V42  1  0.11646448  0.76411699  0.87614450  1
  V  V43  1  0.37827149  0.62595947  0.75415257  1
  V  V44  1  0.48431209  0.63087972  0.12668139  1
  V  V45  1  0.88035118  0.75463073  0.13315022  1
  V  V46  1  0.76588732  0.33921632  0.58263409  1
  V  V47  1  0.37446419  0.49065519  0.87549537  1
  V  V48  1  0.50734033  0.39085758  0.36440487  1
  V  V49  1  0.75253303  0.87333272  0.65075869  1
  V  V50  1  0.25362189  0.87611180  0.13129755  1
  V  V51  1  0.24614531  0.38427225  0.60718937  1
  V  V52  1  0.62297003  0.14711634  -0.00051726  1
  V  V53  1  0.88391544  0.61967487  0.74657888  1
  V  V54  1  0.11315634  0.63058822  0.48325878  1
  V  V55  1  0.62271181  0.76396773  0.87536834  1
  V  V56  1  0.63415752  0.12701296  0.49661738  1
  V  V57  1  0.37525348  0.36993475  0.00938889  1
  V  V58  1  0.74887607  0.09446869  0.37251958  1
  V  V59  1  0.50463694  0.49931642  -0.00102864  1
  V  V60  1  0.37676339  0.87906897  -0.00684787  1
  V  V61  1  0.62662489  0.50477432  0.14359140  1
  V  V62  1  0.86837363  0.10745701  0.76699535  1
  V  V63  1  0.25146523  0.74588833  0.49157327  1
  V  V64  1  0.13466259  0.24074522  0.38808637  1
  V  V65  1  0.88949406  0.87360002  -0.00834825  1
  V  V66  1  0.52907716  0.24678318  0.74102419  1
  V  V67  1  0.13221582  0.00633083  0.13713499  1
  V  V68  1  0.23481493  0.36940763  0.13082916  1
  V  V69  1  0.32993584  0.21053797  0.62617171  1
  V  V70  1  0.10837580  0.51617208  0.62630796  1
  V  V71  1  0.25471195  0.50131510  0.25390313  1
  V  V72  1  0.26526283  0.00671798  0.26491419  1
  Zn  Zn73  1  -0.00152957  0.38572001  0.88597535  1
  Zn  Zn74  1  0.37788095  0.75489562  0.62591850  1
  Zn  Zn75  1  0.87171608  0.74920063  0.61641937  1
  Zn  Zn76  1  0.62787722  0.75464191  0.37785101  1
  Zn  Zn77  1  0.15980790  0.12952386  0.50711800  1
  Zn  Zn78  1  0.39454058  0.36380933  0.50689734  1
  Zn  Zn79  1  0.75746827  0.90159149  0.12691788  1
  Zn  Zn80  1  0.87032324  0.49031580  0.37704422  1
  Zn  Zn81  1  0.62377783  0.62926239  -0.00025621  1
  Zn  Zn82  1  0.19740064  0.19234019  0.18629239  1
  Zn  Zn83  1  0.17051713  0.18645604  0.68560254  1
  Zn  Zn84  1  0.18703227  0.68890181  0.18680801  1
  Zn  Zn85  1  0.18228936  0.69305907  0.68884983  1
  Zn  Zn86  1  0.66409954  0.05069953  0.17612189  1
  Zn  Zn87  1  0.70451789  0.19155225  0.68018525  1
  Zn  Zn88  1  0.68177394  0.69064408  0.18487618  1
  Zn  Zn89  1  0.68800670  0.68769905  0.69094302  1
  Zn  Zn90  1  0.31850312  0.32112016  0.32239845  1
  Zn  Zn91  1  0.31841739  0.19354528  0.79972348  1
  Zn  Zn92  1  0.30839376  0.81157969  0.31369421  1
  Zn  Zn93  1  0.31333556  0.81385154  0.81923616  1
  Zn  Zn94  1  0.76986285  0.24563098  0.22135904  1
  Zn  Zn95  1  0.80834689  0.31485772  0.81603000  1
  Zn  Zn96  1  0.80619451  0.81136140  0.31349153  1
  Zn  Zn97  1  0.81925216  0.80706329  0.81701029  1
  Zn  Zn98  1  0.16888759  0.43361809  0.42288858  1
  Zn  Zn99  1  0.18812766  0.43232732  0.93533015  1
  Zn  Zn100  1  0.18783864  0.93868881  0.44543603  1
  Zn  Zn101  1  0.19243531  0.94370706  0.93551552  1
  Zn  Zn102  1  0.68801692  0.44337683  0.43875237  1
  Zn  Zn103  1  0.69044843  0.43349858  0.93529615  1
  Zn  Zn104  1  0.64870131  0.94804624  0.43163095  1
  Zn  Zn105  1  0.69390857  0.94201786  0.92845009  1
  Zn  Zn106  1  0.31801107  0.06523565  0.06417318  1
  Zn  Zn107  1  0.31641942  0.04829929  0.56995178  1
  Zn  Zn108  1  0.30590766  0.55479655  0.06690608  1
  Zn  Zn109  1  0.30165767  0.57581011  0.57146982  1
  Zn  Zn110  1  0.80521840  0.05582199  0.01670952  1
  Zn  Zn111  1  0.81733433  0.06047943  0.56266702  1
  Zn  Zn112  1  0.80983578  0.56695301  0.06560294  1
  Zn  Zn113  1  0.81163467  0.56172155  0.56785628  1
  Zn  Zn114  1  0.43676438  0.43969085  0.19530887  1
  Zn  Zn115  1  0.43411370  0.42739880  0.68830217  1
  Zn  Zn116  1  0.44023038  0.93957168  0.18513085  1
  Zn  Zn117  1  0.43603258  0.93933213  0.68274409  1
  Zn  Zn118  1  0.93257860  0.43564289  0.18198550  1
  Zn  Zn119  1  0.92537396  0.43687239  0.68394046  1
  Zn  Zn120  1  0.95230723  0.93457325  0.30953014  1
  Zn  Zn121  1  0.93349857  0.94001031  0.68423266  1
  Zn  Zn122  1  0.07132938  0.09096610  0.32767080  1
  Zn  Zn123  1  0.05417859  0.06331708  0.81210941  1
  Zn  Zn124  1  0.06710091  0.55223860  0.30516298  1
  Zn  Zn125  1  0.05779908  0.56453293  0.81811052  1
  Zn  Zn126  1  0.54600235  0.05157604  0.32159412  1
  Zn  Zn127  1  0.56014635  0.06036852  0.81936251  1
  Zn  Zn128  1  0.55070101  0.57138316  0.31907290  1
  Zn  Zn129  1  0.56477795  0.56719566  0.81796181  1
  Zn  Zn130  1  0.43899157  0.19551286  0.45294501  1
  Zn  Zn131  1  0.44184097  0.18706649  0.93681143  1
  Zn  Zn132  1  0.47316891  0.72971471  0.46433734  1
  Zn  Zn133  1  0.43615660  0.68923801  0.94054612  1
  Zn  Zn134  1  0.92686347  0.19479578  0.32703829  1
  Zn  Zn135  1  0.94479952  0.19125926  0.94130963  1
  Zn  Zn136  1  0.93707954  0.69920421  0.43475420  1
  Zn  Zn137  1  0.93847400  0.68557286  0.93529566  1
  Zn  Zn138  1  0.06006722  0.30872597  0.06110049  1
  Zn  Zn139  1  0.05717574  0.31454751  0.56230188  1
  Zn  Zn140  1  0.03476711  0.84677581  0.13463687  1
  Zn  Zn141  1  0.06067718  0.81230803  0.55953709  1
  Zn  Zn142  1  0.56265491  0.31873465  0.07245761  1
  Zn  Zn143  1  0.58386994  0.31679814  0.55818456  1
  Zn  Zn144  1  0.56449033  0.81690739  0.06838922  1
  Zn  Zn145  1  0.57298266  0.81127685  0.57333777  1
  O  O146  1  0.12622836  0.11981743  0.11630095  1
  O  O147  1  0.10890538  0.11211714  0.62367003  1
  O  O148  1  0.11206752  0.63364805  0.11142513  1
  O  O149  1  0.12228278  0.61832891  0.62001221  1
  O  O150  1  0.60602174  0.12125287  0.11052445  1
  O  O151  1  0.62922035  0.11564374  0.62219135  1
  O  O152  1  0.61897340  0.61461246  0.11760307  1
  O  O153  1  0.61270396  0.63123935  0.62036763  1
  O  O154  1  0.38980239  0.37294713  0.39264081  1
  O  O155  1  0.38305737  0.38620853  0.88212768  1
  O  O156  1  0.37043336  0.86822065  0.39241981  1
  O  O157  1  0.37206698  0.88551963  0.88816912  1
  O  O158  1  0.87197912  0.36752108  0.34637770  1
  O  O159  1  0.87391310  0.37464287  0.89386241  1
  O  O160  1  0.87594046  0.87702687  0.37940133  1
  O  O161  1  0.88618640  0.86407191  0.89326802  1
  O  O162  1  0.24987311  -0.00568404  0.36203308  1
  O  O163  1  0.26559582  0.00285196  0.87350787  1
  O  O164  1  0.24102637  0.48819309  0.35516933  1
  O  O165  1  0.25570261  0.50467847  0.86877096  1
  O  O166  1  0.74972887  -0.00376776  0.37450128  1
  O  O167  1  0.76930268  0.01791972  0.91645219  1
  O  O168  1  0.76099501  0.52536863  0.38795155  1
  O  O169  1  0.74574014  0.51686056  0.87412856  1
  O  O170  1  0.24706990  0.47648260  0.12373122  1
  O  O171  1  0.23346236  0.50279459  0.63094033  1
  O  O172  1  0.24706778  0.99614042  0.12825258  1
  O  O173  1  0.23519247  0.98436031  0.62421454  1
  O  O174  1  0.73378200  0.49864925  0.12041252  1
  O  O175  1  0.74430105  0.50749547  0.64078625  1
  O  O176  1  0.76802254  1.02047896  0.12792108  1
  O  O177  1  0.74615214  0.99094306  0.63056175  1
  O  O178  1  -0.00149074  0.36153991  0.23680894  1
  O  O179  1  0.00549603  0.36799686  0.73876065  1
  O  O180  1  0.01041060  0.87724729  0.23805421  1
  O  O181  1  -0.00429286  0.86432730  0.75049810  1
  O  O182  1  0.49453299  0.37290107  0.26356886  1
  O  O183  1  0.49919767  0.36353274  0.75771432  1
  O  O184  1  0.50765880  0.85806469  0.23172290  1
  O  O185  1  0.49493312  0.85941702  0.74788870  1
  O  O186  1  0.49182910  0.11805581  0.24139592  1
  O  O187  1  0.51113575  0.13985377  0.74377030  1
  O  O188  1  0.50081702  0.63529715  0.23341824  1
  O  O189  1  0.49131184  0.62873307  0.74911422  1
  O  O190  1  1.01042348  0.11302185  0.22996362  1
  O  O191  1  0.99606656  0.14059211  0.74727823  1
  O  O192  1  0.99436414  0.62362662  0.23821735  1
  O  O193  1  0.98679376  0.63178691  0.75556710  1
  O  O194  1  0.36417994  0.25755792  -0.00762113  1
  O  O195  1  0.37991516  0.24921808  0.54073908  1
  O  O196  1  0.36153120  0.76369401  -0.00963582  1
  O  O197  1  0.35592589  0.73978775  0.50263277  1
  O  O198  1  0.86340753  0.24796656  0.00383637  1
  O  O199  1  0.89986350  0.31593155  0.39268803  1
  O  O200  1  0.87320765  0.75521460  0.00624909  1
  O  O201  1  0.88681751  0.77503050  0.50389707  1
  O  O202  1  0.11904207  0.24808091  0.49329115  1
  O  O203  1  0.13541794  0.23899481  0.99767019  1
  O  O204  1  0.12605581  0.74381002  0.48972778  1
  O  O205  1  0.13743515  0.74173681  0.98739402  1
  O  O206  1  0.63423150  0.22637355  0.50201008  1
  O  O207  1  0.62083249  0.24939461  0.99806692  1
  O  O208  1  0.59958567  0.73177839  0.49114344  1
  O  O209  1  0.63318091  0.75302337  0.99168480  1
  O  O210  1  0.50094867  0.23904555  0.12581118  1
  O  O211  1  0.52248040  0.24059993  0.63587282  1
  O  O212  1  0.49998775  0.73477943  0.12220512  1
  O  O213  1  0.49947735  0.73936486  0.64622591  1
  O  O214  1  1.00258463  0.22715031  0.11635714  1
  O  O215  1  1.00223606  0.23674437  0.63115531  1
  O  O216  1  0.98437664  0.73953728  0.12180074  1
  O  O217  1  1.00351491  0.75289979  0.63971302  1
  O  O218  1  0.03005784  0.20678761  0.36078668  1
  O  O219  1  -0.00053654  0.26267080  0.86063366  1
  O  O220  1  0.01434032  0.75240672  0.37014529  1
  O  O221  1  0.01206348  0.75079251  0.87260950  1
  O  O222  1  0.49892487  0.28115147  0.40644960  1
  O  O223  1  0.49526698  0.26018695  0.86203648  1
  O  O224  1  0.49984892  0.73700430  0.35332055  1
  O  O225  1  0.51285646  0.74557143  0.87089056  1
  O  O226  1  0.26399340  0.14531395  0.55393997  1
  O  O227  1  0.24409169  0.13735790  1.00456717  1
  O  O228  1  0.23041888  0.63964524  0.50649320  1
  O  O229  1  0.24151720  0.63139825  1.00108427  1
  O  O230  1  0.74194402  0.10975451  0.48924732  1
  O  O231  1  0.73336982  0.14874976  1.01657198  1
  O  O232  1  0.73836631  0.63504650  0.50981973  1
  O  O233  1  0.75378901  0.63578717  0.98763011  1
  O  O234  1  0.25295840  0.36449423  0.00303207  1
  O  O235  1  0.23344035  0.39172869  0.50871870  1
  O  O236  1  0.25734832  0.87122361  0.00616913  1
  O  O237  1  0.25872761  0.86397835  0.50790431  1
  O  O238  1  0.75944020  0.37137084  0.00266657  1
  O  O239  1  0.76223077  0.36926417  0.48270694  1
  O  O240  1  0.76893288  0.86803597  0.00417389  1
  O  O241  1  0.75979397  0.88227879  0.49307364  1
  O  O242  1  0.12544852  0.46802157  0.25207722  1
  O  O243  1  0.12485611  0.50397394  0.73876889  1
  O  O244  1  0.14497780  1.01581075  0.23982806  1
  O  O245  1  0.11776813  1.00115144  0.73820180  1
  O  O246  1  0.62208148  0.51123968  0.24109398  1
  O  O247  1  0.63448924  0.50557729  0.75547635  1
  O  O248  1  0.60830737  0.98071852  0.24637061  1
  O  O249  1  0.62669996  1.00714798  0.74140037  1
  O  O250  1  0.36941579  0.00516668  0.25212346  1
  O  O251  1  0.38480222  -0.00386032  0.76683691  1
  O  O252  1  0.35599796  0.50201405  0.24412565  1
  O  O253  1  0.36562141  0.50577529  0.75737205  1
  O  O254  1  0.88061038  0.01509211  0.25394316  1
  O  O255  1  0.88679056  0.00799763  0.76203699  1
  O  O256  1  0.87914115  0.51480247  0.25330979  1
  O  O257  1  0.86738718  0.51704828  0.74862434  1
  O  O258  1  0.10018248  0.35878587  0.36608947  1
  O  O259  1  0.12035852  0.38580874  0.85398520  1
  O  O260  1  0.12535706  0.87029297  0.37739341  1
  O  O261  1  0.13183519  0.86222967  0.87954407  1
  O  O262  1  0.61121314  0.39272437  0.37390291  1
  O  O263  1  0.60742194  0.37632795  0.87872422  1
  O  O264  1  0.63192969  0.86642743  0.35372216  1
  O  O265  1  0.63046049  0.86340999  0.87710689  1
  O  O266  1  0.38737431  0.12773890  0.13079121  1
  O  O267  1  0.40093731  0.11573738  0.62667563  1
  O  O268  1  0.38531594  0.61993918  0.11892978  1
  O  O269  1  0.38007999  0.62980659  0.63978573  1
  O  O270  1  0.89585345  0.10077509  0.10930814  1
  O  O271  1  0.89130912  0.11089128  0.64160266  1
  O  O272  1  0.88485597  0.62940776  0.13203342  1
  O  O273  1  0.86568711  0.63536987  0.64292447  1
  O  O274  1  0.25237221  0.26451868  0.11091460  1
  O  O275  1  0.24034823  0.28106777  0.62670567  1
  O  O276  1  0.24181395  0.76732781  0.11793756  1
  O  O277  1  0.24262238  0.76053308  0.61537622  1
  O  O278  1  0.73567068  0.27542684  0.11323004  1
  O  O279  1  0.77291918  0.23710073  0.60071804  1
  O  O280  1  0.76258920  0.73661448  0.11078508  1
  O  O281  1  0.74706905  0.76882015  0.63421194  1
  O  O282  1  0.23185641  0.27326210  0.37953405  1
  O  O283  1  0.25246809  0.24823712  0.88381901  1
  O  O284  1  0.23756674  0.75371412  0.38782842  1
  O  O285  1  0.24143374  0.74350478  0.87998628  1
  O  O286  1  0.70965509  0.24624118  0.33455817  1
  O  O287  1  0.74760880  0.25576034  0.89385058  1
  O  O288  1  0.75208876  0.73107414  0.37708491  1
  O  O289  1  0.74049774  0.74702446  0.88228147  1
  O  O290  1  0.01603594  0.11403815  0.00329307  1
  O  O291  1  -0.01014351  0.11173476  0.51655288  1
  O  O292  1  0.00982939  0.62660529  0.00620565  1
  O  O293  1  0.00956472  0.62433994  0.49724931  1
  O  O294  1  0.50313174  0.12148066  0.00997689  1
  O  O295  1  0.51508669  0.12785086  0.51812887  1
  O  O296  1  0.49884909  0.61629783  0.00689730  1
  O  O297  1  0.48941857  0.62642797  0.52349118  1
  O  O298  1  0.50899096  0.37682261  0.50051468  1
  O  O299  1  0.49285182  0.37936854  0.99030267  1
  O  O300  1  0.47523888  0.84334445  0.51402130  1
  O  O301  1  0.48425439  0.88339784  1.00992287  1
  O  O302  1  0.99971763  0.39560110  0.50599889  1
  O  O303  1  0.98231845  0.37175124  1.00724981  1
  O  O304  1  1.00296427  0.89179113  0.49917819  1
  O  O305  1  0.99971556  0.88023452  1.01631012  1
  O  O306  1  0.49336292  0.49426640  0.37407497  1
  O  O307  1  0.49254033  0.49261234  0.87897915  1
  O  O308  1  0.53570242  0.97732689  0.40442853  1
  O  O309  1  0.48571496  1.00836305  0.89503655  1
  O  O310  1  0.99439835  0.50199347  0.38578342  1
  O  O311  1  0.99592994  0.49672005  0.87639162  1
  O  O312  1  1.00686758  1.00935791  0.38568560  1
  O  O313  1  1.01725447  0.99116947  0.89379100  1
  O  O314  1  0.02682678  0.00591338  0.11349072  1
  O  O315  1  0.01112434  0.00097003  0.61894553  1
  O  O316  1  -0.00237745  0.51577260  0.12361977  1
  O  O317  1  0.00617244  0.50378990  0.61993004  1
  O  O318  1  0.48991673  0.01085965  0.10801917  1
  O  O319  1  0.51526503  0.01124094  0.63582132  1
  O  O320  1  0.50836278  0.50823130  0.11953193  1
  O  O321  1  0.49466658  0.51261559  0.63683790  1
  O  O322  1  0.25486961  0.37546828  0.23451695  1
  O  O323  1  0.23287450  0.39417165  0.74052437  1
  O  O324  1  0.26021975  0.88848183  0.23683542  1
  O  O325  1  0.25043256  0.86432852  0.73717846  1
  O  O326  1  0.75663064  0.36944347  0.23310420  1
  O  O327  1  0.75330402  0.39696504  0.76304751  1
  O  O328  1  0.73990391  0.87241782  0.24215516  1
  O  O329  1  0.75832826  0.87832997  0.75013179  1
  O  O330  1  0.26918518  0.11626605  0.24704855  1
  O  O331  1  0.27044411  0.14584502  0.70903560  1
  O  O332  1  0.22879258  0.59764705  0.23461329  1
  O  O333  1  0.25616117  0.61950919  0.75420391  1
  O  O334  1  0.73774068  0.10855238  0.25524107  1
  O  O335  1  0.77100516  0.12797813  0.74940135  1
  O  O336  1  0.75836203  0.62500482  0.25392308  1
  O  O337  1  0.75399881  0.62226634  0.76176463  1
  O  O338  1  0.39348399  0.13039648  0.36773118  1
  O  O339  1  0.37416914  0.12166242  0.87090310  1
  O  O340  1  0.36764339  0.56147922  0.41706877  1
  O  O341  1  0.37055924  0.61481148  0.87136926  1
  O  O342  1  0.84200617  0.13415811  0.37878501  1
  O  O343  1  0.88733642  0.12918128  0.86545187  1
  O  O344  1  0.87361226  0.63366220  0.35794084  1
  O  O345  1  0.86025199  0.63696983  0.86398000  1
  O  O346  1  0.13040409  0.36566004  0.13363287  1
  O  O347  1  0.12687168  0.39332127  0.63159413  1
  O  O348  1  0.14227618  0.89534612  0.12033617  1
  O  O349  1  0.13209688  0.88385215  0.62181352  1
  O  O350  1  0.63041911  0.39605468  0.12278338  1
  O  O351  1  0.67086985  0.36094895  0.61780518  1
  O  O352  1  0.63892029  0.87359607  0.13201324  1
  O  O353  1  0.63986237  0.88637775  0.62737287  1
  O  O354  1  0.13329955  0.26119526  0.25446225  1
  O  O355  1  0.11499265  0.26757211  0.74408354  1
  O  O356  1  0.13591285  0.75507284  0.26164736  1
  O  O357  1  0.11254206  0.74326112  0.76498328  1
  O  O358  1  0.63820574  0.26267683  0.32418621  1
  O  O359  1  0.62745086  0.24905142  0.75202332  1
  O  O360  1  0.61550921  0.75847984  0.24737774  1
  O  O361  1  0.61405364  0.74699904  0.76387115  1
  O  O362  1  0.37063854  0.23830777  0.25579710  1
  O  O363  1  0.37998379  0.25124324  0.71028002  1
  O  O364  1  0.38467179  0.75760303  0.24645674  1
  O  O365  1  0.38632432  0.74038060  0.76110819  1
  O  O366  1  0.86493286  0.18638681  0.22985577  1
  O  O367  1  0.88500583  0.25261976  0.75067124  1
  O  O368  1  0.86794757  0.73988503  0.23653235  1
  O  O369  1  0.88965886  0.74486479  0.75075100  1
  O  O370  1  0.35927155  0.52072145  0.47838814  1
  O  O371  1  0.38221706  0.49305909  0.99306508  1
  O  O372  1  0.38014974  0.98409256  0.50363599  1
  O  O373  1  0.37504238  0.99219026  0.99140225  1
  O  O374  1  0.88859932  0.51428838  0.49951145  1
  O  O375  1  0.87282416  0.49779838  0.99825178  1
  O  O376  1  0.88991362  0.98673148  0.50385522  1
  O  O377  1  0.89928456  0.98348109  1.00438556  1
  O  O378  1  0.12916594  0.01231082  0.00598596  1
  O  O379  1  0.11663141  0.00878903  0.50798950  1
  O  O380  1  0.13154288  0.51455947  -0.00334153  1
  O  O381  1  0.11274996  0.51397931  0.50635297  1
  O  O382  1  0.60841141  -0.00976531  -0.00023072  1
  O  O383  1  0.62756982  0.01096741  0.52477547  1
  O  O384  1  0.61024854  0.50086415  -0.00403727  1
  O  O385  1  0.62281081  0.52627309  0.49548346  1
  O  O386  1  0.37666066  0.37919479  0.11040944  1
  O  O387  1  0.35211785  0.40200016  0.61133342  1
  O  O388  1  0.35963534  0.88434116  0.11067488  1
  O  O389  1  0.35926458  0.87355850  0.62063626  1
  O  O390  1  0.85605866  0.38792690  0.11174533  1
  O  O391  1  0.85164913  0.38092941  0.62334588  1
  O  O392  1  0.87219000  0.85760133  0.11866575  1
  O  O393  1  0.85874817  0.87817310  0.61869338  1
  O  O394  1  0.15967363  0.13435154  0.38831993  1
  O  O395  1  0.12622945  0.12121434  0.88639414  1
  O  O396  1  0.12188478  0.62605495  0.38240621  1
  O  O397  1  0.12907911  0.63094825  0.88691046  1
  O  O398  1  0.63264455  0.11219157  0.38791105  1
  O  O399  1  0.61770457  0.11938314  0.90276777  1
  O  O400  1  0.63777041  0.62749329  0.37736035  1
  O  O401  1  0.63767907  0.63765126  0.87951946  1
