# generated using pymatgen
data_V73Zn73O256
_symmetry_space_group_name_H-M   'P 1'
_cell_length_a   16.92745423
_cell_length_b   16.95355620
_cell_length_c   16.97813903
_cell_angle_alpha   89.79493155
_cell_angle_beta   90.04298248
_cell_angle_gamma   90.38663166
_symmetry_Int_Tables_number   1
_chemical_formula_structural   V73Zn73O256
_chemical_formula_sum   'V73 Zn73 O256'
_cell_volume   4872.25219279
_cell_formula_units_Z   1
loop_
 _symmetry_equiv_pos_site_id
 _symmetry_equiv_pos_as_xyz
  1  'x, y, z'
loop_
 _atom_site_type_symbol
 _atom_site_label
 _atom_site_symmetry_multiplicity
 _atom_site_fract_x
 _atom_site_fract_y
 _atom_site_fract_z
 _atom_site_occupancy
  V  V0  1  0.56437245  0.33945486  0.31584105  1
  V  V1  1  0.86566149  0.51744174  0.86764870  1
  V  V2  1  0.12998710  0.24780290  0.39280531  1
  V  V3  1  0.12063895  0.00011777  0.12875406  1
  V  V4  1  0.25629580  0.51126439  0.25012548  1
  V  V5  1  0.61424079  0.64150621  0.49396259  1
  V  V6  1  0.75991062  0.87598144  0.64463969  1
  V  V7  1  0.12951829  0.87902740  0.76662235  1
  V  V8  1  0.88257540  0.26593012  0.13086995  1
  V  V9  1  0.88029125  0.49871115  0.37332189  1
  V  V10  1  0.62811606  -0.00420502  0.63422541  1
  V  V11  1  0.36345174  0.50398142  0.37895792  1
  V  V12  1  -0.00536973  0.87292812  0.38432357  1
  V  V13  1  0.11815302  0.87856224  0.25314017  1
  V  V14  1  0.24599662  0.49931042  0.74859470  1
  V  V15  1  0.64162356  0.12621040  0.48766431  1
  V  V16  1  -0.00433129  0.12632708  0.13924110  1
  V  V17  1  0.00672858  0.49840491  0.51192373  1
  V  V18  1  0.50262993  0.24461228  0.74812153  1
  V  V19  1  0.86743141  0.11464400  0.75636025  1
  V  V20  1  0.68939169  0.73689507  -0.02861047  1
  V  V21  1  -0.01986800  0.87516954  0.88795375  1
  V  V22  1  0.12378064  0.62189849  0.52380671  1
  V  V23  1  0.74866316  0.62125113  0.36689558  1
  V  V24  1  0.37389261  0.37526560  -0.00419617  1
  V  V25  1  0.11708718  0.12361598  0.00016824  1
  V  V26  1  0.25208582  0.37536384  0.12612584  1
  V  V27  1  0.36574105  0.11515159  0.76052726  1
  V  V28  1  0.62626039  -0.01453964  0.13695631  1
  V  V29  1  0.50434430  0.76005069  0.74239284  1
  V  V30  1  0.01557230  0.00256958  0.50731212  1
  V  V31  1  0.48927065  0.49557031  0.48884809  1
  V  V32  1  0.37596429  0.13324144  0.25486109  1
  V  V33  1  0.49254670  0.62411640  0.61122093  1
  V  V34  1  0.87519447  0.75798328  0.11616952  1
  V  V35  1  0.50351465  0.37213945  0.86362427  1
  V  V36  1  0.36834729  0.49776959  0.87386771  1
  V  V37  1  0.76170693  0.25429030  -0.00452071  1
  V  V38  1  0.62251238  0.12380967  0.00165110  1
  V  V39  1  0.11810292  0.74064142  0.37194871  1
  V  V40  1  0.76846846  0.75462880  0.50009207  1
  V  V41  1  0.87773439  0.24829650  0.61957824  1
  V  V42  1  0.62637630  0.25137808  0.87758021  1
  V  V43  1  0.25165368  0.13137139  0.38710974  1
  V  V44  1  0.23729246  0.88570953  0.62550054  1
  V  V45  1  0.00227438  0.37251008  0.37456625  1
  V  V46  1  0.50229789  0.12397772  0.12841157  1
  V  V47  1  0.50898308  0.12617366  0.61823275  1
  V  V48  1  0.13124999  0.37161462  0.74783668  1
  V  V49  1  0.00384470  0.24239897  0.74516531  1
  V  V50  1  0.74250153  0.38468260  0.13049448  1
  V  V51  1  0.12782887  0.49818025  0.11962222  1
  V  V52  1  0.13199348  0.63899899  0.00025788  1
  V  V53  1  0.12964607  0.23925908  0.86995125  1
  V  V54  1  0.37442617  0.24835134  0.61122666  1
  V  V55  1  0.25016330  0.24325618  -0.00640116  1
  V  V56  1  -0.00414456  0.74241982  0.74344107  1
  V  V57  1  0.51337013  0.49721667  0.00465365  1
  V  V58  1  0.25764929  0.64645044  0.88694676  1
  V  V59  1  0.76610952  0.24568649  0.47945672  1
  V  V60  1  0.37028570  0.62706746  0.74691673  1
  V  V61  1  0.12550023  0.36215059  0.24769382  1
  V  V62  1  0.48987411  0.91520755  0.89926398  1
  V  V63  1  0.38067803  0.25165167  0.12796963  1
  V  V64  1  0.00104723  0.62661508  0.12577210  1
  V  V65  1  0.88542084  0.62725244  0.25035617  1
  V  V66  1  0.36795061  0.75898410  0.61893005  1
  V  V67  1  0.25479640  -0.00034453  0.25635697  1
  V  V68  1  0.50959827  0.65706543  0.18604982  1
  V  V69  1  0.49522563  -0.00881809  0.48188764  1
  V  V70  1  0.26315005  0.37614217  0.61729952  1
  V  V71  1  0.25170513  0.75044900  0.49709456  1
  V  V72  1  0.87070650  0.00598859  0.38225123  1
  Zn  Zn73  1  0.62133523  0.49106854  0.15759273  1
  Zn  Zn74  1  0.83671926  0.41429446  0.54504940  1
  Zn  Zn75  1  -0.01153991  0.37403177  0.87852935  1
  Zn  Zn76  1  0.65412966  0.82800153  0.80672036  1
  Zn  Zn77  1  0.74456781  0.00012760  0.25782839  1
  Zn  Zn78  1  0.86275912  0.13387862  0.26261405  1
  Zn  Zn79  1  0.01620569  0.11621620  0.62503813  1
  Zn  Zn80  1  -0.01406311  0.49144154  -0.00334998  1
  Zn  Zn81  1  0.68071729  0.40263391  0.65347829  1
  Zn  Zn82  1  0.19132395  0.18516481  0.18733215  1
  Zn  Zn83  1  0.19216345  0.18103488  0.67979007  1
  Zn  Zn84  1  0.18140768  0.68965940  0.18672803  1
  Zn  Zn85  1  0.18209494  0.69523608  0.69719464  1
  Zn  Zn86  1  0.68283312  0.20464064  0.20207997  1
  Zn  Zn87  1  0.71708719  0.22795773  0.71362105  1
  Zn  Zn88  1  0.69422208  0.67666048  0.14702522  1
  Zn  Zn89  1  0.68994003  0.68952175  0.68582418  1
  Zn  Zn90  1  0.31887292  0.31775996  0.31653429  1
  Zn  Zn91  1  0.31589444  0.30567306  0.80603109  1
  Zn  Zn92  1  0.28463668  0.79036186  0.29438108  1
  Zn  Zn93  1  0.32167357  0.82686844  0.80728636  1
  Zn  Zn94  1  0.81296516  0.31806772  0.31045658  1
  Zn  Zn95  1  0.81286566  0.37145786  0.79658802  1
  Zn  Zn96  1  0.81993767  0.80167437  0.31312964  1
  Zn  Zn97  1  0.81962434  0.78751226  0.82643721  1
  Zn  Zn98  1  0.18774458  0.43809940  0.43530756  1
  Zn  Zn99  1  0.16294102  0.42496457  0.94668334  1
  Zn  Zn100  1  0.19080048  0.93484697  0.43517559  1
  Zn  Zn101  1  0.17918993  0.93829140  0.94736547  1
  Zn  Zn102  1  0.68912284  0.45124477  0.46169831  1
  Zn  Zn103  1  0.69771750  0.43310931  0.93757480  1
  Zn  Zn104  1  0.70234570  0.95059312  0.46192290  1
  Zn  Zn105  1  0.62820367  0.90212030  0.98980075  1
  Zn  Zn106  1  0.30404520  0.06642395  0.07387460  1
  Zn  Zn107  1  0.31924330  0.06282875  0.56399043  1
  Zn  Zn108  1  0.34772909  0.67435556  0.06918668  1
  Zn  Zn109  1  0.30592732  0.56602978  0.56164290  1
  Zn  Zn110  1  0.78078123  0.09272915  0.11047582  1
  Zn  Zn111  1  0.82411661  0.06007252  0.57187600  1
  Zn  Zn112  1  0.80437889  0.57123366  0.04889154  1
  Zn  Zn113  1  0.76818508  0.57252777  0.59457068  1
  Zn  Zn114  1  0.44606666  0.43831179  0.19743400  1
  Zn  Zn115  1  0.48874964  0.39922725  0.63775961  1
  Zn  Zn116  1  0.46410089  0.96011645  0.23250556  1
  Zn  Zn117  1  0.43502916  0.94293975  0.67861616  1
  Zn  Zn118  1  0.94286069  0.44284199  0.19142219  1
  Zn  Zn119  1  0.94465320  0.43699898  0.69746275  1
  Zn  Zn120  1  0.93416256  0.94092173  0.19472914  1
  Zn  Zn121  1  0.94497357  0.93161541  0.69578576  1
  Zn  Zn122  1  0.06241919  0.06396065  0.31995993  1
  Zn  Zn123  1  0.05867911  0.05288723  0.81424017  1
  Zn  Zn124  1  0.06632960  0.55179675  0.30783999  1
  Zn  Zn125  1  0.06192066  0.56310898  0.81850026  1
  Zn  Zn126  1  0.56582831  0.07148993  0.31300656  1
  Zn  Zn127  1  0.56439923  0.06693778  0.81131264  1
  Zn  Zn128  1  0.56816035  0.54689002  0.31889875  1
  Zn  Zn129  1  0.54491384  0.55347376  0.79494819  1
  Zn  Zn130  1  0.44908300  0.19422895  0.42948510  1
  Zn  Zn131  1  0.43932150  0.18186528  0.93882145  1
  Zn  Zn132  1  0.44371132  0.67359876  0.38692382  1
  Zn  Zn133  1  0.47868044  0.69558743  0.94123248  1
  Zn  Zn134  1  0.95011472  0.18339949  0.43738588  1
  Zn  Zn135  1  0.93950561  0.18464857  0.93469383  1
  Zn  Zn136  1  0.94050600  0.68161123  0.44566030  1
  Zn  Zn137  1  0.94544315  0.69060967  0.93170391  1
  Zn  Zn138  1  0.06059648  0.31118813  0.05735779  1
  Zn  Zn139  1  0.06889129  0.31561445  0.56688080  1
  Zn  Zn140  1  0.05869061  0.81447874  0.06760204  1
  Zn  Zn141  1  0.06021046  0.81227177  0.56547662  1
  Zn  Zn142  1  0.56199855  0.31488687  0.05987217  1
  Zn  Zn143  1  0.57749491  0.32160703  0.49165087  1
  Zn  Zn144  1  0.49531993  0.80411740  0.06265916  1
  Zn  Zn145  1  0.56267108  0.81563189  0.56078657  1
  O  O146  1  0.11387726  0.12382148  0.12264012  1
  O  O147  1  0.12746863  0.12694168  0.61243633  1
  O  O148  1  0.12221693  0.61796405  0.11962507  1
  O  O149  1  0.12621568  0.62377325  0.62156127  1
  O  O150  1  0.61189044  0.13723264  0.12475943  1
  O  O151  1  0.61803286  0.11527084  0.61403201  1
  O  O152  1  0.60427992  0.60927407  0.16032239  1
  O  O153  1  0.60670189  0.63241003  0.60191687  1
  O  O154  1  0.35063517  0.39978651  0.38332902  1
  O  O155  1  0.38122374  0.37685968  0.87706664  1
  O  O156  1  0.41689814  0.83509895  0.32871475  1
  O  O157  1  0.40285683  0.87268085  0.86896157  1
  O  O158  1  0.89155981  0.38271642  0.36901204  1
  O  O159  1  0.87549882  0.38663062  0.88351933  1
  O  O160  1  0.89132496  0.87868966  0.36861292  1
  O  O161  1  0.87890214  0.86728461  0.88371001  1
  O  O162  1  0.24050224  0.01866356  0.36562130  1
  O  O163  1  0.28805496  -0.00934116  0.92449227  1
  O  O164  1  0.24281583  0.50143430  0.35569134  1
  O  O165  1  0.26126791  0.49634408  0.86913628  1
  O  O166  1  0.76653953  -0.00225809  0.37941518  1
  O  O167  1  0.77436345  -0.00463934  0.91739741  1
  O  O168  1  0.76914779  0.51593701  0.39563685  1
  O  O169  1  0.76304454  0.50081100  0.87866600  1
  O  O170  1  0.24644680  0.48457966  0.13537820  1
  O  O171  1  0.26305817  0.48818797  0.63870882  1
  O  O172  1  0.23537214  1.00874245  0.14687860  1
  O  O173  1  0.25521579  0.98258772  0.61199992  1
  O  O174  1  0.74184202  0.48854648  0.11369621  1
  O  O175  1  0.73799792  0.46909203  0.57259675  1
  O  O176  1  0.73087105  0.99037777  0.13064473  1
  O  O177  1  0.74017785  0.98420007  0.61207892  1
  O  O178  1  0.01520444  0.38337707  0.26256587  1
  O  O179  1  0.01766966  0.36131157  0.74914135  1
  O  O180  1  0.01276627  0.88244137  0.26691073  1
  O  O181  1  0.01202286  0.86774716  0.76408152  1
  O  O182  1  0.47303092  0.35376570  0.26783351  1
  O  O183  1  0.49867076  0.36233888  0.75647187  1
  O  O184  1  0.47364106  0.85320566  0.26930361  1
  O  O185  1  0.49253411  0.85981732  0.73553939  1
  O  O186  1  0.48469431  0.12620159  0.24687078  1
  O  O187  1  0.49519845  0.12947460  0.73734678  1
  O  O188  1  0.50491588  0.64490202  0.28997460  1
  O  O189  1  0.48651881  0.62805536  0.72920836  1
  O  O190  1  1.00152551  0.12936580  0.24015544  1
  O  O191  1  1.00422070  0.13327518  0.74842799  1
  O  O192  1  0.99841613  0.61252982  0.23612177  1
  O  O193  1  1.02277209  0.64434567  0.75456779  1
  O  O194  1  0.36909122  0.25661976  0.00443308  1
  O  O195  1  0.38217559  0.24346123  0.51352650  1
  O  O196  1  0.41016308  0.74765157  0.01127757  1
  O  O197  1  0.35315798  0.74096319  0.50550392  1
  O  O198  1  0.86569427  0.24225979  0.00765773  1
  O  O199  1  0.87728072  0.23627123  0.50838723  1
  O  O200  1  0.87990146  0.73747262  0.01730418  1
  O  O201  1  0.86663145  0.74081836  0.50978074  1
  O  O202  1  0.13330521  0.25430966  0.49045501  1
  O  O203  1  0.13232865  0.24267422  0.99021652  1
  O  O204  1  0.12447910  0.73535533  0.49236625  1
  O  O205  1  0.13468965  0.73658823  1.01786579  1
  O  O206  1  0.65512957  0.23353003  0.49977376  1
  O  O207  1  0.62637584  0.24373774  0.99398910  1
  O  O208  1  0.61593023  0.74304080  0.48588986  1
  O  O209  1  0.58794630  0.73822210  0.98199260  1
  O  O210  1  0.48536804  0.24692117  0.12084383  1
  O  O211  1  0.49070098  0.24087229  0.63262586  1
  O  O212  1  0.52234759  0.75303550  0.15909427  1
  O  O213  1  0.48609898  0.74308341  0.62156615  1
  O  O214  1  0.98999076  0.24358209  0.11776359  1
  O  O215  1  1.00272510  0.24622861  0.63049442  1
  O  O216  1  0.99859810  0.73126926  0.12496080  1
  O  O217  1  0.99980522  0.75854620  0.64103157  1
  O  O218  1  0.01783967  0.25927922  0.38135950  1
  O  O219  1  0.01424986  0.25173891  0.86520763  1
  O  O220  1  0.00978740  0.76008409  0.38330125  1
  O  O221  1  0.00368690  0.76511194  0.86649536  1
  O  O222  1  0.52130481  0.27340368  0.39354600  1
  O  O223  1  0.50475538  0.25480374  0.86928034  1
  O  O224  1  0.44836307  0.79178451  0.38835901  1
  O  O225  1  0.50131839  0.73566902  0.83932608  1
  O  O226  1  0.25781920  0.12230784  0.48433421  1
  O  O227  1  0.23720332  0.13843969  1.01299224  1
  O  O228  1  0.23178258  0.63622015  0.50499757  1
  O  O229  1  0.25677715  0.63686144  0.99279528  1
  O  O230  1  0.74626308  0.12111377  0.50385342  1
  O  O231  1  0.73184552  0.14496758  1.01817257  1
  O  O232  1  0.73018992  0.64126266  0.50104312  1
  O  O233  1  0.72464007  0.65392971  1.02822935  1
  O  O234  1  0.25458991  0.36536331  0.00635279  1
  O  O235  1  0.24691017  0.38699505  0.52043827  1
  O  O236  1  0.25882332  0.85699071  0.00710089  1
  O  O237  1  0.23973255  0.85824660  0.50946313  1
  O  O238  1  0.74933197  0.35870503  0.01195010  1
  O  O239  1  0.76375442  0.34787081  0.48099776  1
  O  O240  1  0.71432487  0.82731890  0.00830037  1
  O  O241  1  0.74993732  0.85185936  0.47460060  1
  O  O242  1  0.13605240  0.48871657  0.23754025  1
  O  O243  1  0.13899875  0.48883614  0.76064767  1
  O  O244  1  0.13009131  0.99771060  0.24858894  1
  O  O245  1  0.12279272  0.98001955  0.75162391  1
  O  O246  1  0.58764910  0.45430010  0.26150076  1
  O  O247  1  0.62960343  0.48162250  0.73859188  1
  O  O248  1  0.62081865  0.99941030  0.24274964  1
  O  O249  1  0.62509574  1.00866207  0.73291834  1
  O  O250  1  0.36093841  0.01149602  0.25027637  1
  O  O251  1  0.37843376  0.01625034  0.74145941  1
  O  O252  1  0.36119040  0.49527815  0.25518689  1
  O  O253  1  0.36616775  0.51503993  0.75824221  1
  O  O254  1  0.86903415  0.00071058  0.26476554  1
  O  O255  1  0.88149207  0.01596372  0.74180757  1
  O  O256  1  0.88169225  0.50792681  0.26472916  1
  O  O257  1  0.86869544  0.48538033  0.76178249  1
  O  O258  1  0.12672940  0.36292624  0.36713753  1
  O  O259  1  0.13853443  0.35653857  0.85740709  1
  O  O260  1  0.11569918  0.86636898  0.37169286  1
  O  O261  1  0.14466370  0.87211073  0.86752998  1
  O  O262  1  0.62268008  0.38411812  0.39574239  1
  O  O263  1  0.61480943  0.36145796  0.88047016  1
  O  O264  1  0.66014896  0.83568219  0.26738207  1
  O  O265  1  0.59227056  0.89022117  0.87473477  1
  O  O266  1  0.38072677  0.13210730  0.13140261  1
  O  O267  1  0.38352167  0.13541713  0.62985530  1
  O  O268  1  0.42577599  0.62276055  0.14211751  1
  O  O269  1  0.37167136  0.63662975  0.62953054  1
  O  O270  1  0.89101374  0.13101646  0.12391810  1
  O  O271  1  0.89220544  0.13252090  0.63264251  1
  O  O272  1  0.88447003  0.62331886  0.13349951  1
  O  O273  1  0.78553338  0.63765999  0.67739023  1
  O  O274  1  0.25745614  0.25753933  0.11579754  1
  O  O275  1  0.26783354  0.26123295  0.62911020  1
  O  O276  1  0.27781830  0.73922358  0.14033064  1
  O  O277  1  0.25025255  0.75550984  0.61567553  1
  O  O278  1  0.76655656  0.26170687  0.11874634  1
  O  O279  1  0.77521333  0.24206209  0.61043890  1
  O  O280  1  0.77715576  0.75188218  0.14437461  1
  O  O281  1  0.73602716  0.77685857  0.60517795  1
  O  O282  1  0.24006600  0.24270241  0.37112881  1
  O  O283  1  0.24580947  0.25051227  0.88507343  1
  O  O284  1  0.23486342  0.75612184  0.38919791  1
  O  O285  1  0.26384558  0.74258239  0.86991757  1
  O  O286  1  0.77731553  0.23293653  0.38035156  1
  O  O287  1  0.73930439  0.25205264  0.89341532  1
  O  O288  1  0.76818960  0.72607149  0.38748793  1
  O  O289  1  0.71917480  0.74636367  0.86917546  1
  O  O290  1  0.01293234  0.13028357  0.00968984  1
  O  O291  1  0.00462593  0.10572216  0.49955301  1
  O  O292  1  0.02349651  0.62283476  0.00374233  1
  O  O293  1  0.01383054  0.61201171  0.50108621  1
  O  O294  1  0.51034773  0.13195903  0.01512219  1
  O  O295  1  0.51617275  0.12553876  0.50298089  1
  O  O296  1  0.49590878  0.59351941  -0.01120988  1
  O  O297  1  0.49976612  0.63507820  0.49123556  1
  O  O298  1  0.48166513  0.39826602  0.49918322  1
  O  O299  1  0.49132069  0.37501468  0.98459127  1
  O  O300  1  0.50630000  0.89301070  0.50035969  1
  O  O301  1  0.50148654  0.90075495  1.00184921  1
  O  O302  1  1.02108411  0.38897796  0.48742657  1
  O  O303  1  1.04527586  0.39208540  0.98196521  1
  O  O304  1  1.00351842  0.87981451  0.48825705  1
  O  O305  1  1.00977866  0.86919488  0.98577822  1
  O  O306  1  0.47501767  0.50579029  0.38122237  1
  O  O307  1  0.48957190  0.48848356  0.87141361  1
  O  O308  1  0.50249323  1.00120930  0.37964905  1
  O  O309  1  0.48982715  1.01375556  0.88019647  1
  O  O310  1  1.00020735  0.49146611  0.38143075  1
  O  O311  1  0.98903253  0.49797068  0.87458280  1
  O  O312  1  0.99710563  0.98852733  0.38374867  1
  O  O313  1  1.00079035  0.97637471  0.87349232  1
  O  O314  1  0.00839324  0.01587900  0.13347162  1
  O  O315  1  -0.00276843  -0.00910621  0.60850550  1
  O  O316  1  0.01271099  0.50509250  0.11825859  1
  O  O317  1  0.00323537  0.48733733  0.61009246  1
  O  O318  1  0.50720125  0.01527971  0.13903532  1
  O  O319  1  0.51191492  0.00825143  0.61575062  1
  O  O320  1  0.50716143  0.47698572  0.10736391  1
  O  O321  1  0.48132498  0.51847050  0.60443492  1
  O  O322  1  0.24391302  0.37542113  0.23882031  1
  O  O323  1  0.25246667  0.38188699  0.74322938  1
  O  O324  1  0.23905886  0.89540198  0.26708457  1
  O  O325  1  0.24312568  0.87086131  0.73528038  1
  O  O326  1  0.76035552  0.37731887  0.22964781  1
  O  O327  1  0.73380932  0.34015416  0.73088166  1
  O  O328  1  0.73807117  0.87273125  0.27199637  1
  O  O329  1  0.74820651  0.86299479  0.74533694  1
  O  O330  1  0.25725969  0.11881292  0.25713941  1
  O  O331  1  0.26710654  0.13151301  0.74760887  1
  O  O332  1  0.24556559  0.60844415  0.23790730  1
  O  O333  1  0.25239042  0.62040463  0.75985973  1
  O  O334  1  0.75457781  0.11996476  0.22409437  1
  O  O335  1  0.76789386  0.13091647  0.74223287  1
  O  O336  1  0.76307237  0.61972233  0.26643573  1
  O  O337  1  0.68931206  0.53727341  0.75434288  1
  O  O338  1  0.36307417  0.14287458  0.36624737  1
  O  O339  1  0.37969760  0.12946016  0.86028973  1
  O  O340  1  0.35363097  0.60806514  0.36802227  1
  O  O341  1  0.36508641  0.61767303  0.86734656  1
  O  O342  1  0.89086870  0.10944877  0.37140841  1
  O  O343  1  0.88228644  0.13027171  0.85609670  1
  O  O344  1  0.88067246  0.61612058  0.36966784  1
  O  O345  1  0.87991480  0.61823772  0.86827190  1
  O  O346  1  0.13259924  0.37818047  0.12853058  1
  O  O347  1  0.14802771  0.36354815  0.63947631  1
  O  O348  1  0.11457808  0.88772424  0.13940330  1
  O  O349  1  0.13539840  0.87649341  0.62730368  1
  O  O350  1  0.64014376  0.36901123  0.12378523  1
  O  O351  1  0.59019517  0.36575661  0.59899322  1
  O  O352  1  0.60846148  0.89040606  0.11990782  1
  O  O353  1  0.62754887  0.89149000  0.62288814  1
  O  O354  1  0.12877461  0.25996690  0.24842568  1
  O  O355  1  0.12545896  0.24932699  0.75495971  1
  O  O356  1  0.13943996  0.76352187  0.26369348  1
  O  O357  1  0.11859293  0.76976768  0.74828788  1
  O  O358  1  0.62053372  0.27497346  0.26202562  1
  O  O359  1  0.61198883  0.23188350  0.76717239  1
  O  O360  1  0.66066151  0.76057542  0.26396005  1
  O  O361  1  0.60881927  0.75498965  0.72631552  1
  O  O362  1  0.36071306  0.24216447  0.23734840  1
  O  O363  1  0.38849707  0.23972307  0.74449085  1
  O  O364  1  0.33402952  0.76461343  0.19794514  1
  O  O365  1  0.37813551  0.74115315  0.73743771  1
  O  O366  1  0.87609682  0.25041532  0.23276211  1
  O  O367  1  0.89187780  0.24136845  0.73441403  1
  O  O368  1  0.88653391  0.73116730  0.24940817  1
  O  O369  1  0.89377613  0.74735880  0.75476246  1
  O  O370  1  0.37481464  0.51408477  0.48862912  1
  O  O371  1  0.38233211  0.48164610  0.98838688  1
  O  O372  1  0.39818339  1.00997007  0.50109481  1
  O  O373  1  0.33823885  0.99443262  0.98317635  1
  O  O374  1  0.89889857  0.49765794  0.49013965  1
  O  O375  1  0.87562232  0.51433681  0.98518386  1
  O  O376  1  0.88436858  0.99904254  0.48605372  1
  O  O377  1  0.82853410  1.00252460  0.96476830  1
  O  O378  1  0.13527976  0.01175854  0.01808607  1
  O  O379  1  0.11437097  -0.00635559  0.49445377  1
  O  O380  1  0.14715101  0.51611450  0.01640118  1
  O  O381  1  0.12205112  0.51579143  0.49557804  1
  O  O382  1  0.62754630  0.02079495  0.02076140  1
  O  O383  1  0.61870287  0.01129603  0.50542381  1
  O  O384  1  0.61213221  0.48832896  -0.01078162  1
  O  O385  1  0.59458314  0.52165525  0.48660714  1
  O  O386  1  0.36897815  0.36849898  0.11539127  1
  O  O387  1  0.37429251  0.36109541  0.62722988  1
  O  O388  1  0.31485470  0.88739019  0.04520617  1
  O  O389  1  0.36216046  0.86288788  0.62725402  1
  O  O390  1  0.88059923  0.36861429  0.12372680  1
  O  O391  1  0.89228321  0.35479206  0.62348281  1
  O  O392  1  0.90053789  0.85508388  0.13047331  1
  O  O393  1  0.85746136  0.88188755  0.63176145  1
  O  O394  1  0.13504057  0.14050272  0.37148935  1
  O  O395  1  0.12102731  0.13080917  0.88433491  1
  O  O396  1  0.11608233  0.64115995  0.36464145  1
  O  O397  1  0.14713155  0.62244620  0.89259877  1
  O  O398  1  0.63255415  0.12266613  0.38838021  1
  O  O399  1  0.61866183  0.13154591  0.89563673  1
  O  O400  1  0.64302322  0.61814874  0.37904358  1
  O  O401  1  0.65411790  0.60324808  0.78653562  1
