# generated using pymatgen
data_V73Zn73O256
_symmetry_space_group_name_H-M   'P 1'
_cell_length_a   16.86676341
_cell_length_b   16.85433611
_cell_length_c   16.86250936
_cell_angle_alpha   89.98361247
_cell_angle_beta   90.03752507
_cell_angle_gamma   89.87606949
_symmetry_Int_Tables_number   1
_chemical_formula_structural   V73Zn73O256
_chemical_formula_sum   'V73 Zn73 O256'
_cell_volume   4793.62967399
_cell_formula_units_Z   1
loop_
 _symmetry_equiv_pos_site_id
 _symmetry_equiv_pos_as_xyz
  1  'x, y, z'
loop_
 _atom_site_type_symbol
 _atom_site_label
 _atom_site_symmetry_multiplicity
 _atom_site_fract_x
 _atom_site_fract_y
 _atom_site_fract_z
 _atom_site_occupancy
  V  V0  1  0.62741589  0.87625921  0.75927098  1
  V  V1  1  0.12301495  0.74534764  0.37612604  1
  V  V2  1  0.70432180  0.65421302  0.38959156  1
  V  V3  1  0.38109538  0.62196121  0.76134972  1
  V  V4  1  0.01139013  0.72845982  0.74637614  1
  V  V5  1  0.74811959  0.34122849  0.11861710  1
  V  V6  1  0.62454305  0.38210270  0.75996153  1
  V  V7  1  0.12194437  0.38977722  0.74842959  1
  V  V8  1  0.00188482  0.86680474  0.37535017  1
  V  V9  1  0.50158467  0.61543785  0.61614383  1
  V  V10  1  0.49548690  0.00739309  0.50373524  1
  V  V11  1  -0.00859511  0.37344623  0.88288832  1
  V  V12  1  0.50435405  0.76062547  0.75996550  1
  V  V13  1  0.86623524  0.86637468  -0.00090769  1
  V  V14  1  0.37905486  0.37538301  -0.00047184  1
  V  V15  1  0.75244423  0.87890320  0.62387140  1
  V  V16  1  0.65174434  0.25289615  0.38013282  1
  V  V17  1  0.38042499  0.75330070  0.12723961  1
  V  V18  1  0.26379845  0.11580455  0.87118632  1
  V  V19  1  0.50284896  0.50052925  -0.00838958  1
  V  V20  1  0.86106018  0.12598241  0.74209987  1
  V  V21  1  0.63789471  0.50087912  0.12763859  1
  V  V22  1  0.50439455  0.62927619  0.12651723  1
  V  V23  1  0.62951435  0.23457068  0.87235325  1
  V  V24  1  0.12944983  0.27447548  0.36885271  1
  V  V25  1  0.63758006  0.64563583  -0.00009891  1
  V  V26  1  0.64261040  0.12359073  0.00525094  1
  V  V27  1  0.12611404  -0.00237673  0.12987030  1
  V  V28  1  0.37897009  0.75451512  0.62346210  1
  V  V29  1  0.24875821  0.49529167  0.24661379  1
  V  V30  1  0.89157690  0.70043016  0.17184974  1
  V  V31  1  0.63950596  0.12941456  0.50276566  1
  V  V32  1  0.24426822  0.24492691  0.50783470  1
  V  V33  1  0.25350657  0.62558353  0.37542267  1
  V  V34  1  0.74312754  0.64778550  0.84676334  1
  V  V35  1  0.12440117  0.25073905  0.87807466  1
  V  V36  1  0.51439355  0.87365368  0.35783143  1
  V  V37  1  0.62743578  0.00550986  0.63044642  1
  V  V38  1  0.86190688  0.35097743  -0.00148111  1
  V  V39  1  0.00538094  0.26388595  0.25031261  1
  V  V40  1  0.49347902  0.24628556  0.74216658  1
  V  V41  1  0.85184403  0.50589542  0.86920082  1
  V  V42  1  0.24520007  0.37519802  0.12557895  1
  V  V43  1  0.11904205  0.86943651  0.25023759  1
  V  V44  1  0.24890988  0.87640408  0.12920817  1
  V  V45  1  0.87735938  0.87184330  0.50460400  1
  V  V46  1  0.38867494  0.62744166  0.25046340  1
  V  V47  1  0.26167592  0.24947360  0.00674730  1
  V  V48  1  0.63804256  0.49818989  0.61918223  1
  V  V49  1  0.38045877  0.87348500  -0.01923955  1
  V  V50  1  0.23462440  0.74664844  -0.00375965  1
  V  V51  1  0.01505739  0.00877341  0.51179356  1
  V  V52  1  0.87565941  0.12780339  0.25312434  1
  V  V53  1  0.00096049  -0.00351318  -0.00184943  1
  V  V54  1  0.86023228  0.00784476  0.87139618  1
  V  V55  1  0.23438931  0.87987053  0.62942414  1
  V  V56  1  0.87702739  0.73548198  0.63323894  1
  V  V57  1  0.39142442  0.50018792  0.37784524  1
  V  V58  1  0.60468863  0.34605018  0.22062747  1
  V  V59  1  0.87591059  -0.00132662  0.37327847  1
  V  V60  1  0.38135609  0.14240478  0.23600853  1
  V  V61  1  0.24297476  0.62200988  0.87823849  1
  V  V62  1  0.23906506  0.11736756  0.36853399  1
  V  V63  1  0.01983935  0.87463967  0.86120858  1
  V  V64  1  0.12816085  0.12792853  0.00082453  1
  V  V65  1  0.50077036  0.00937682  -0.00797003  1
  V  V66  1  0.49368435  0.35186252  0.37386965  1
  V  V67  1  0.75491427  0.35497146  0.61521184  1
  V  V68  1  0.00090353  0.13418252  0.12646049  1
  V  V69  1  0.37313183  0.00120800  0.35789012  1
  V  V70  1  0.37564346  0.37465768  0.51347991  1
  V  V71  1  0.25088500  0.74554069  0.50014705  1
  V  V72  1  -0.00433196  0.24042116  0.73796874  1
  Zn  Zn73  1  -0.01298621  0.51728947  0.01231901  1
  Zn  Zn74  1  0.37999317  0.87384071  0.49567773  1
  Zn  Zn75  1  0.67958789  0.94651414  0.20630076  1
  Zn  Zn76  1  0.72009426  0.07474963  0.33112081  1
  Zn  Zn77  1  0.78869222  0.52463890  0.31332989  1
  Zn  Zn78  1  0.24120432  0.38966144  0.63172351  1
  Zn  Zn79  1  0.37642392  0.13187905  0.73331568  1
  Zn  Zn80  1  0.11998195  0.53103306  0.09904155  1
  Zn  Zn81  1  0.37535407  0.49453394  0.87153330  1
  Zn  Zn82  1  0.19166456  0.18886791  0.18942442  1
  Zn  Zn83  1  0.18581782  0.18960883  0.69622124  1
  Zn  Zn84  1  0.19901586  0.69118852  0.18882038  1
  Zn  Zn85  1  0.19540280  0.67345949  0.68533605  1
  Zn  Zn86  1  0.66467983  0.15700795  0.19733892  1
  Zn  Zn87  1  0.68201655  0.19007276  0.68958859  1
  Zn  Zn88  1  0.70895063  0.69214633  0.19179480  1
  Zn  Zn89  1  0.67736698  0.69927375  0.65339129  1
  Zn  Zn90  1  0.31380485  0.31118849  0.31535460  1
  Zn  Zn91  1  0.30941358  0.31417154  0.81496926  1
  Zn  Zn92  1  0.31525016  0.81486298  0.31075298  1
  Zn  Zn93  1  0.30157736  0.80792026  0.80646271  1
  Zn  Zn94  1  0.82434862  0.33564436  0.29634789  1
  Zn  Zn95  1  0.80598621  0.31063251  0.80575990  1
  Zn  Zn96  1  0.80958200  0.80253163  0.31818710  1
  Zn  Zn97  1  0.82082576  0.82405226  0.80756843  1
  Zn  Zn98  1  0.19737273  0.44321248  0.43811611  1
  Zn  Zn99  1  0.18640953  0.43838013  0.93885651  1
  Zn  Zn100  1  0.19183146  0.93296201  0.44485357  1
  Zn  Zn101  1  0.19305075  0.93612616  0.93834926  1
  Zn  Zn102  1  0.68078212  0.43996469  0.44929395  1
  Zn  Zn103  1  0.68439024  0.43915257  0.94115810  1
  Zn  Zn104  1  0.68643427  0.92812863  0.44166295  1
  Zn  Zn105  1  0.68708662  0.94029161  0.94307800  1
  Zn  Zn106  1  0.31622514  0.05739263  0.05763002  1
  Zn  Zn107  1  0.30791256  0.06020319  0.56555813  1
  Zn  Zn108  1  0.31551677  0.56326806  0.06169193  1
  Zn  Zn109  1  0.32801968  0.56666061  0.56063457  1
  Zn  Zn110  1  0.81477423  0.06240349  0.06743896  1
  Zn  Zn111  1  0.82069965  0.05859400  0.56079903  1
  Zn  Zn112  1  0.81847899  0.56192507  0.06029565  1
  Zn  Zn113  1  0.81464163  0.58613989  0.52254166  1
  Zn  Zn114  1  0.43864235  0.43789335  0.18509407  1
  Zn  Zn115  1  0.44238767  0.43221353  0.69404535  1
  Zn  Zn116  1  0.44568606  0.94525147  0.17295637  1
  Zn  Zn117  1  0.43539184  0.94084359  0.68906415  1
  Zn  Zn118  1  0.93650153  0.49624000  0.21436773  1
  Zn  Zn119  1  0.92597688  0.42665923  0.69659014  1
  Zn  Zn120  1  0.83958650  0.92999002  0.18092267  1
  Zn  Zn121  1  0.94070522  0.94805095  0.69023784  1
  Zn  Zn122  1  0.05715439  0.05436512  0.30955044  1
  Zn  Zn123  1  0.06313441  0.06501724  0.81399192  1
  Zn  Zn124  1  0.07652252  0.59303707  0.25873771  1
  Zn  Zn125  1  0.04874552  0.56932815  0.84990680  1
  Zn  Zn126  1  0.54993470  0.06959912  0.31433770  1
  Zn  Zn127  1  0.55192208  0.06043199  0.81665117  1
  Zn  Zn128  1  0.58643304  0.54740615  0.32190228  1
  Zn  Zn129  1  0.57201669  0.57166140  0.80907581  1
  Zn  Zn130  1  0.42462362  0.18019638  0.45028180  1
  Zn  Zn131  1  0.44663197  0.19339787  0.92955338  1
  Zn  Zn132  1  0.45390033  0.69017100  0.43206017  1
  Zn  Zn133  1  0.44309584  0.69682908  0.94421867  1
  Zn  Zn134  1  0.96759300  0.17188975  0.42249594  1
  Zn  Zn135  1  0.93698318  0.18379716  0.93372523  1
  Zn  Zn136  1  0.91970012  0.64152773  0.35438241  1
  Zn  Zn137  1  0.93281752  0.68975445  0.92351686  1
  Zn  Zn138  1  0.02890642  0.36634103  0.10342008  1
  Zn  Zn139  1  0.06497150  0.31315877  0.56291779  1
  Zn  Zn140  1  0.04380876  0.80558801  0.06755922  1
  Zn  Zn141  1  0.05860665  0.80220736  0.56029440  1
  Zn  Zn142  1  0.56703658  0.31258323  0.04527124  1
  Zn  Zn143  1  0.56510045  0.31439214  0.56529243  1
  Zn  Zn144  1  0.55738778  0.83451467  0.06722487  1
  Zn  Zn145  1  0.56019631  0.81732372  0.55465952  1
  O  O146  1  0.12441065  0.11860264  0.11986510  1
  O  O147  1  0.13236959  0.08412840  0.66216863  1
  O  O148  1  0.11659808  0.62389474  0.15850326  1
  O  O149  1  0.17753128  0.56517206  0.63687547  1
  O  O150  1  0.61539108  0.12894963  0.10141769  1
  O  O151  1  0.62579128  0.11386559  0.61705635  1
  O  O152  1  0.62233060  0.61861579  0.11988464  1
  O  O153  1  0.60787724  0.60678474  0.63854364  1
  O  O154  1  0.38202803  0.37991855  0.38260084  1
  O  O155  1  0.36761022  0.38043979  0.89206177  1
  O  O156  1  0.37393025  0.89227789  0.37362135  1
  O  O157  1  0.35610769  0.87440499  0.88423923  1
  O  O158  1  0.88715094  0.37730303  0.41364174  1
  O  O159  1  0.86914439  0.37534992  0.88347794  1
  O  O160  1  0.88552650  0.87618089  0.38606673  1
  O  O161  1  0.88626266  0.89350279  0.87789967  1
  O  O162  1  0.26220906  0.00918766  0.38289024  1
  O  O163  1  0.24476512  0.01692207  0.87752702  1
  O  O164  1  0.26734759  0.50673745  0.36595932  1
  O  O165  1  0.25809285  0.51769645  0.88759963  1
  O  O166  1  0.77098531  -0.00394879  0.39260408  1
  O  O167  1  0.76220841  0.00125132  0.87483245  1
  O  O168  1  0.68779523  0.51201872  0.36768520  1
  O  O169  1  0.74883062  0.50671740  0.87345411  1
  O  O170  1  0.25165871  0.49909300  0.13553705  1
  O  O171  1  0.24287243  0.51778011  0.62822612  1
  O  O172  1  0.23610846  0.98709887  0.11187680  1
  O  O173  1  0.24462455  0.97760648  0.60373356  1
  O  O174  1  0.73717129  0.50908467  0.13063132  1
  O  O175  1  0.73747920  0.50085023  0.61554486  1
  O  O176  1  0.75508003  0.99270633  0.12962356  1
  O  O177  1  0.73563090  0.99539104  0.62303789  1
  O  O178  1  0.00188835  0.36091416  0.24076589  1
  O  O179  1  0.00324386  0.36061799  0.75963504  1
  O  O180  1  0.01153007  0.87326151  0.26733162  1
  O  O181  1  0.00802359  0.88814656  0.76077642  1
  O  O182  1  0.49728998  0.37350650  0.26956827  1
  O  O183  1  0.51413202  0.36467771  0.74888232  1
  O  O184  1  0.49719361  0.89021709  0.25917700  1
  O  O185  1  0.50825365  0.86829505  0.74364390  1
  O  O186  1  0.48112119  0.13070263  0.24986558  1
  O  O187  1  0.49721081  0.13961098  0.75500537  1
  O  O188  1  0.49594314  0.61782121  0.23859923  1
  O  O189  1  0.49511883  0.63945059  0.74578362  1
  O  O190  1  0.99895243  0.13218046  0.24361365  1
  O  O191  1  0.99598110  0.13730097  0.75461380  1
  O  O192  1  0.98000721  0.56493915  0.29851992  1
  O  O193  1  0.99636093  0.63141984  0.76119766  1
  O  O194  1  0.36981759  0.25873162  -0.00471783  1
  O  O195  1  0.35581822  0.26274833  0.49683734  1
  O  O196  1  0.36487997  0.75761531  0.00895318  1
  O  O197  1  0.37112566  0.74804518  0.50804922  1
  O  O198  1  0.86208003  0.25189813  -0.01224061  1
  O  O199  1  0.92556041  0.33622868  0.46609827  1
  O  O200  1  0.87908764  0.76766434  -0.01718997  1
  O  O201  1  0.88464974  0.76992667  0.52445553  1
  O  O202  1  0.13420796  0.25953220  0.48236387  1
  O  O203  1  0.13465356  0.23758127  0.99471894  1
  O  O204  1  0.13983396  0.74639225  0.48953364  1
  O  O205  1  0.13646830  0.75385328  1.01060317  1
  O  O206  1  0.62050263  0.23684278  0.49292466  1
  O  O207  1  0.61573949  0.23366331  0.98329718  1
  O  O208  1  0.64023642  0.74233488  0.55190521  1
  O  O209  1  0.62064739  0.74311664  1.01240136  1
  O  O210  1  0.55083801  0.28823504  0.15662519  1
  O  O211  1  0.50639684  0.25109449  0.64083753  1
  O  O212  1  0.48884924  0.74292879  0.11828575  1
  O  O213  1  0.49160613  0.74271482  0.63074842  1
  O  O214  1  1.01351687  0.24335384  0.13773649  1
  O  O215  1  1.00532849  0.24884674  0.63883164  1
  O  O216  1  0.97472326  0.73963237  0.12714843  1
  O  O217  1  0.98939154  0.74560201  0.63450735  1
  O  O218  1  0.02049338  0.25240754  0.36595614  1
  O  O219  1  0.00813001  0.25488944  0.87375326  1
  O  O220  1  0.01687302  0.75291088  0.38415197  1
  O  O221  1  -0.00197584  0.76667650  0.85345494  1
  O  O222  1  0.48637673  0.25272837  0.37799794  1
  O  O223  1  0.51625883  0.25394517  0.86387675  1
  O  O224  1  0.49112029  0.77575499  0.37196803  1
  O  O225  1  0.50175614  0.74972049  0.85860255  1
  O  O226  1  0.25427848  0.13973599  0.48476816  1
  O  O227  1  0.24677825  0.13058366  0.99436873  1
  O  O228  1  0.26414331  0.63121551  0.48483800  1
  O  O229  1  0.25432050  0.63732800  0.99405065  1
  O  O230  1  0.73893141  0.12195946  0.50559240  1
  O  O231  1  0.74215354  0.12231144  1.00164944  1
  O  O232  1  0.71211091  0.62732392  0.49274060  1
  O  O233  1  0.73767618  0.63098740  1.00742835  1
  O  O234  1  0.25728716  0.36822750  0.00634544  1
  O  O235  1  0.25558511  0.36784535  0.50671148  1
  O  O236  1  0.25531812  0.86385578  0.00824440  1
  O  O237  1  0.25844775  0.85826593  0.50406964  1
  O  O238  1  0.75360134  0.37273745  0.00539482  1
  O  O239  1  0.74329797  0.37523449  0.51481583  1
  O  O240  1  0.76566182  0.87943834  -0.00407092  1
  O  O241  1  0.75996438  0.87973281  0.51482027  1
  O  O242  1  0.15198337  0.49522280  0.26151676  1
  O  O243  1  0.10884286  0.48542260  0.76934362  1
  O  O244  1  0.12103456  0.98764204  0.23839359  1
  O  O245  1  0.12887340  1.03072730  0.71712079  1
  O  O246  1  0.60689264  0.47354018  0.22427088  1
  O  O247  1  0.61625391  0.48735815  0.74248894  1
  O  O248  1  0.64099201  1.04567021  0.25168139  1
  O  O249  1  0.61031454  0.99182363  0.73594290  1
  O  O250  1  0.37630510  0.00568302  0.25640150  1
  O  O251  1  0.36866867  0.02045620  0.72226934  1
  O  O252  1  0.37671427  0.50942701  0.25746411  1
  O  O253  1  0.38551461  0.51745828  0.75556935  1
  O  O254  1  0.88217874  0.01663582  0.26015622  1
  O  O255  1  0.87810811  0.01242614  0.76243282  1
  O  O256  1  0.85142370  0.44353500  0.26943369  1
  O  O257  1  0.86979475  0.49189443  0.77098544  1
  O  O258  1  0.13546623  0.37281713  0.36706642  1
  O  O259  1  0.11495262  0.36466103  0.87245819  1
  O  O260  1  0.12407996  0.86658467  0.37014006  1
  O  O261  1  0.11939887  0.87648977  0.87413102  1
  O  O262  1  0.60585203  0.35448966  0.38522146  1
  O  O263  1  0.62863566  0.37377755  0.86348728  1
  O  O264  1  0.61513595  0.88794173  0.36592995  1
  O  O265  1  0.63047911  0.88355612  0.85745179  1
  O  O266  1  0.36436290  0.11881357  0.13837212  1
  O  O267  1  0.37213031  0.13054867  0.61991418  1
  O  O268  1  0.38419880  0.63217158  0.12995025  1
  O  O269  1  0.38242874  0.63370615  0.64007323  1
  O  O270  1  0.89118628  0.12288891  0.13829672  1
  O  O271  1  0.87565216  0.11501415  0.64271024  1
  O  O272  1  0.88445656  0.59738030  0.14921970  1
  O  O273  1  0.85920104  0.63920619  0.61925811  1
  O  O274  1  0.24867529  0.25619188  0.11354192  1
  O  O275  1  0.23036313  0.24662242  0.60887813  1
  O  O276  1  0.25928375  0.75571104  0.11504024  1
  O  O277  1  0.25933280  0.74664182  0.61652642  1
  O  O278  1  0.73388989  0.24496199  0.11452788  1
  O  O279  1  0.74158489  0.25471239  0.61792886  1
  O  O280  1  0.80250434  0.73697801  0.13784099  1
  O  O281  1  0.77007745  0.77172870  0.63602980  1
  O  O282  1  0.23861791  0.24288599  0.37723116  1
  O  O283  1  0.24102457  0.24644167  0.88834949  1
  O  O284  1  0.25090673  0.74437314  0.38061610  1
  O  O285  1  0.25174963  0.74318757  0.89053546  1
  O  O286  1  0.74836570  0.27147690  0.37538592  1
  O  O287  1  0.72884437  0.25273554  0.86843862  1
  O  O288  1  0.73531594  0.75191129  0.38764777  1
  O  O289  1  0.75477223  0.74578391  0.86227318  1
  O  O290  1  0.00968244  0.12261207  0.00563406  1
  O  O291  1  -0.00168422  0.11104175  0.50752701  1
  O  O292  1  0.00513326  0.61208644  -0.04899450  1
  O  O293  1  0.02082064  0.59391244  0.46973718  1
  O  O294  1  0.49027530  0.10996285  0.00249438  1
  O  O295  1  0.50965219  0.11206237  0.49248722  1
  O  O296  1  0.51132514  0.62196146  0.00740588  1
  O  O297  1  0.49161705  0.62604391  0.51700003  1
  O  O298  1  0.48089422  0.36304162  0.49446684  1
  O  O299  1  0.49625190  0.39251812  1.00331633  1
  O  O300  1  0.50184607  0.88921278  0.48553148  1
  O  O301  1  0.47990700  0.85287310  0.97951069  1
  O  O302  1  0.99129505  0.37619085  0.49552508  1
  O  O303  1  0.97495886  0.36314563  0.99572137  1
  O  O304  1  0.99803029  0.87881363  0.49087031  1
  O  O305  1  1.00104992  0.88312593  0.98465854  1
  O  O306  1  0.49347411  0.49121970  0.37605311  1
  O  O307  1  0.50628121  0.51240596  0.88994585  1
  O  O308  1  0.48739711  0.99651234  0.38044576  1
  O  O309  1  0.49864579  0.99198597  0.89152934  1
  O  O310  1  1.05460342  0.52884237  0.44973613  1
  O  O311  1  0.98105605  0.47626318  0.87318277  1
  O  O312  1  0.99345437  0.98899822  0.38276594  1
  O  O313  1  1.00606573  0.99430294  0.88368719  1
  O  O314  1  0.01362223  0.01302802  0.11131764  1
  O  O315  1  0.00661119  -0.01096282  0.60996881  1
  O  O316  1  0.00485987  0.47861565  0.12262635  1
  O  O317  1  -0.04065293  0.50665843  0.60312745  1
  O  O318  1  0.52178166  -0.04746944  0.08821110  1
  O  O319  1  0.51266773  -0.00928674  0.60826287  1
  O  O320  1  0.50521215  0.51283621  0.11318183  1
  O  O321  1  0.48867879  0.51517674  0.62910286  1
  O  O322  1  0.26854685  0.38925290  0.24127366  1
  O  O323  1  0.22919275  0.37117985  0.75154625  1
  O  O324  1  0.24109162  0.87107205  0.23596736  1
  O  O325  1  0.25004320  0.86998353  0.72975885  1
  O  O326  1  0.72284636  0.35432108  0.22310093  1
  O  O327  1  0.73125102  0.36759847  0.73646777  1
  O  O328  1  0.76787920  0.88562583  0.25631328  1
  O  O329  1  0.73611386  0.87914021  0.73941024  1
  O  O330  1  0.25852157  0.12727330  0.26448916  1
  O  O331  1  0.25707229  0.14142284  0.76974396  1
  O  O332  1  0.26906064  0.61461980  0.25569561  1
  O  O333  1  0.27242419  0.63884887  0.76752069  1
  O  O334  1  0.77414665  0.14278126  0.24962127  1
  O  O335  1  0.76171210  0.13248737  0.75043368  1
  O  O336  1  0.73628498  0.62844623  0.28067288  1
  O  O337  1  0.72818433  0.63915222  0.74917311  1
  O  O338  1  0.36762614  0.11499585  0.36751369  1
  O  O339  1  0.36417899  0.12596934  0.88182599  1
  O  O340  1  0.37808437  0.62056068  0.36804024  1
  O  O341  1  0.38029952  0.62960364  0.86819044  1
  O  O342  1  0.88575852  0.11606215  0.36510775  1
  O  O343  1  0.87903028  0.11323667  0.86704516  1
  O  O344  1  0.83125070  0.59602434  0.40762054  1
  O  O345  1  0.84948914  0.61679912  0.87152084  1
  O  O346  1  0.14509252  0.37502545  0.12534007  1
  O  O347  1  0.11781029  0.38188364  0.64181167  1
  O  O348  1  0.12541075  0.87712940  0.13083653  1
  O  O349  1  0.13610963  0.86219993  0.61720135  1
  O  O350  1  0.64114632  0.38999438  0.10441466  1
  O  O351  1  0.63098850  0.38250924  0.63405519  1
  O  O352  1  0.63351058  0.84263238  0.15929770  1
  O  O353  1  0.63604283  0.88840259  0.62658903  1
  O  O354  1  0.12159038  0.24975757  0.26073110  1
  O  O355  1  0.11226970  0.25290438  0.76154672  1
  O  O356  1  0.13404726  0.76062637  0.26151182  1
  O  O357  1  0.11177117  0.73424609  0.73276987  1
  O  O358  1  0.62709657  0.24180440  0.27703561  1
  O  O359  1  0.61543566  0.25537359  0.75761752  1
  O  O360  1  0.62968326  0.77908525  0.20851916  1
  O  O361  1  0.61350231  0.76638551  0.74075239  1
  O  O362  1  0.36757940  0.24242516  0.24437568  1
  O  O363  1  0.38834259  0.25528634  0.75654118  1
  O  O364  1  0.36822035  0.73923195  0.23898266  1
  O  O365  1  0.38740628  0.74740430  0.74444762  1
  O  O366  1  0.89677457  0.24185627  0.26450769  1
  O  O367  1  0.88628691  0.23894176  0.75685919  1
  O  O368  1  0.89061245  0.72515854  0.27576735  1
  O  O369  1  0.88895402  0.75766031  0.73789164  1
  O  O370  1  0.36763807  0.48387312  0.49060689  1
  O  O371  1  0.39124788  0.50105445  0.99785435  1
  O  O372  1  0.38826910  1.00194044  0.49397073  1
  O  O373  1  0.38644324  0.98040809  1.00683725  1
  O  O374  1  0.91316288  0.50383678  0.54376690  1
  O  O375  1  0.87077797  0.49204132  0.98456730  1
  O  O376  1  0.88943513  0.99089170  0.49435460  1
  O  O377  1  0.88664289  1.00336819  0.98659114  1
  O  O378  1  0.12095409  0.00977960  0.00478770  1
  O  O379  1  0.11350045  -0.00102569  0.49028984  1
  O  O380  1  0.10730659  0.49050866  -0.00333149  1
  O  O381  1  0.11860987  0.50797074  0.49749406  1
  O  O382  1  0.61665876  0.01720292  -0.01248641  1
  O  O383  1  0.61919661  0.01144914  0.50382626  1
  O  O384  1  0.61693306  0.51001319  0.00899617  1
  O  O385  1  0.60553436  0.48762157  0.52491024  1
  O  O386  1  0.36734015  0.38459424  0.10914277  1
  O  O387  1  0.36614646  0.38563226  0.61663660  1
  O  O388  1  0.36589646  0.86807368  0.12256639  1
  O  O389  1  0.37178365  0.86252678  0.62180958  1
  O  O390  1  0.85486852  0.35788967  0.10934889  1
  O  O391  1  0.85476866  0.36856221  0.63249079  1
  O  O392  1  0.89606393  0.88350794  0.09617424  1
  O  O393  1  0.86174495  0.89289674  0.62303722  1
  O  O394  1  0.13779285  0.11790396  0.36859365  1
  O  O395  1  0.13154426  0.13270609  0.88338772  1
  O  O396  1  0.14664582  0.63500534  0.35658009  1
  O  O397  1  0.14692297  0.62756894  0.86303935  1
  O  O398  1  0.63506730  0.13660092  0.38842499  1
  O  O399  1  0.62686720  0.12962483  0.87602823  1
  O  O400  1  0.60201188  0.65206332  0.37250419  1
  O  O401  1  0.63870025  0.62915808  0.88791996  1
