# generated using pymatgen
data_V73Zn73O256
_symmetry_space_group_name_H-M   'P 1'
_cell_length_a   16.84704134
_cell_length_b   16.89117944
_cell_length_c   16.88398029
_cell_angle_alpha   90.05536800
_cell_angle_beta   89.93578466
_cell_angle_gamma   89.87194390
_symmetry_Int_Tables_number   1
_chemical_formula_structural   V73Zn73O256
_chemical_formula_sum   'V73 Zn73 O256'
_cell_volume   4804.59618573
_cell_formula_units_Z   1
loop_
 _symmetry_equiv_pos_site_id
 _symmetry_equiv_pos_as_xyz
  1  'x, y, z'
loop_
 _atom_site_type_symbol
 _atom_site_label
 _atom_site_symmetry_multiplicity
 _atom_site_fract_x
 _atom_site_fract_y
 _atom_site_fract_z
 _atom_site_occupancy
  V  V0  1  0.48785038  0.37714147  0.38547588  1
  V  V1  1  0.26499617  0.24495557  0.00277978  1
  V  V2  1  -0.00275100  0.23842306  0.73486289  1
  V  V3  1  0.24023309  -0.01315614  0.73922075  1
  V  V4  1  0.12258947  -0.01229263  0.58608127  1
  V  V5  1  0.49641554  0.24248842  0.23859531  1
  V  V6  1  0.74719124  0.50090125  0.24869699  1
  V  V7  1  0.87473350  0.00503422  0.86346358  1
  V  V8  1  0.13256557  0.37779420  0.74019854  1
  V  V9  1  0.12398524  0.63368387  0.00235983  1
  V  V10  1  0.00478321  0.37334250  0.36489435  1
  V  V11  1  0.24745891  0.37961752  0.11221481  1
  V  V12  1  0.75039266  0.86641676  0.64025080  1
  V  V13  1  0.86506553  0.51325890  0.86941817  1
  V  V14  1  0.11952894  0.62545248  0.50143708  1
  V  V15  1  0.62783958  0.72386329  0.87146501  1
  V  V16  1  0.87018798  0.49775286  0.37458472  1
  V  V17  1  0.26629888  0.26110727  0.50691534  1
  V  V18  1  0.36551749  0.87585992  0.01247189  1
  V  V19  1  0.50001189  0.52625055  0.50383012  1
  V  V20  1  0.86628882  0.36688589  0.00156869  1
  V  V21  1  0.37727390  0.47513203  0.87667532  1
  V  V22  1  -0.00521172  0.49728799  0.50767057  1
  V  V23  1  0.00059629  -0.00523818  0.00536971  1
  V  V24  1  0.12112672  0.00393341  0.15484494  1
  V  V25  1  0.87362046  0.13181036  0.23572420  1
  V  V26  1  0.12539402  0.24750958  0.87170861  1
  V  V27  1  0.11945932  0.11968543  0.00448239  1
  V  V28  1  0.48837801  0.50113069  0.00270751  1
  V  V29  1  0.37450477  -0.00239133  0.87362251  1
  V  V30  1  0.86781584  0.87227315  0.01173114  1
  V  V31  1  0.01181642  0.49530417  0.00310691  1
  V  V32  1  0.62836365  -0.00966046  0.12515769  1
  V  V33  1  -0.00300600  0.75126123  0.24304229  1
  V  V34  1  0.37715412  0.12823243  0.74166970  1
  V  V35  1  0.24403218  0.49344043  0.26662700  1
  V  V36  1  0.87536626  0.62172527  0.24026218  1
  V  V37  1  0.86692559  0.37046172  0.50902031  1
  V  V38  1  0.39750710  -0.00276616  0.38047613  1
  V  V39  1  0.25492490  0.75663835  0.51051564  1
  V  V40  1  0.86411149  0.00415867  0.37927168  1
  V  V41  1  0.26048878  0.62801266  0.86639980  1
  V  V42  1  0.00004042  0.37508551  0.87175921  1
  V  V43  1  0.37689732  0.11909143  0.24172976  1
  V  V44  1  -0.00550677  0.87181390  0.38627176  1
  V  V45  1  0.12091867  0.74935190  0.85315679  1
  V  V46  1  0.74762112  0.73025188  0.01198084  1
  V  V47  1  0.74696552  0.25086278  0.51536535  1
  V  V48  1  0.61989245  0.37357272  0.24843810  1
  V  V49  1  0.62676821  0.11434282  0.49340161  1
  V  V50  1  0.49811281  0.01189997  0.00684890  1
  V  V51  1  0.63424903  0.13530860  0.00941294  1
  V  V52  1  0.73910728  0.63779773  0.38183486  1
  V  V53  1  -0.01936489  0.63855257  0.63113741  1
  V  V54  1  0.62994850  0.26556644  0.87419528  1
  V  V55  1  0.85741410  0.85449565  0.50050383  1
  V  V56  1  0.64354940  0.01086526  0.65442040  1
  V  V57  1  0.50550267  0.11830253  0.62430909  1
  V  V58  1  0.12171353  0.74726231  0.37207688  1
  V  V59  1  0.24974814  0.12518045  0.86892755  1
  V  V60  1  0.60989757  0.51489152  0.12671917  1
  V  V61  1  0.27093286  0.62201282  0.38514161  1
  V  V62  1  0.75352514  -0.01251516  0.23918031  1
  V  V63  1  0.63174326  0.24892888  0.37390644  1
  V  V64  1  0.25234331  0.11991917  0.38243532  1
  V  V65  1  -0.00179565  0.86893998  0.86081854  1
  V  V66  1  0.50687142  0.26067324  0.75015723  1
  V  V67  1  0.63757811  0.49850183  0.62641464  1
  V  V68  1  0.12910725  0.25083646  0.37705539  1
  V  V69  1  0.75191071  0.12644286  0.86307440  1
  V  V70  1  0.75004665  0.36349393  0.12471892  1
  V  V71  1  0.51040528  0.87319500  0.86892747  1
  V  V72  1  0.38162654  0.88010567  0.51126100  1
  Zn  Zn73  1  0.86484729  0.12834205  0.71485433  1
  Zn  Zn74  1  0.12853060  0.49620576  0.62449259  1
  Zn  Zn75  1  0.37367441  0.61986024  0.21786803  1
  Zn  Zn76  1  0.29266377  0.47889385  0.72281493  1
  Zn  Zn77  1  0.01095151  0.60855073  0.13406811  1
  Zn  Zn78  1  0.01530529  0.22458237  0.22919015  1
  Zn  Zn79  1  0.23800271  0.88242223  0.17958503  1
  Zn  Zn80  1  0.00444005  0.10783215  0.57325995  1
  Zn  Zn81  1  0.28637579  0.72892867  0.05214235  1
  Zn  Zn82  1  0.19334062  0.18626485  0.19092971  1
  Zn  Zn83  1  0.17756925  0.17262903  0.67177339  1
  Zn  Zn84  1  0.20355797  0.67782645  0.18793142  1
  Zn  Zn85  1  0.22262812  0.63553966  0.65433138  1
  Zn  Zn86  1  0.69260225  0.18015155  0.19399410  1
  Zn  Zn87  1  0.68876568  0.33630555  0.69296959  1
  Zn  Zn88  1  0.68554511  0.69483838  0.19139260  1
  Zn  Zn89  1  0.62473685  0.70810668  0.66191539  1
  Zn  Zn90  1  0.31228156  0.30861715  0.30686624  1
  Zn  Zn91  1  0.31877106  0.30645445  0.68724353  1
  Zn  Zn92  1  0.32265508  0.80772283  0.32812991  1
  Zn  Zn93  1  0.31195913  0.81116739  0.81806731  1
  Zn  Zn94  1  0.81258938  0.31371157  0.31217654  1
  Zn  Zn95  1  0.81837108  0.30559173  0.81613854  1
  Zn  Zn96  1  0.81397730  0.81008406  0.30297309  1
  Zn  Zn97  1  0.79785455  0.81974941  0.83191843  1
  Zn  Zn98  1  0.18494670  0.43576353  0.43946710  1
  Zn  Zn99  1  0.19400750  0.43551273  0.92859636  1
  Zn  Zn100  1  0.20167375  0.92335271  0.39608385  1
  Zn  Zn101  1  0.18213230  0.93510107  0.92990799  1
  Zn  Zn102  1  0.68107978  0.44028291  0.44162410  1
  Zn  Zn103  1  0.68708452  0.44926346  0.94547930  1
  Zn  Zn104  1  0.69348173  0.93347276  0.43489439  1
  Zn  Zn105  1  0.69237276  0.94887809  0.93869777  1
  Zn  Zn106  1  0.29913827  0.05380242  0.06724314  1
  Zn  Zn107  1  0.30940072  0.06148994  0.56026643  1
  Zn  Zn108  1  0.30233137  0.55472767  0.05642803  1
  Zn  Zn109  1  0.31713244  0.45167511  0.55803427  1
  Zn  Zn110  1  0.81620261  0.06549615  0.05890218  1
  Zn  Zn111  1  0.81199996  0.06365711  0.55696434  1
  Zn  Zn112  1  0.81752352  0.54669332  0.06223980  1
  Zn  Zn113  1  0.77297479  0.59703634  0.59118438  1
  Zn  Zn114  1  0.42346528  0.42937427  0.18834880  1
  Zn  Zn115  1  0.46252043  0.45627347  0.68838814  1
  Zn  Zn116  1  0.44147743  0.93818963  0.18739601  1
  Zn  Zn117  1  0.44095295  0.94220496  0.69017307  1
  Zn  Zn118  1  0.96493570  0.39028921  0.16199264  1
  Zn  Zn119  1  0.92622588  0.43403532  0.69224387  1
  Zn  Zn120  1  0.94509434  0.93955522  0.19040930  1
  Zn  Zn121  1  0.93994670  0.94161973  0.67332292  1
  Zn  Zn122  1  0.04521114  0.07480715  0.35779952  1
  Zn  Zn123  1  0.06043499  0.05672771  0.81361787  1
  Zn  Zn124  1  0.06271903  0.55786466  0.31391021  1
  Zn  Zn125  1  0.05663472  0.56480507  0.80976826  1
  Zn  Zn126  1  0.56811130  0.06177379  0.30843086  1
  Zn  Zn127  1  0.56151545  0.07077308  0.82126716  1
  Zn  Zn128  1  0.55610185  0.56380081  0.32208102  1
  Zn  Zn129  1  0.57591451  0.53344889  0.82357246  1
  Zn  Zn130  1  0.44282903  0.18974106  0.43507319  1
  Zn  Zn131  1  0.44307787  0.18961917  0.92904787  1
  Zn  Zn132  1  0.45548355  0.70078681  0.55261708  1
  Zn  Zn133  1  0.44811924  0.68733800  0.94898714  1
  Zn  Zn134  1  0.92878703  0.19196055  0.42884433  1
  Zn  Zn135  1  0.93859612  0.18711842  0.93987046  1
  Zn  Zn136  1  0.93072629  0.68174157  0.43676350  1
  Zn  Zn137  1  0.93840965  0.69085205  0.94436428  1
  Zn  Zn138  1  0.07698211  0.30543369  0.06572264  1
  Zn  Zn139  1  0.06380111  0.30850498  0.55505171  1
  Zn  Zn140  1  0.10421336  0.80239547  0.08786251  1
  Zn  Zn141  1  0.06418649  0.81144664  0.57148122  1
  Zn  Zn142  1  0.55736342  0.31743935  0.05975446  1
  Zn  Zn143  1  0.55770815  0.30862837  0.56412214  1
  Zn  Zn144  1  0.57866476  0.82878197  0.02897773  1
  Zn  Zn145  1  0.55499884  0.85552255  0.57845784  1
  O  O146  1  0.12865145  0.11712195  0.11315219  1
  O  O147  1  0.11691989  0.09887964  0.61414805  1
  O  O148  1  0.12781448  0.62665293  0.10636142  1
  O  O149  1  0.10888986  0.62177350  0.60999415  1
  O  O150  1  0.62786842  0.12477981  0.11231751  1
  O  O151  1  0.62420525  0.11180803  0.61243428  1
  O  O152  1  0.62086288  0.61256047  0.14036526  1
  O  O153  1  0.66195011  0.60761396  0.63026274  1
  O  O154  1  0.39050545  0.37279920  0.36433875  1
  O  O155  1  0.36803509  0.38018253  0.87354916  1
  O  O156  1  0.38101201  0.89311319  0.38161572  1
  O  O157  1  0.38518852  0.88433779  0.88301462  1
  O  O158  1  0.88295568  0.38118815  0.37718730  1
  O  O159  1  0.88400868  0.37867404  0.88744519  1
  O  O160  1  0.87336310  0.87172760  0.38462258  1
  O  O161  1  0.88208382  0.88484437  0.88020501  1
  O  O162  1  0.26520203  0.01869478  0.37757711  1
  O  O163  1  0.25706557  0.00760034  0.86737231  1
  O  O164  1  0.24606196  0.51185875  0.37607238  1
  O  O165  1  0.26698824  0.51051384  0.87913055  1
  O  O166  1  0.75543851  -0.01255663  0.35474094  1
  O  O167  1  0.76023630  0.01535519  0.87595955  1
  O  O168  1  0.75234957  0.50068456  0.36534554  1
  O  O169  1  0.76423972  0.50482331  0.88617097  1
  O  O170  1  0.23792900  0.48091667  0.11713014  1
  O  O171  1  0.24395208  0.52164536  0.62738765  1
  O  O172  1  0.22819844  0.99673884  0.13668323  1
  O  O173  1  0.23921215  1.00434914  0.63402558  1
  O  O174  1  0.73597071  0.49267113  0.13413538  1
  O  O175  1  0.73761683  0.48261562  0.61310365  1
  O  O176  1  0.74003926  1.00437281  0.12817088  1
  O  O177  1  0.74579470  1.00394444  0.63116579  1
  O  O178  1  -0.00048531  0.39662632  0.26861087  1
  O  O179  1  0.00417432  0.36020342  0.75714470  1
  O  O180  1  -0.01478160  0.85572120  0.26316570  1
  O  O181  1  -0.01033875  0.87967997  0.76230194  1
  O  O182  1  0.50532016  0.36438020  0.25489559  1
  O  O183  1  0.49479766  0.35751044  0.74597507  1
  O  O184  1  0.51216891  0.86037726  0.24520999  1
  O  O185  1  0.49957038  0.88101172  0.76983056  1
  O  O186  1  0.49600503  0.13511187  0.25140132  1
  O  O187  1  0.49387501  0.12713169  0.74542777  1
  O  O188  1  0.48449709  0.63813736  0.26261133  1
  O  O189  1  0.41568228  0.65610172  0.66588296  1
  O  O190  1  0.97806033  0.12216406  0.26659061  1
  O  O191  1  1.00869003  0.13837504  0.75424644  1
  O  O192  1  0.99247390  0.62737933  0.25098838  1
  O  O193  1  0.99920351  0.61827422  0.72881831  1
  O  O194  1  0.36360014  0.24155506  -0.01078515  1
  O  O195  1  0.36606507  0.25332043  0.49867365  1
  O  O196  1  0.38083669  0.77133518  0.00253784  1
  O  O197  1  0.36475807  0.76032868  0.50573735  1
  O  O198  1  0.88232737  0.26849715  -0.00152888  1
  O  O199  1  0.85847978  0.25930284  0.49021807  1
  O  O200  1  0.86195912  0.76310969  -0.00533644  1
  O  O201  1  0.86524618  0.75554552  0.49708094  1
  O  O202  1  0.13895482  0.25470426  0.48594153  1
  O  O203  1  0.13015054  0.23706684  0.98906561  1
  O  O204  1  0.12903805  0.74503075  0.49201379  1
  O  O205  1  0.11102106  0.73615743  0.99145889  1
  O  O206  1  0.63535168  0.24855032  0.49337179  1
  O  O207  1  0.61337350  0.24045807  0.99041657  1
  O  O208  1  0.59811199  0.79319649  0.41087727  1
  O  O209  1  0.63671500  0.74128665  0.99555662  1
  O  O210  1  0.50412723  0.25268657  0.14013145  1
  O  O211  1  0.51444922  0.23293701  0.64248963  1
  O  O212  1  0.54947317  0.80185794  0.20351501  1
  O  O213  1  0.53423750  0.75356497  0.61382605  1
  O  O214  1  0.99480144  0.28221371  0.13698994  1
  O  O215  1  1.00852270  0.24317593  0.63368555  1
  O  O216  1  1.01162204  0.74778655  0.14268531  1
  O  O217  1  0.99214629  0.73857846  0.61858239  1
  O  O218  1  0.00344084  0.26663643  0.36708841  1
  O  O219  1  0.01107198  0.25575204  0.87309298  1
  O  O220  1  0.00070796  0.75305723  0.37115829  1
  O  O221  1  0.00174986  0.76169000  0.87389148  1
  O  O222  1  0.51149809  0.25899492  0.36587231  1
  O  O223  1  0.51723257  0.24142937  0.86081966  1
  O  O224  1  0.46621878  0.71003616  0.30247243  1
  O  O225  1  0.51696174  0.76452058  0.89108208  1
  O  O226  1  0.26188780  0.14000053  0.48827814  1
  O  O227  1  0.24342195  0.12576189  0.98782438  1
  O  O228  1  0.23600525  0.63344449  0.49323298  1
  O  O229  1  0.23302406  0.62801643  0.98454079  1
  O  O230  1  0.73656218  0.13959888  0.50232502  1
  O  O231  1  0.73770002  0.12704152  0.99665743  1
  O  O232  1  0.75722534  0.62440511  0.47928364  1
  O  O233  1  0.76060085  0.63152850  1.00829805  1
  O  O234  1  0.24436205  0.35655412  0.00270690  1
  O  O235  1  0.25376312  0.36866800  0.50269147  1
  O  O236  1  0.26632025  0.88326407  -0.00999581  1
  O  O237  1  0.25843012  0.85987283  0.48873986  1
  O  O238  1  0.76023345  0.37772690  0.00658704  1
  O  O239  1  0.75827660  0.36522368  0.49226625  1
  O  O240  1  0.76509646  0.88081752  -0.00412815  1
  O  O241  1  0.75255315  0.86881862  0.50641001  1
  O  O242  1  0.14609688  0.51969243  0.24615749  1
  O  O243  1  0.11708357  0.48053957  0.75133233  1
  O  O244  1  0.10834306  1.02238083  0.25081426  1
  O  O245  1  0.14148830  0.99705657  0.75939500  1
  O  O246  1  0.62702131  0.49165630  0.24582529  1
  O  O247  1  0.60740614  0.49171997  0.72940219  1
  O  O248  1  0.63689029  1.00423939  0.23556423  1
  O  O249  1  0.63681000  1.01421421  0.75317364  1
  O  O250  1  0.38919215  0.01055786  0.26436286  1
  O  O251  1  0.36689566  0.00784649  0.75743581  1
  O  O252  1  0.34986066  0.50756671  0.23569568  1
  O  O253  1  0.39312640  0.50606066  0.77594179  1
  O  O254  1  0.86615462  0.00384411  0.25177786  1
  O  O255  1  0.88883523  0.01278780  0.76110831  1
  O  O256  1  0.86132241  0.50207852  0.25909993  1
  O  O257  1  0.87937780  0.49851666  0.76962544  1
  O  O258  1  0.11036897  0.37061782  0.38012855  1
  O  O259  1  0.12012713  0.36573980  0.86607079  1
  O  O260  1  0.10066664  0.86210958  0.38237809  1
  O  O261  1  0.11003860  0.86244461  0.87617383  1
  O  O262  1  0.61922180  0.36902012  0.36240631  1
  O  O263  1  0.63004596  0.36370600  0.88927932  1
  O  O264  1  0.61381544  0.85818453  0.37922999  1
  O  O265  1  0.61080929  0.88602671  0.88888009  1
  O  O266  1  0.36944499  0.11005202  0.14272402  1
  O  O267  1  0.38892012  0.11128607  0.63315117  1
  O  O268  1  0.31498630  0.64401738  0.12442681  1
  O  O269  1  0.36707256  0.70781732  0.70000428  1
  O  O270  1  0.87875320  0.12325191  0.13497923  1
  O  O271  1  0.89497855  0.11588000  0.60880608  1
  O  O272  1  0.88350044  0.60721223  0.13781340  1
  O  O273  1  0.88111828  0.62025453  0.61720160  1
  O  O274  1  0.25404368  0.23219968  0.10265387  1
  O  O275  1  0.25033526  0.24427645  0.61311992  1
  O  O276  1  0.21463583  0.77821796  0.12729565  1
  O  O277  1  0.24131708  0.74044852  0.60895593  1
  O  O278  1  0.74386081  0.26455564  0.13143527  1
  O  O279  1  0.74374529  0.25761367  0.61272046  1
  O  O280  1  0.74407147  0.75172360  0.11129524  1
  O  O281  1  0.72927637  0.77004674  0.63038591  1
  O  O282  1  0.24889752  0.24811837  0.38538625  1
  O  O283  1  0.23971914  0.23670281  0.88225633  1
  O  O284  1  0.24302884  0.73549162  0.38761693  1
  O  O285  1  0.23315348  0.74242730  0.86952937  1
  O  O286  1  0.73491742  0.25436789  0.37561850  1
  O  O287  1  0.73870869  0.24081623  0.87713052  1
  O  O288  1  0.75015358  0.73683469  0.36075327  1
  O  O289  1  0.73435225  0.74764602  0.89003771  1
  O  O290  1  0.01070355  0.11240677  -0.01048373  1
  O  O291  1  0.01012329  0.12354558  0.45969121  1
  O  O292  1  0.00759203  0.61090332  0.00291291  1
  O  O293  1  -0.00127995  0.61520392  0.50580241  1
  O  O294  1  0.51116753  0.11641519  -0.00945419  1
  O  O295  1  0.51672349  0.13597710  0.51194934  1
  O  O296  1  0.48864199  0.60576864  0.01606164  1
  O  O297  1  0.50443890  0.62472430  0.48341777  1
  O  O298  1  0.49404991  0.36008435  0.48501344  1
  O  O299  1  0.49108462  0.39827772  1.02248929  1
  O  O300  1  0.48148036  0.86973705  0.49576851  1
  O  O301  1  0.48754830  0.89197297  0.99612068  1
  O  O302  1  0.98726399  0.37684715  0.49100632  1
  O  O303  1  1.00389401  0.38161714  0.99051611  1
  O  O304  1  0.98009272  0.86439332  0.48941779  1
  O  O305  1  0.98730079  0.88513831  0.98882845  1
  O  O306  1  0.50912286  0.48366542  0.38796657  1
  O  O307  1  0.49289473  0.49626993  0.89390631  1
  O  O308  1  0.49774117  1.00371861  0.37922610  1
  O  O309  1  0.49113831  0.99656190  0.88310854  1
  O  O310  1  0.99115435  0.49400206  0.38664567  1
  O  O311  1  0.99655590  0.48796143  0.88042806  1
  O  O312  1  0.97721846  0.97697619  0.36718004  1
  O  O313  1  0.99454343  0.98949631  0.88168538  1
  O  O314  1  0.00805369  0.00376638  0.11353009  1
  O  O315  1  0.01464463  -0.01177762  0.60151544  1
  O  O316  1  0.00710736  0.48785296  0.10622286  1
  O  O317  1  -0.00403118  0.49707324  0.61331012  1
  O  O318  1  0.51462738  0.00139591  0.11858178  1
  O  O319  1  0.52236902  0.00817159  0.63545983  1
  O  O320  1  0.50577618  0.50116289  0.13734145  1
  O  O321  1  0.51223905  0.52353300  0.61150037  1
  O  O322  1  0.24186165  0.39240977  0.27012817  1
  O  O323  1  0.23530778  0.37226404  0.75019754  1
  O  O324  1  0.23885252  0.87307616  0.29197844  1
  O  O325  1  0.25963952  0.88935713  0.75262946  1
  O  O326  1  0.74170455  0.38253276  0.24504240  1
  O  O327  1  0.76769258  0.37937637  0.75349595  1
  O  O328  1  0.75983724  0.88709795  0.23659516  1
  O  O329  1  0.76579997  0.87632811  0.73937242  1
  O  O330  1  0.27172666  0.13715499  0.26615071  1
  O  O331  1  0.25668443  0.12081306  0.75409208  1
  O  O332  1  0.25676215  0.62629630  0.27715464  1
  O  O333  1  0.24714064  0.61728176  0.76597783  1
  O  O334  1  0.76299618  0.10881728  0.24754042  1
  O  O335  1  0.75767347  0.13210956  0.76424415  1
  O  O336  1  0.75602793  0.61696876  0.25222288  1
  O  O337  1  0.80657595  0.66766857  0.74968874  1
  O  O338  1  0.37725472  0.11556491  0.37277776  1
  O  O339  1  0.36936491  0.11641708  0.86533760  1
  O  O340  1  0.36591956  0.62301392  0.39414645  1
  O  O341  1  0.35886635  0.64254895  0.88271356  1
  O  O342  1  0.86474524  0.10507517  0.37308142  1
  O  O343  1  0.86167249  0.12123498  0.88494952  1
  O  O344  1  0.86770915  0.61189029  0.36435466  1
  O  O345  1  0.88660560  0.61107480  0.88249838  1
  O  O346  1  0.15556268  0.34552455  0.14195533  1
  O  O347  1  0.11868232  0.37352035  0.63688982  1
  O  O348  1  0.11091058  0.90015486  0.14675851  1
  O  O349  1  0.13144007  0.88895718  0.61603640  1
  O  O350  1  0.62949796  0.37987408  0.13630909  1
  O  O351  1  0.61575612  0.38436378  0.62248743  1
  O  O352  1  0.62926480  0.89197482  0.11190178  1
  O  O353  1  0.64152556  0.90324403  0.62813660  1
  O  O354  1  0.12670010  0.23897678  0.26882811  1
  O  O355  1  0.11942241  0.25534560  0.75512615  1
  O  O356  1  0.10934342  0.73559313  0.26520890  1
  O  O357  1  0.11765138  0.74798080  0.75788599  1
  O  O358  1  0.61749542  0.25241557  0.25452300  1
  O  O359  1  0.62048004  0.26011489  0.76377233  1
  O  O360  1  0.60885462  0.76959767  0.24575769  1
  O  O361  1  0.62793844  0.74255191  0.77343642  1
  O  O362  1  0.39011748  0.23617334  0.25589124  1
  O  O363  1  0.38880479  0.23636115  0.75013721  1
  O  O364  1  0.39698694  0.73758270  0.26631986  1
  O  O365  1  0.39864313  0.75193189  0.75907954  1
  O  O366  1  0.86774843  0.23335460  0.25512042  1
  O  O367  1  0.89356147  0.24108065  0.75392348  1
  O  O368  1  0.88695057  0.73394357  0.25113848  1
  O  O369  1  0.85443405  0.72238663  0.76033685  1
  O  O370  1  0.40068285  0.50266203  0.50333800  1
  O  O371  1  0.37802825  0.49927459  0.99085460  1
  O  O372  1  0.37282639  0.99220928  0.49054041  1
  O  O373  1  0.37858003  0.99996213  0.99329748  1
  O  O374  1  0.87673189  0.48361395  0.48838315  1
  O  O375  1  0.89103985  0.48835536  0.98986416  1
  O  O376  1  0.85730395  0.98642363  0.48060188  1
  O  O377  1  0.88233968  0.99523651  0.99087079  1
  O  O378  1  0.11694090  0.00525951  -0.00430196  1
  O  O379  1  0.13977906  -0.01377409  0.48717541  1
  O  O380  1  0.11581536  0.50876248  -0.01629899  1
  O  O381  1  0.11139740  0.50555652  0.49942284  1
  O  O382  1  0.62056627  0.01397490  0.00939716  1
  O  O383  1  0.63247079  0.01438113  0.48925850  1
  O  O384  1  0.61271337  0.49937714  0.02025347  1
  O  O385  1  0.61094628  0.49519565  0.51009619  1
  O  O386  1  0.34204475  0.35807017  0.14918416  1
  O  O387  1  0.36510348  0.40243063  0.65042321  1
  O  O388  1  0.36449415  0.88916643  0.11590534  1
  O  O389  1  0.37648457  0.88957036  0.61177293  1
  O  O390  1  0.86256186  0.38834412  0.10979763  1
  O  O391  1  0.87758425  0.37272293  0.60721303  1
  O  O392  1  0.88140264  0.88262352  0.10976807  1
  O  O393  1  0.86134208  0.87987226  0.60938023  1
  O  O394  1  0.14879499  0.13120621  0.37437732  1
  O  O395  1  0.13242285  0.12852131  0.87924295  1
  O  O396  1  0.11530595  0.63243013  0.38929344  1
  O  O397  1  0.12232926  0.63645136  0.87740024  1
  O  O398  1  0.61715739  0.13450603  0.38677836  1
  O  O399  1  0.63892502  0.12922661  0.88519809  1
  O  O400  1  0.63966539  0.62403832  0.36652855  1
  O  O401  1  0.61453578  0.62449423  0.87752820  1
