# generated using pymatgen
data_V73Zn73O256
_symmetry_space_group_name_H-M   'P 1'
_cell_length_a   16.85939121
_cell_length_b   16.82979015
_cell_length_c   16.84566822
_cell_angle_alpha   90.08698116
_cell_angle_beta   89.95633093
_cell_angle_gamma   89.94942382
_symmetry_Int_Tables_number   1
_chemical_formula_structural   V73Zn73O256
_chemical_formula_sum   'V73 Zn73 O256'
_cell_volume   4779.78140786
_cell_formula_units_Z   1
loop_
 _symmetry_equiv_pos_site_id
 _symmetry_equiv_pos_as_xyz
  1  'x, y, z'
loop_
 _atom_site_type_symbol
 _atom_site_label
 _atom_site_symmetry_multiplicity
 _atom_site_fract_x
 _atom_site_fract_y
 _atom_site_fract_z
 _atom_site_occupancy
  V  V0  1  0.40207728  0.75432515  0.12593747  1
  V  V1  1  0.48296324  0.87694671  0.87825629  1
  V  V2  1  -0.00101057  0.76076031  0.25154891  1
  V  V3  1  0.62103672  0.74998601  0.36427012  1
  V  V4  1  0.37561348  0.25018153  0.61532443  1
  V  V5  1  0.62544478  0.62116791  0.00329795  1
  V  V6  1  0.62926098  0.11245737  0.49224117  1
  V  V7  1  0.87731177  0.37063114  0.00372017  1
  V  V8  1  0.49079982  0.75531646  0.74068196  1
  V  V9  1  0.00075089  0.51709436  0.01051168  1
  V  V10  1  0.25971895  0.61484202  0.87697401  1
  V  V11  1  0.75614633  0.00884268  0.25167171  1
  V  V12  1  0.50821268  0.25612909  0.75402973  1
  V  V13  1  0.25922861  0.75804461  0.01212408  1
  V  V14  1  0.48222150  0.25328513  0.24796948  1
  V  V15  1  0.48514337  0.00140874  -0.00097883  1
  V  V16  1  0.37298613  0.49974732  0.38719103  1
  V  V17  1  0.73269118  0.50493047  0.25003123  1
  V  V18  1  0.62841642  0.75773557  0.86771308  1
  V  V19  1  -0.00722340  0.12168131  0.12689026  1
  V  V20  1  0.87019520  0.38094051  0.49483952  1
  V  V21  1  0.87768074  0.87709430  0.00569090  1
  V  V22  1  0.26503366  0.10609900  0.36949150  1
  V  V23  1  0.86913067  0.00312926  0.86193357  1
  V  V24  1  0.63116313  0.01374945  0.11589513  1
  V  V25  1  0.37736014  0.61685720  0.74168209  1
  V  V26  1  0.37225017  0.12274685  0.74850086  1
  V  V27  1  0.26034917  0.25201466  0.01775273  1
  V  V28  1  0.86506200  0.50183601  0.87611094  1
  V  V29  1  0.50616784  0.38720468  0.87234051  1
  V  V30  1  0.76635352  0.13074044  0.36643235  1
  V  V31  1  0.00709301  0.38218203  0.37374644  1
  V  V32  1  -0.00577292  0.24520033  0.25928410  1
  V  V33  1  0.12872016  0.51678764  0.12586695  1
  V  V34  1  0.14989399  0.38340516  0.76301209  1
  V  V35  1  0.74194734  0.86894875  0.12927535  1
  V  V36  1  0.74207915  0.12652404  0.86544763  1
  V  V37  1  0.13228530  0.50028240  0.62852698  1
  V  V38  1  0.86455070  0.61386368  0.75452471  1
  V  V39  1  0.56009953  0.07078926  0.66982800  1
  V  V40  1  0.25319732  0.37313016  0.59975562  1
  V  V41  1  0.73452783  0.24308559  -0.00318306  1
  V  V42  1  0.75164795  0.74682702  -0.00476206  1
  V  V43  1  0.37507720  0.37900236  0.00803751  1
  V  V44  1  0.12881990  0.25280811  0.87756125  1
  V  V45  1  0.50084946  0.87784938  0.36792662  1
  V  V46  1  0.25440708  0.11691274  0.87803967  1
  V  V47  1  0.60873195  0.50102425  0.63816596  1
  V  V48  1  0.00140140  0.88119727  0.87986735  1
  V  V49  1  0.38645154  0.61696479  0.23344684  1
  V  V50  1  0.74675712  0.74173816  0.49660950  1
  V  V51  1  0.00342317  0.61667936  0.62004044  1
  V  V52  1  0.24936767  -0.00146971  0.73327006  1
  V  V53  1  0.75271818  0.25675913  0.50083768  1
  V  V54  1  0.73501505  0.37948074  0.12778389  1
  V  V55  1  0.49494712  0.37581063  0.38846486  1
  V  V56  1  0.48752145  -0.00053805  0.49410980  1
  V  V57  1  0.13024636  0.87726675  0.74141685  1
  V  V58  1  0.87952576  0.62615884  0.23829084  1
  V  V59  1  0.60378186  0.62165432  0.50548182  1
  V  V60  1  0.74488117  0.38752394  0.63872848  1
  V  V61  1  0.86780961  0.75043804  0.62108969  1
  V  V62  1  0.13003950  0.74298631  0.88498333  1
  V  V63  1  0.13064365  0.37267553  0.23771847  1
  V  V64  1  0.62354027  0.25457209  0.36492827  1
  V  V65  1  0.49877562  0.50659502  0.01269272  1
  V  V66  1  0.15152254  0.86975045  0.24487997  1
  V  V67  1  0.48903001  0.12988802  0.13031004  1
  V  V68  1  0.00095710  -0.01227164  0.49029616  1
  V  V69  1  0.73584558  0.89500353  0.63299113  1
  V  V70  1  0.12242399  0.12095165  0.01110167  1
  V  V71  1  0.00612064  0.37777396  0.87629395  1
  V  V72  1  0.00110860  0.74681377  0.74999318  1
  Zn  Zn73  1  -0.00150911  0.50865020  0.49134940  1
  Zn  Zn74  1  0.86295449  0.50905536  0.37197188  1
  Zn  Zn75  1  0.15714314  0.21322582  0.45050870  1
  Zn  Zn76  1  0.25091042  0.50463627  0.24855336  1
  Zn  Zn77  1  0.11639733  -0.01844680  0.11793271  1
  Zn  Zn78  1  0.87236184  0.24748726  0.12709530  1
  Zn  Zn79  1  0.92797394  0.21551762  0.69147223  1
  Zn  Zn80  1  0.15902743  0.69546979  0.42138510  1
  Zn  Zn81  1  0.35338138  0.85492217  0.50214500  1
  Zn  Zn82  1  0.18817503  0.19118532  0.19905728  1
  Zn  Zn83  1  0.18844271  0.19662605  0.69059865  1
  Zn  Zn84  1  0.19359235  0.68899806  0.20140284  1
  Zn  Zn85  1  0.18867564  0.68284044  0.69577597  1
  Zn  Zn86  1  0.68620911  0.19052874  0.18230021  1
  Zn  Zn87  1  0.69786536  0.19592801  0.68476780  1
  Zn  Zn88  1  0.68510687  0.68235693  0.18361564  1
  Zn  Zn89  1  0.68040737  0.68048845  0.68915780  1
  Zn  Zn90  1  0.30330917  0.31003120  0.32867844  1
  Zn  Zn91  1  0.32444961  0.30660162  0.82395676  1
  Zn  Zn92  1  0.33229180  0.80530905  0.31057000  1
  Zn  Zn93  1  0.31112445  0.81167463  0.81089399  1
  Zn  Zn94  1  0.81463719  0.31813117  0.31097313  1
  Zn  Zn95  1  0.81081599  0.31436251  0.81504308  1
  Zn  Zn96  1  0.81823509  0.81024548  0.31422603  1
  Zn  Zn97  1  0.81227462  0.81457783  0.80815610  1
  Zn  Zn98  1  0.17190988  0.48682048  0.42291276  1
  Zn  Zn99  1  0.18968513  0.44150593  0.95354578  1
  Zn  Zn100  1  0.18999537  0.91769180  0.42983330  1
  Zn  Zn101  1  0.19097753  0.93413972  0.93693257  1
  Zn  Zn102  1  0.67739256  0.44206093  0.43493758  1
  Zn  Zn103  1  0.68319517  0.43168876  0.93817864  1
  Zn  Zn104  1  0.71149868  0.92042211  0.43055392  1
  Zn  Zn105  1  0.68592024  0.93855219  0.93485124  1
  Zn  Zn106  1  0.31313777  0.06649013  0.06495581  1
  Zn  Zn107  1  0.30466266  0.07166276  0.55512732  1
  Zn  Zn108  1  0.30868240  0.56999197  0.05954453  1
  Zn  Zn109  1  0.31585118  0.56585840  0.56863129  1
  Zn  Zn110  1  0.81773302  0.06044310  0.05234958  1
  Zn  Zn111  1  0.82189655  0.07692828  0.56783688  1
  Zn  Zn112  1  0.80951875  0.56148530  0.06369490  1
  Zn  Zn113  1  0.80626602  0.56071446  0.56420355  1
  Zn  Zn114  1  0.44409696  0.43304957  0.19031342  1
  Zn  Zn115  1  0.43159155  0.43429083  0.68483383  1
  Zn  Zn116  1  0.44002713  0.93722277  0.18125198  1
  Zn  Zn117  1  0.42993469  0.92684866  0.68190594  1
  Zn  Zn118  1  0.93263741  0.44103297  0.18879462  1
  Zn  Zn119  1  0.94056007  0.41785236  0.68507197  1
  Zn  Zn120  1  0.93612421  0.93688596  0.18809091  1
  Zn  Zn121  1  0.93553443  0.93407573  0.68707887  1
  Zn  Zn122  1  0.08670986  0.05938157  0.29810018  1
  Zn  Zn123  1  0.06846971  0.06139499  0.81830290  1
  Zn  Zn124  1  0.05900480  0.57428720  0.31000805  1
  Zn  Zn125  1  0.06114905  0.55894750  0.81431941  1
  Zn  Zn126  1  0.56968903  0.05949907  0.30673105  1
  Zn  Zn127  1  0.55768131  0.06861064  0.83317305  1
  Zn  Zn128  1  0.56016581  0.56316581  0.31601384  1
  Zn  Zn129  1  0.55998312  0.57269355  0.81844579  1
  Zn  Zn130  1  0.43890605  0.17918994  0.43230011  1
  Zn  Zn131  1  0.43954696  0.18684758  0.93752897  1
  Zn  Zn132  1  0.43825865  0.68301936  0.42478031  1
  Zn  Zn133  1  0.43718121  0.68926085  0.93642481  1
  Zn  Zn134  1  0.96240678  0.20205692  0.52200229  1
  Zn  Zn135  1  0.92130296  0.20630827  0.89913579  1
  Zn  Zn136  1  0.93150599  0.68431624  0.42456562  1
  Zn  Zn137  1  0.93556972  0.69016753  0.93630591  1
  Zn  Zn138  1  0.06050632  0.30951343  0.06328711  1
  Zn  Zn139  1  0.06086909  0.32840798  0.57587686  1
  Zn  Zn140  1  0.06014803  0.79643375  0.07280627  1
  Zn  Zn141  1  0.06884083  0.80146380  0.56003098  1
  Zn  Zn142  1  0.55678756  0.31225860  0.06129702  1
  Zn  Zn143  1  0.56609116  0.30965565  0.56503127  1
  Zn  Zn144  1  0.56871297  0.81948842  0.05501779  1
  Zn  Zn145  1  0.57104611  0.82267534  0.56303199  1
  O  O146  1  0.12383240  0.12795147  0.11764344  1
  O  O147  1  0.08964724  0.13300460  0.66789622  1
  O  O148  1  0.12206620  0.61492514  0.13733140  1
  O  O149  1  0.11020426  0.61693500  0.63713140  1
  O  O150  1  0.61863393  0.11765824  0.11987994  1
  O  O151  1  0.62939954  0.12589167  0.61049935  1
  O  O152  1  0.62025110  0.63423647  0.10260406  1
  O  O153  1  0.62016173  0.61303378  0.61760725  1
  O  O154  1  0.38713432  0.38082402  0.36981738  1
  O  O155  1  0.39443770  0.36496456  0.89367470  1
  O  O156  1  0.39619535  0.86703669  0.38890616  1
  O  O157  1  0.38367396  0.87166115  0.88084728  1
  O  O158  1  0.88181566  0.38256901  0.37976470  1
  O  O159  1  0.88593920  0.38517495  0.88431241  1
  O  O160  1  0.81652574  0.89019460  0.38937134  1
  O  O161  1  0.88163999  0.88242065  0.87771387  1
  O  O162  1  0.25221965  0.00491084  0.38459175  1
  O  O163  1  0.24553149  0.01268279  0.87045368  1
  O  O164  1  0.27092360  0.48457346  0.36721044  1
  O  O165  1  0.24504531  0.51616148  0.88554263  1
  O  O166  1  0.74151008  0.01880508  0.35876782  1
  O  O167  1  0.75934099  0.00863139  0.87544220  1
  O  O168  1  0.74540008  0.48657220  0.35359465  1
  O  O169  1  0.76587070  0.49186024  0.88345289  1
  O  O170  1  0.23227252  0.50288594  0.11651777  1
  O  O171  1  0.24606732  0.48543603  0.61759870  1
  O  O172  1  0.28198740  0.99399875  0.15481781  1
  O  O173  1  0.24277190  1.00972221  0.63560995  1
  O  O174  1  0.74635960  0.48588636  0.12676538  1
  O  O175  1  0.73358342  0.49393166  0.62626938  1
  O  O176  1  0.74307883  0.99924312  0.12330751  1
  O  O177  1  0.76679650  0.99051312  0.61269335  1
  O  O178  1  0.00304384  0.37099688  0.25639742  1
  O  O179  1  0.01765673  0.38922329  0.77505550  1
  O  O180  1  -0.01341403  0.86284343  0.25682702  1
  O  O181  1  0.00845312  0.86707368  0.75782193  1
  O  O182  1  0.50304315  0.35593021  0.25229625  1
  O  O183  1  0.49146173  0.36562598  0.76279942  1
  O  O184  1  0.49814158  0.89193665  0.26833742  1
  O  O185  1  0.49356361  0.86949557  0.76645505  1
  O  O186  1  0.50368049  0.13126226  0.23835957  1
  O  O187  1  0.49517653  0.12697077  0.74090277  1
  O  O188  1  0.48811802  0.61434280  0.24398962  1
  O  O189  1  0.48669689  0.64423736  0.76126093  1
  O  O190  1  1.01131016  0.13644675  0.24047307  1
  O  O191  1  1.03489798  0.13226379  0.72623150  1
  O  O192  1  0.98256502  0.61720283  0.23967021  1
  O  O193  1  0.99549421  0.63340370  0.74533808  1
  O  O194  1  0.36608739  0.25358233  0.00051827  1
  O  O195  1  0.38399797  0.23861393  0.51709302  1
  O  O196  1  0.36853164  0.74529503  0.01410176  1
  O  O197  1  0.33721658  0.73533781  0.46063469  1
  O  O198  1  0.87203804  0.26282823  -0.00554953  1
  O  O199  1  0.86400711  0.26676386  0.49357076  1
  O  O200  1  0.86114902  0.76204866  -0.01365065  1
  O  O201  1  0.86353775  0.73543166  0.51214505  1
  O  O202  1  0.07323053  0.23361225  0.51796717  1
  O  O203  1  0.14213373  0.24380690  0.99982340  1
  O  O204  1  0.13460957  0.79099392  0.47283456  1
  O  O205  1  0.12818977  0.74871262  0.98809865  1
  O  O206  1  0.63351249  0.24200182  0.48996313  1
  O  O207  1  0.63551407  0.24986493  1.00125215  1
  O  O208  1  0.63165041  0.73856657  0.50629255  1
  O  O209  1  0.63386585  0.74617410  0.99005863  1
  O  O210  1  0.50507465  0.23880517  0.13448024  1
  O  O211  1  0.48425004  0.26182609  0.63743516  1
  O  O212  1  0.50146564  0.75001256  0.11541041  1
  O  O213  1  0.50981495  0.76233329  0.64325855  1
  O  O214  1  0.99771062  0.24013621  0.13296518  1
  O  O215  1  0.97421110  0.31166117  0.64621289  1
  O  O216  1  0.99695784  0.74319525  0.14828521  1
  O  O217  1  0.99505216  0.73938209  0.63050258  1
  O  O218  1  -0.00068050  0.26513296  0.36111848  1
  O  O219  1  0.02212918  0.26359304  0.89532768  1
  O  O220  1  0.01059218  0.72571120  0.35481326  1
  O  O221  1  0.01003561  0.75499555  0.86840088  1
  O  O222  1  0.50233590  0.25320315  0.36446589  1
  O  O223  1  0.50083451  0.24463696  0.85820005  1
  O  O224  1  0.51106917  0.76332294  0.37880445  1
  O  O225  1  0.50557280  0.76511930  0.87692168  1
  O  O226  1  0.24106186  0.12800356  0.48350921  1
  O  O227  1  0.24871380  0.13396549  0.99836798  1
  O  O228  1  0.23205943  0.65305755  0.53958760  1
  O  O229  1  0.25365344  0.64090362  0.98325639  1
  O  O230  1  0.74762719  0.13514001  0.48808429  1
  O  O231  1  0.75551923  0.13923621  0.99578160  1
  O  O232  1  0.73833816  0.63658985  0.50791297  1
  O  O233  1  0.73888387  0.63354058  0.99976293  1
  O  O234  1  0.26429725  0.36417356  -0.00079846  1
  O  O235  1  0.24120922  0.36843328  0.50395487  1
  O  O236  1  0.24907438  0.85807448  -0.00298767  1
  O  O237  1  0.24431434  0.88071221  0.51705900  1
  O  O238  1  0.75479470  0.36535940  0.00644332  1
  O  O239  1  0.75321193  0.37084984  0.49121474  1
  O  O240  1  0.75718803  0.86851320  0.00506612  1
  O  O241  1  0.74292696  0.84949671  0.52520384  1
  O  O242  1  0.12343849  0.49109660  0.23725955  1
  O  O243  1  0.12657217  0.49465286  0.74158566  1
  O  O244  1  0.13160362  0.98106623  0.23293157  1
  O  O245  1  0.13445577  0.98676489  0.75542208  1
  O  O246  1  0.63223471  0.50384181  0.24706323  1
  O  O247  1  0.61452448  0.50982604  0.73852803  1
  O  O248  1  0.63973489  1.00465250  0.23038533  1
  O  O249  1  0.61170055  1.01987810  0.73671166  1
  O  O250  1  0.33320505  -0.00541225  0.21210208  1
  O  O251  1  0.36039834  0.00688509  0.74071185  1
  O  O252  1  0.37202981  0.50425729  0.24029727  1
  O  O253  1  0.38554769  0.51654550  0.74995652  1
  O  O254  1  0.85542041  0.00209221  0.23975577  1
  O  O255  1  0.88198105  -0.00016836  0.76191685  1
  O  O256  1  0.86141312  0.50950495  0.24608961  1
  O  O257  1  0.88397725  0.50756494  0.75838614  1
  O  O258  1  0.11091800  0.38846548  0.36602226  1
  O  O259  1  0.12715741  0.37354732  0.88090074  1
  O  O260  1  0.12630633  0.88426002  0.34511511  1
  O  O261  1  0.11797655  0.86530894  0.87083796  1
  O  O262  1  0.60932622  0.36443125  0.37817752  1
  O  O263  1  0.60616952  0.37017300  0.88036123  1
  O  O264  1  0.61891269  0.86045630  0.38277272  1
  O  O265  1  0.61625965  0.86382875  0.87866944  1
  O  O266  1  0.38983366  0.12573744  0.12821350  1
  O  O267  1  0.36302830  0.13894098  0.63664084  1
  O  O268  1  0.37982883  0.63116930  0.12628960  1
  O  O269  1  0.37307590  0.63004816  0.64140500  1
  O  O270  1  0.88975348  0.12661843  0.11571101  1
  O  O271  1  0.89980996  0.14848769  0.60429078  1
  O  O272  1  0.86076665  0.63053412  0.13680538  1
  O  O273  1  0.88547400  0.62628810  0.63807509  1
  O  O274  1  0.25174439  0.24502018  0.11625446  1
  O  O275  1  0.25840609  0.26232927  0.62773797  1
  O  O276  1  0.24606724  0.74334135  0.11040461  1
  O  O277  1  0.23529174  0.71460840  0.58911352  1
  O  O278  1  0.75361309  0.25722690  0.11369809  1
  O  O279  1  0.74212036  0.26976356  0.61000803  1
  O  O280  1  0.74115723  0.76358386  0.11513123  1
  O  O281  1  0.76195458  0.74320852  0.62765846  1
  O  O282  1  0.24403124  0.22984204  0.37938612  1
  O  O283  1  0.24605294  0.23785804  0.88636650  1
  O  O284  1  0.28337201  0.73607876  0.39731794  1
  O  O285  1  0.23932783  0.74909151  0.88054323  1
  O  O286  1  0.74382380  0.24499459  0.37543405  1
  O  O287  1  0.75145837  0.24103706  0.88775771  1
  O  O288  1  0.73609577  0.75147362  0.39136038  1
  O  O289  1  0.73724506  0.75811548  0.87871569  1
  O  O290  1  0.01876374  0.12945988  0.01232678  1
  O  O291  1  0.00642621  0.09219549  0.48622654  1
  O  O292  1  -0.00674105  0.61675504  0.00228144  1
  O  O293  1  -0.00551660  0.62711937  0.51718403  1
  O  O294  1  0.49551872  0.11290488  0.00921373  1
  O  O295  1  0.51737350  0.11078710  0.49496652  1
  O  O296  1  0.50485859  0.61258719  -0.00538398  1
  O  O297  1  0.50424641  0.63568957  0.50715032  1
  O  O298  1  0.49631998  0.36376652  0.48726809  1
  O  O299  1  0.49686101  0.38564408  0.99345229  1
  O  O300  1  0.50793122  0.89444658  0.49658941  1
  O  O301  1  0.50244697  0.88960089  0.99111191  1
  O  O302  1  0.98918189  0.38017731  0.48484875  1
  O  O303  1  0.99365527  0.38330848  0.99675888  1
  O  O304  1  0.99108796  0.88299031  0.49565697  1
  O  O305  1  0.98575577  0.86096389  0.99380444  1
  O  O306  1  0.49387903  0.48163020  0.37145074  1
  O  O307  1  0.50090880  0.49055892  0.88076389  1
  O  O308  1  0.50959117  0.99317788  0.38601091  1
  O  O309  1  0.49643163  0.99283673  0.88823216  1
  O  O310  1  0.99350012  0.49071921  0.37091461  1
  O  O311  1  0.99737375  0.49758402  0.89230237  1
  O  O312  1  1.00384735  0.98229073  0.38625139  1
  O  O313  1  0.99407808  0.98878954  0.87301385  1
  O  O314  1  0.00045756  0.01713423  0.13194604  1
  O  O315  1  -0.00653892  -0.01307326  0.59659925  1
  O  O316  1  0.00418781  0.49876288  0.11467632  1
  O  O317  1  0.00328017  0.50951162  0.63018939  1
  O  O318  1  0.50939480  0.00842832  0.11902499  1
  O  O319  1  0.50271627  0.00324483  0.61531401  1
  O  O320  1  0.50700812  0.49453714  0.11030733  1
  O  O321  1  0.51064067  0.48590386  0.62013830  1
  O  O322  1  0.23191001  0.37170059  0.25432221  1
  O  O323  1  0.25061424  0.37926496  0.76724615  1
  O  O324  1  0.25092709  0.85454469  0.24846588  1
  O  O325  1  0.24198607  0.88580869  0.75180674  1
  O  O326  1  0.75301574  0.37909406  0.23267902  1
  O  O327  1  0.75122110  0.37241465  0.73785176  1
  O  O328  1  0.75472436  0.88451689  0.23157754  1
  O  O329  1  0.75706119  0.87516001  0.73179366  1
  O  O330  1  0.23682822  0.12043536  0.26796585  1
  O  O331  1  0.25123554  0.11561983  0.75653879  1
  O  O332  1  0.27136709  0.62192211  0.24880798  1
  O  O333  1  0.26438302  0.63261273  0.76312487  1
  O  O334  1  0.75137767  0.12259492  0.25472270  1
  O  O335  1  0.75211423  0.13671717  0.76512251  1
  O  O336  1  0.74978047  0.60961473  0.24290914  1
  O  O337  1  0.76624229  0.62427481  0.74725261  1
  O  O338  1  0.36687080  0.11929692  0.37203942  1
  O  O339  1  0.36709242  0.12946503  0.86098255  1
  O  O340  1  0.38753589  0.60212100  0.35936552  1
  O  O341  1  0.36455640  0.62960601  0.86925942  1
  O  O342  1  0.86188082  0.13279252  0.37380103  1
  O  O343  1  0.87054531  0.10529403  0.88551122  1
  O  O344  1  0.86605915  0.62255731  0.35549376  1
  O  O345  1  0.88025181  0.61819098  0.86247221  1
  O  O346  1  0.11999297  0.38239399  0.13380463  1
  O  O347  1  0.14492892  0.37874590  0.64183447  1
  O  O348  1  0.12227925  0.86887573  0.13376765  1
  O  O349  1  0.11873020  0.86665904  0.64364427  1
  O  O350  1  0.63613598  0.37039073  0.12086469  1
  O  O351  1  0.63462025  0.38841527  0.61701838  1
  O  O352  1  0.63845994  0.88781379  0.11944266  1
  O  O353  1  0.63484529  0.89190785  0.62912972  1
  O  O354  1  0.11043041  0.26639959  0.24500951  1
  O  O355  1  0.13564298  0.26583759  0.77011740  1
  O  O356  1  0.11667388  0.76153005  0.24885000  1
  O  O357  1  0.12163117  0.75964551  0.75886330  1
  O  O358  1  0.61996549  0.24244520  0.26182883  1
  O  O359  1  0.60605441  0.24520674  0.73603443  1
  O  O360  1  0.63177913  0.74377426  0.26572015  1
  O  O361  1  0.61361378  0.74295639  0.76346601  1
  O  O362  1  0.38391181  0.25218382  0.25358876  1
  O  O363  1  0.38327514  0.24010884  0.74435567  1
  O  O364  1  0.38379219  0.73371311  0.23461181  1
  O  O365  1  0.38536719  0.74948981  0.75018660  1
  O  O366  1  0.88954821  0.25410923  0.24664966  1
  O  O367  1  0.89439536  0.24320100  0.79248994  1
  O  O368  1  0.88076081  0.73899372  0.25591343  1
  O  O369  1  0.88380961  0.73785361  0.74475836  1
  O  O370  1  0.37127675  0.50968492  0.48696638  1
  O  O371  1  0.38535343  0.49051219  1.00446406  1
  O  O372  1  0.38856161  1.00593455  0.50361858  1
  O  O373  1  0.38586324  0.99578378  1.00937500  1
  O  O374  1  0.87400299  0.49640102  0.49366837  1
  O  O375  1  0.88382622  0.49553044  0.99691903  1
  O  O376  1  0.89565401  1.00091318  0.48796540  1
  O  O377  1  0.87292681  0.98133049  0.98717968  1
  O  O378  1  0.14039021  0.01504348  0.00792615  1
  O  O379  1  0.10487705  -0.01543569  0.49888532  1
  O  O380  1  0.11041960  0.50153429  0.01263266  1
  O  O381  1  0.11417981  0.48870958  0.52354588  1
  O  O382  1  0.61914005  -0.00105878  0.01151335  1
  O  O383  1  0.64085404  0.01296675  0.48916805  1
  O  O384  1  0.61657698  0.51336199  -0.00815616  1
  O  O385  1  0.62121817  0.51804697  0.50011166  1
  O  O386  1  0.38932414  0.36865214  0.10669616  1
  O  O387  1  0.36095086  0.36591379  0.62361784  1
  O  O388  1  0.38271730  0.85359604  0.13081746  1
  O  O389  1  0.38023097  0.85915421  0.61016459  1
  O  O390  1  0.86872517  0.37386857  0.11312033  1
  O  O391  1  0.84952591  0.39397820  0.60855889  1
  O  O392  1  0.86426322  0.88065777  0.11001703  1
  O  O393  1  0.87795871  0.85157050  0.62880165  1
  O  O394  1  0.13354833  0.11724138  0.38004353  1
  O  O395  1  0.13149623  0.13206819  0.88929304  1
  O  O396  1  0.13925728  0.59302276  0.38528088  1
  O  O397  1  0.13466196  0.63884460  0.86434358  1
  O  O398  1  0.62993729  0.13380495  0.38211061  1
  O  O399  1  0.64321670  0.12033338  0.88137715  1
  O  O400  1  0.61188167  0.64016962  0.39038764  1
  O  O401  1  0.61649547  0.64582561  0.88833201  1
