# generated using pymatgen
data_V73Zn73O256
_symmetry_space_group_name_H-M   'P 1'
_cell_length_a   16.85846225
_cell_length_b   16.84413650
_cell_length_c   16.89253810
_cell_angle_alpha   89.98752589
_cell_angle_beta   90.04720863
_cell_angle_gamma   90.05880162
_symmetry_Int_Tables_number   1
_chemical_formula_structural   V73Zn73O256
_chemical_formula_sum   'V73 Zn73 O256'
_cell_volume   4796.90625085
_cell_formula_units_Z   1
loop_
 _symmetry_equiv_pos_site_id
 _symmetry_equiv_pos_as_xyz
  1  'x, y, z'
loop_
 _atom_site_type_symbol
 _atom_site_label
 _atom_site_symmetry_multiplicity
 _atom_site_fract_x
 _atom_site_fract_y
 _atom_site_fract_z
 _atom_site_occupancy
  V  V0  1  -0.00329188  0.25417610  0.75654803  1
  V  V1  1  0.25210791  0.50815800  0.74305381  1
  V  V2  1  0.63157991  0.25830042  0.87749813  1
  V  V3  1  0.74563342  0.37253314  0.63563931  1
  V  V4  1  0.74425221  0.88295444  0.13699276  1
  V  V5  1  0.49492881  0.88137933  0.88966720  1
  V  V6  1  0.62467928  -0.00212946  0.13863826  1
  V  V7  1  0.62144001  0.62873611  0.49249687  1
  V  V8  1  0.88392635  0.49102186  0.88546073  1
  V  V9  1  0.88366155  0.89214916  -0.00286098  1
  V  V10  1  0.11908011  0.00201204  0.12192184  1
  V  V11  1  0.88395807  0.75099104  0.12375974  1
  V  V12  1  -0.01280672  0.62871331  0.62110887  1
  V  V13  1  0.12418952  0.38653490  0.73662388  1
  V  V14  1  0.75384147  0.74912679  0.49946238  1
  V  V15  1  0.25192514  0.62940612  0.87201582  1
  V  V16  1  0.11669873  0.25158631  0.36242755  1
  V  V17  1  0.25189054  0.00185976  0.76214537  1
  V  V18  1  0.12226060  0.73663558  0.38000947  1
  V  V19  1  0.10925165  0.49884626  0.12710984  1
  V  V20  1  0.74587941  0.01625956  0.75900070  1
  V  V21  1  0.50111155  0.25716691  0.75549878  1
  V  V22  1  0.49507795  0.12220682  0.61331771  1
  V  V23  1  0.50907833  0.87882758  0.37257547  1
  V  V24  1  0.49811469  0.62937505  0.63019587  1
  V  V25  1  0.25743896  0.00019871  0.25487097  1
  V  V26  1  0.24633041  0.75502752  0.00250928  1
  V  V27  1  0.50233683  0.25930529  0.25284214  1
  V  V28  1  0.13836628  0.26532885  0.87288353  1
  V  V29  1  0.25712635  0.26159162  0.51324889  1
  V  V30  1  0.74837821  0.87021871  0.63555262  1
  V  V31  1  0.51578638  0.74107567  0.25428240  1
  V  V32  1  0.00272633  0.14539115  0.13420033  1
  V  V33  1  0.74063731  0.75136156  0.00889962  1
  V  V34  1  0.37958914  0.11874411  0.76459476  1
  V  V35  1  0.37209486  0.75141360  0.62568853  1
  V  V36  1  -0.00383008  -0.00230841  0.48040244  1
  V  V37  1  0.62514017  0.75359305  0.86998233  1
  V  V38  1  0.36703904  0.61734404  0.26934098  1
  V  V39  1  -0.00165395  0.74915258  0.25290697  1
  V  V40  1  0.24120257  0.88563007  0.61644934  1
  V  V41  1  0.76416426  0.60991339  0.37854742  1
  V  V42  1  0.62215321  0.00313857  0.61354946  1
  V  V43  1  0.87287100  0.11888958  0.26767152  1
  V  V44  1  0.26239438  0.37965775  0.12714749  1
  V  V45  1  0.38106337  0.12536884  0.25916966  1
  V  V46  1  0.62799185  0.11599756  -0.00769982  1
  V  V47  1  0.12175205  0.87579021  0.25931416  1
  V  V48  1  0.62609166  0.26289281  0.37437844  1
  V  V49  1  0.13576126  0.11869794  -0.01266669  1
  V  V50  1  0.75451556  0.50483505  0.75313286  1
  V  V51  1  0.87622791  0.25034098  0.62686991  1
  V  V52  1  0.25340169  0.12438761  0.37985278  1
  V  V53  1  0.26334566  0.26137732  -0.00245533  1
  V  V54  1  0.12283893  0.12356921  0.50439357  1
  V  V55  1  0.62466504  0.49741278  0.63363797  1
  V  V56  1  -0.00118548  0.11663451  0.63238236  1
  V  V57  1  0.37783134  0.73374040  0.12527201  1
  V  V58  1  0.74260751  0.10973526  0.38045040  1
  V  V59  1  0.74532141  0.24567923  0.50140498  1
  V  V60  1  0.10906806  0.62064879  0.00145869  1
  V  V61  1  0.49398492  0.11968176  0.12254858  1
  V  V62  1  0.26024178  0.87707148  0.12465594  1
  V  V63  1  0.48878472  0.48038318  0.49839201  1
  V  V64  1  -0.00737067  0.37699476  0.35750185  1
  V  V65  1  0.24787895  0.73782739  0.49418031  1
  V  V66  1  0.87419255  0.87692546  0.48902805  1
  V  V67  1  0.38281635  0.48994773  0.87959251  1
  V  V68  1  -0.01948221  0.75106677  0.74980585  1
  V  V69  1  0.75384461  0.62883814  0.87421226  1
  V  V70  1  0.11674293  0.87678624  0.75755202  1
  V  V71  1  0.76331917  0.33240027  0.11532134  1
  V  V72  1  0.50326032  0.76344806  0.74483456  1
  Zn  Zn73  1  0.12492387  0.51716882  0.60391418  1
  Zn  Zn74  1  0.38131291  0.89130852  0.48580276  1
  Zn  Zn75  1  0.65940376  0.41677096  0.23714655  1
  Zn  Zn76  1  -0.00344010  0.50262268  0.49081769  1
  Zn  Zn77  1  0.24711065  0.49648666  0.25122578  1
  Zn  Zn78  1  0.87440241  0.61774956  0.24942370  1
  Zn  Zn79  1  0.87581124  0.01460704  0.86665604  1
  Zn  Zn80  1  0.11382080  0.75788058  0.87971078  1
  Zn  Zn81  1  0.87466638  0.38015747  0.49075109  1
  Zn  Zn82  1  0.19743149  0.19052794  0.18305003  1
  Zn  Zn83  1  0.18826703  0.18412191  0.68979739  1
  Zn  Zn84  1  0.18678568  0.68124158  0.18924481  1
  Zn  Zn85  1  0.17653720  0.69375887  0.68246199  1
  Zn  Zn86  1  0.68886386  0.17822503  0.19348989  1
  Zn  Zn87  1  0.67999276  0.18420825  0.69018399  1
  Zn  Zn88  1  0.66295113  0.61263833  0.21315709  1
  Zn  Zn89  1  0.68700890  0.68743347  0.68741227  1
  Zn  Zn90  1  0.30641410  0.31052666  0.31310542  1
  Zn  Zn91  1  0.33083874  0.32998621  0.76857542  1
  Zn  Zn92  1  0.31445824  0.80983268  0.31121278  1
  Zn  Zn93  1  0.30820872  0.81214152  0.80183323  1
  Zn  Zn94  1  0.81858082  0.29961260  0.30072824  1
  Zn  Zn95  1  0.81038553  0.30668937  0.82062685  1
  Zn  Zn96  1  0.80447977  0.80746765  0.31409343  1
  Zn  Zn97  1  0.81171673  0.82523651  0.82176307  1
  Zn  Zn98  1  0.17420973  0.43093856  0.44062730  1
  Zn  Zn99  1  0.18925472  0.44345053  0.93852405  1
  Zn  Zn100  1  0.18730704  0.94022172  0.44104313  1
  Zn  Zn101  1  0.32163590  0.93432186  0.94062051  1
  Zn  Zn102  1  0.68540497  0.43620537  0.44804695  1
  Zn  Zn103  1  0.70189180  0.42643142  0.93842973  1
  Zn  Zn104  1  0.67957021  0.92852719  0.43814960  1
  Zn  Zn105  1  0.68311001  0.93903996  0.94460141  1
  Zn  Zn106  1  0.31095299  0.06991463  0.06627658  1
  Zn  Zn107  1  0.31783858  0.06567540  0.56250380  1
  Zn  Zn108  1  0.30774208  0.55951577  0.05418100  1
  Zn  Zn109  1  0.31328960  0.56261841  0.55966950  1
  Zn  Zn110  1  0.83584369  0.10567475  0.02096798  1
  Zn  Zn111  1  0.81410260  0.05920500  0.56727577  1
  Zn  Zn112  1  0.81961198  0.56575936  0.05965949  1
  Zn  Zn113  1  0.81882895  0.56050571  0.56517109  1
  Zn  Zn114  1  0.44059160  0.43859657  0.18243996  1
  Zn  Zn115  1  0.43392712  0.44022451  0.67836299  1
  Zn  Zn116  1  0.44244303  0.93238839  0.19776235  1
  Zn  Zn117  1  0.43328480  0.93853524  0.68098817  1
  Zn  Zn118  1  0.93037997  0.42278203  0.17457618  1
  Zn  Zn119  1  0.93631876  0.44188844  0.68867030  1
  Zn  Zn120  1  0.93407343  0.93928072  0.18774038  1
  Zn  Zn121  1  0.92624216  0.93393733  0.68813386  1
  Zn  Zn122  1  0.06682556  0.06602892  0.30812799  1
  Zn  Zn123  1  0.07080663  0.05313767  0.80847582  1
  Zn  Zn124  1  0.05857008  0.56001846  0.30816520  1
  Zn  Zn125  1  0.05792177  0.57315406  0.81085235  1
  Zn  Zn126  1  0.56599003  0.06352187  0.32179390  1
  Zn  Zn127  1  0.56510171  0.05306152  0.80586128  1
  Zn  Zn128  1  0.53378497  0.54996456  0.31036685  1
  Zn  Zn129  1  0.56549978  0.57022826  0.81613144  1
  Zn  Zn130  1  0.43715811  0.19641345  0.43824082  1
  Zn  Zn131  1  0.44263566  0.18566785  0.93433290  1
  Zn  Zn132  1  0.43774613  0.69771200  0.43621309  1
  Zn  Zn133  1  0.41096031  0.72512981  0.91590945  1
  Zn  Zn134  1  0.93442363  0.19122229  0.44108665  1
  Zn  Zn135  1  0.97240349  0.14436672  0.91898645  1
  Zn  Zn136  1  0.93812533  0.69389444  0.43966191  1
  Zn  Zn137  1  0.93178079  0.69592577  0.93214683  1
  Zn  Zn138  1  0.08064710  0.30861624  0.06670264  1
  Zn  Zn139  1  0.06200315  0.31370842  0.55423431  1
  Zn  Zn140  1  0.06536410  0.81966283  0.06241379  1
  Zn  Zn141  1  0.05805507  0.81066100  0.56502641  1
  Zn  Zn142  1  0.57911698  0.30509695  0.07272716  1
  Zn  Zn143  1  0.56185722  0.30450643  0.56993292  1
  Zn  Zn144  1  0.55891337  0.81329085  0.06777409  1
  Zn  Zn145  1  0.56677132  0.81667203  0.55675810  1
  O  O146  1  0.12284440  0.11149858  0.13661421  1
  O  O147  1  0.11025685  0.13211399  0.61398440  1
  O  O148  1  0.12866244  0.61670611  0.10996997  1
  O  O149  1  0.10388589  0.62744230  0.63173570  1
  O  O150  1  0.61449568  0.11367416  0.12168769  1
  O  O151  1  0.61439923  0.11195685  0.62612399  1
  O  O152  1  0.63523303  0.59280291  0.08763239  1
  O  O153  1  0.61934497  0.61722488  0.61784029  1
  O  O154  1  0.33039488  0.41237658  0.37394402  1
  O  O155  1  0.36838838  0.39109091  0.86203427  1
  O  O156  1  0.39426255  0.85772320  0.37211546  1
  O  O157  1  0.38487258  0.85465602  0.87857963  1
  O  O158  1  0.88933577  0.35417252  0.37312385  1
  O  O159  1  0.86673085  0.39042845  0.87209169  1
  O  O160  1  0.86594048  0.87686087  0.38935319  1
  O  O161  1  0.87088186  0.89086146  0.89284032  1
  O  O162  1  0.23676114  0.01259689  0.36280400  1
  O  O163  1  0.25360131  -0.01122676  0.86017091  1
  O  O164  1  0.26923125  0.46397711  0.36918230  1
  O  O165  1  0.25304876  0.51519147  0.86982364  1
  O  O166  1  0.74455448  0.01105213  0.38952619  1
  O  O167  1  0.74118693  -0.00477522  0.86149065  1
  O  O168  1  0.74963422  0.51042892  0.38582125  1
  O  O169  1  0.74826298  0.50954308  0.87115721  1
  O  O170  1  0.24617303  0.48972515  0.12167541  1
  O  O171  1  0.24139329  0.51948174  0.64065599  1
  O  O172  1  0.24503300  0.99573964  0.13827450  1
  O  O173  1  0.25131920  0.98724291  0.62703596  1
  O  O174  1  0.78423526  0.51218126  0.15801296  1
  O  O175  1  0.74417883  0.49390339  0.63373964  1
  O  O176  1  0.73607595  0.98768548  0.12525242  1
  O  O177  1  0.74073995  0.99518317  0.63183634  1
  O  O178  1  -0.00630459  0.37133988  0.25719582  1
  O  O179  1  0.01151623  0.36241211  0.74877435  1
  O  O180  1  0.01187675  0.86628694  0.24221393  1
  O  O181  1  0.01083959  0.87026172  0.73564663  1
  O  O182  1  0.50020435  0.35904159  0.24622710  1
  O  O183  1  0.49779252  0.35523391  0.73804887  1
  O  O184  1  0.50178894  0.85142329  0.25461796  1
  O  O185  1  0.49422131  0.86592593  0.75348795  1
  O  O186  1  0.49276710  0.12794957  0.25273637  1
  O  O187  1  0.48795581  0.11875978  0.74604599  1
  O  O188  1  0.47957906  0.63495603  0.25016598  1
  O  O189  1  0.50614166  0.63926423  0.73431676  1
  O  O190  1  0.99180185  0.11951541  0.24016836  1
  O  O191  1  1.01630077  0.14068504  0.73574826  1
  O  O192  1  0.99167704  0.64252226  0.25547768  1
  O  O193  1  0.99539422  0.64523763  0.74563732  1
  O  O194  1  0.36085081  0.24433636  -0.00756302  1
  O  O195  1  0.35678788  0.25454082  0.49172466  1
  O  O196  1  0.36116934  0.74527216  0.01602459  1
  O  O197  1  0.35845296  0.75362975  0.50430393  1
  O  O198  1  0.92604351  0.30748357  -0.01057854  1
  O  O199  1  0.86613195  0.25396466  0.51299647  1
  O  O200  1  0.86924370  0.76237706  0.01066061  1
  O  O201  1  0.87128678  0.76787473  0.50297064  1
  O  O202  1  0.12891609  0.23800885  0.49081735  1
  O  O203  1  0.13398488  0.24822068  0.98276099  1
  O  O204  1  0.13101437  0.75560766  0.48754369  1
  O  O205  1  0.13089010  0.74440641  1.00160593  1
  O  O206  1  0.63348622  0.25515958  0.48852546  1
  O  O207  1  0.60863533  0.23620797  0.98559120  1
  O  O208  1  0.63540934  0.73423627  0.50698478  1
  O  O209  1  0.63655616  0.75536239  0.99728981  1
  O  O210  1  0.51249848  0.23249774  0.14591709  1
  O  O211  1  0.51260003  0.22872760  0.64097815  1
  O  O212  1  0.48170996  0.75251194  0.13085810  1
  O  O213  1  0.49510847  0.75040927  0.62709985  1
  O  O214  1  1.02075105  0.24400763  0.13670293  1
  O  O215  1  0.99327155  0.24736832  0.63276366  1
  O  O216  1  0.98890020  0.75712166  0.13163353  1
  O  O217  1  0.99875761  0.74481051  0.63699071  1
  O  O218  1  0.01205483  0.24596944  0.37497239  1
  O  O219  1  0.01779554  0.23877629  0.85925764  1
  O  O220  1  0.01365950  0.75414487  0.36994038  1
  O  O221  1  -0.00175851  0.75385585  0.85771745  1
  O  O222  1  0.51646616  0.24771606  0.37015090  1
  O  O223  1  0.50470113  0.24952003  0.86234282  1
  O  O224  1  0.51122479  0.74330328  0.35882773  1
  O  O225  1  0.50662848  0.75363906  0.86368422  1
  O  O226  1  0.23953312  0.12859422  0.49481674  1
  O  O227  1  0.23750038  0.14540311  1.01588227  1
  O  O228  1  0.24681795  0.63875180  0.50305463  1
  O  O229  1  0.23928673  0.63543785  0.98937063  1
  O  O230  1  0.75959434  0.13641636  0.49380646  1
  O  O231  1  0.72552329  0.12340352  1.00338713  1
  O  O232  1  0.74422355  0.62840342  0.49940379  1
  O  O233  1  0.75522872  0.64462178  0.99458925  1
  O  O234  1  0.25079780  0.36764356  0.00272183  1
  O  O235  1  0.23518379  0.35973790  0.50591024  1
  O  O236  1  0.24884296  0.86412654  0.01017563  1
  O  O237  1  0.24545994  0.86762073  0.50963397  1
  O  O238  1  0.75237699  0.36919858  0.01747136  1
  O  O239  1  0.75284914  0.36384599  0.51424650  1
  O  O240  1  0.75592482  0.86671274  0.00696976  1
  O  O241  1  0.75694934  0.86794408  0.50329026  1
  O  O242  1  0.12986605  0.51259691  0.23120508  1
  O  O243  1  0.12458308  0.49188050  0.75515873  1
  O  O244  1  0.13310312  0.99330980  0.24256563  1
  O  O245  1  0.14007205  0.99163538  0.74409070  1
  O  O246  1  0.60800689  0.51536258  0.23549538  1
  O  O247  1  0.63220940  0.50646205  0.73985323  1
  O  O248  1  0.62701581  1.00634287  0.23753697  1
  O  O249  1  0.63893615  0.99852824  0.73657623  1
  O  O250  1  0.36522301  0.00751947  0.24988519  1
  O  O251  1  0.36249256  0.00435874  0.74564029  1
  O  O252  1  0.38347416  0.51425591  0.24480184  1
  O  O253  1  0.35386795  0.50899897  0.75511539  1
  O  O254  1  0.87268326  0.02061912  0.23359952  1
  O  O255  1  0.85270501  -0.00688505  0.75157548  1
  O  O256  1  0.85167362  0.50789409  0.20816896  1
  O  O257  1  0.85844897  0.49858834  0.75835113  1
  O  O258  1  0.11341969  0.35824452  0.37006504  1
  O  O259  1  0.12449207  0.36750664  0.87107158  1
  O  O260  1  0.13071345  0.87111273  0.36258372  1
  O  O261  1  0.12102903  0.88018106  0.85658787  1
  O  O262  1  0.63630749  0.36479556  0.36680795  1
  O  O263  1  0.63068505  0.35847112  0.87505387  1
  O  O264  1  0.61255161  0.86667614  0.37382293  1
  O  O265  1  0.61156773  0.86179665  0.88246299  1
  O  O266  1  0.38728992  0.12566409  0.14216169  1
  O  O267  1  0.39047128  0.11705323  0.63402573  1
  O  O268  1  0.37046577  0.63237587  0.12376386  1
  O  O269  1  0.38764381  0.63932114  0.61382292  1
  O  O270  1  0.90696719  0.13280045  0.10533209  1
  O  O271  1  0.88836334  0.13711280  0.62304927  1
  O  O272  1  0.86824793  0.64997572  0.12680216  1
  O  O273  1  0.88438942  0.62747490  0.63148073  1
  O  O274  1  0.23853937  0.26742181  0.10896470  1
  O  O275  1  0.24739831  0.24001652  0.61197186  1
  O  O276  1  0.25380764  0.75604890  0.12122120  1
  O  O277  1  0.25387930  0.75545178  0.61535283  1
  O  O278  1  0.75198156  0.23067556  0.11562269  1
  O  O279  1  0.75224432  0.25247629  0.62382480  1
  O  O280  1  0.75396612  0.76076195  0.11371058  1
  O  O281  1  0.74379044  0.76212380  0.61701320  1
  O  O282  1  0.23876068  0.24060316  0.38308307  1
  O  O283  1  0.24198959  0.25625378  0.88175568  1
  O  O284  1  0.23856825  0.75357993  0.38614310  1
  O  O285  1  0.24619363  0.74490782  0.88167774  1
  O  O286  1  0.74149803  0.24471161  0.38415362  1
  O  O287  1  0.73148723  0.24034626  0.86739701  1
  O  O288  1  0.75468466  0.73867576  0.39401171  1
  O  O289  1  0.74451591  0.75004691  0.88325837  1
  O  O290  1  0.03517599  0.13719250  0.01860544  1
  O  O291  1  0.00140824  0.11396373  0.50783054  1
  O  O292  1  0.01065236  0.63620731  -0.00458910  1
  O  O293  1  -0.00644758  0.62979096  0.51552570  1
  O  O294  1  0.49783012  0.12848260  0.02103584  1
  O  O295  1  0.49453564  0.13086820  0.51397179  1
  O  O296  1  0.57148381  0.62040720  0.06176437  1
  O  O297  1  0.51190277  0.62846458  0.50727636  1
  O  O298  1  0.50049285  0.38091463  0.51248256  1
  O  O299  1  0.50806416  0.41193412  1.08578664  1
  O  O300  1  0.49727069  0.86315055  0.48158442  1
  O  O301  1  0.49646807  0.86954589  0.98953856  1
  O  O302  1  0.99709613  0.37369828  0.48370602  1
  O  O303  1  0.98286375  0.35437633  0.99483163  1
  O  O304  1  0.98900104  0.88838912  0.50588459  1
  O  O305  1  0.98361140  0.87674728  1.00890437  1
  O  O306  1  0.50129614  0.49448829  0.39945241  1
  O  O307  1  0.47959127  0.51211878  0.85729085  1
  O  O308  1  0.50100591  0.97995538  0.36074116  1
  O  O309  1  0.50014621  0.97861806  0.86912908  1
  O  O310  1  0.99838656  0.48270492  0.36616663  1
  O  O311  1  0.98132364  0.50615046  0.86426072  1
  O  O312  1  0.99811621  1.00263468  0.38199143  1
  O  O313  1  0.98894700  1.03529453  0.87893408  1
  O  O314  1  0.01851599  -0.00157528  0.12486995  1
  O  O315  1  -0.00673612  0.01614852  0.63226730  1
  O  O316  1  0.00915822  0.49561006  0.12757842  1
  O  O317  1  0.00114790  0.51628814  0.63225929  1
  O  O318  1  0.50714784  0.01005803  0.13665605  1
  O  O319  1  0.51178905  0.00525109  0.62732827  1
  O  O320  1  0.54149815  0.47292893  0.04161065  1
  O  O321  1  0.50589333  0.50986972  0.62268681  1
  O  O322  1  0.25007723  0.37325613  0.23189423  1
  O  O323  1  0.23242894  0.39585525  0.75500142  1
  O  O324  1  0.24335868  0.88153498  0.24542421  1
  O  O325  1  0.24261859  0.88270668  0.73769027  1
  O  O326  1  0.75776486  0.36059535  0.22932152  1
  O  O327  1  0.74971347  0.38138455  0.74098918  1
  O  O328  1  0.74770592  0.86778394  0.23523759  1
  O  O329  1  0.74764912  0.87272958  0.73654324  1
  O  O330  1  0.26131559  0.12182573  0.25697219  1
  O  O331  1  0.25946454  0.11083929  0.74600498  1
  O  O332  1  0.26165678  0.61725705  0.24986599  1
  O  O333  1  0.23224606  0.62094861  0.76499489  1
  O  O334  1  0.75645461  0.12156831  0.27208221  1
  O  O335  1  0.75125510  0.11632577  0.74878421  1
  O  O336  1  0.75535119  0.63267167  0.27565907  1
  O  O337  1  0.74438992  0.61786187  0.76032854  1
  O  O338  1  0.36409085  0.12886089  0.37085110  1
  O  O339  1  0.37984178  0.11513854  0.86403940  1
  O  O340  1  0.37209334  0.62639027  0.36905716  1
  O  O341  1  0.35550835  0.63022428  0.87510009  1
  O  O342  1  0.86682186  0.12302257  0.37396984  1
  O  O343  1  0.86295439  0.12480779  0.91094350  1
  O  O344  1  0.86833568  0.62357365  0.37816312  1
  O  O345  1  0.85922736  0.61968708  0.87833316  1
  O  O346  1  0.13253060  0.39590376  0.11275423  1
  O  O347  1  0.11987586  0.38131318  0.63586870  1
  O  O348  1  0.13684589  0.88564708  0.13179706  1
  O  O349  1  0.13817459  0.87071452  0.62805386  1
  O  O350  1  0.65346790  0.36444068  0.13247707  1
  O  O351  1  0.63458647  0.38476274  0.62103997  1
  O  O352  1  0.63057167  0.88577608  0.12241333  1
  O  O353  1  0.63792122  0.88595084  0.61734245  1
  O  O354  1  0.13209497  0.23809373  0.26486608  1
  O  O355  1  0.12815308  0.26317790  0.75685501  1
  O  O356  1  0.12075803  0.75479970  0.25824945  1
  O  O357  1  0.12409583  0.76767742  0.75371658  1
  O  O358  1  0.61691327  0.24154853  0.26543932  1
  O  O359  1  0.61056758  0.23663939  0.76499580  1
  O  O360  1  0.60986266  0.71897047  0.22693769  1
  O  O361  1  0.61646657  0.75104764  0.75729231  1
  O  O362  1  0.39161641  0.24258345  0.26522762  1
  O  O363  1  0.38752192  0.22951874  0.75470481  1
  O  O364  1  0.36919231  0.73386739  0.23837584  1
  O  O365  1  0.38232520  0.75104435  0.73409789  1
  O  O366  1  0.87273259  0.21723363  0.24000573  1
  O  O367  1  0.89168260  0.25217358  0.74965255  1
  O  O368  1  0.88206146  0.75887916  0.23939902  1
  O  O369  1  0.88156316  0.76488498  0.75177322  1
  O  O370  1  0.38971205  0.49668096  0.51385530  1
  O  O371  1  0.37369303  0.50393982  0.98029276  1
  O  O372  1  0.35064239  0.99814703  0.48236057  1
  O  O373  1  0.37345466  1.00200319  1.00862176  1
  O  O374  1  0.88249321  0.49247072  0.50459490  1
  O  O375  1  0.87487132  0.50272218  0.98642360  1
  O  O376  1  0.88722234  0.99403745  0.50177516  1
  O  O377  1  0.86755317  0.98958128  1.01595071  1
  O  O378  1  0.14057575  0.01498214  0.01594435  1
  O  O379  1  0.10816411  0.00879235  0.49613508  1
  O  O380  1  0.12222591  0.51396052  0.00404294  1
  O  O381  1  0.11274700  0.50556442  0.49239483  1
  O  O382  1  0.61812099  0.00898444  0.01303334  1
  O  O383  1  0.62931325  0.00182029  0.51386938  1
  O  O384  1  0.57724406  0.44692187  -0.02146136  1
  O  O385  1  0.61686640  0.50865520  0.51411033  1
  O  O386  1  0.36163345  0.37686927  0.12127733  1
  O  O387  1  0.35214075  0.36874373  0.66192947  1
  O  O388  1  0.36277152  0.86538416  0.13793663  1
  O  O389  1  0.36272562  0.86635736  0.61873345  1
  O  O390  1  0.86630353  0.34928158  0.12331727  1
  O  O391  1  0.86601201  0.36172004  0.63228132  1
  O  O392  1  0.86120718  0.86994553  0.12113300  1
  O  O393  1  0.85339898  0.88455987  0.61186868  1
  O  O394  1  0.13122605  0.13069478  0.38316998  1
  O  O395  1  0.13397913  0.12840505  0.88484162  1
  O  O396  1  0.12391662  0.63793592  0.37012817  1
  O  O397  1  0.13033612  0.62946615  0.88753479  1
  O  O398  1  0.63875285  0.13235880  0.37895554  1
  O  O399  1  0.60913003  0.11921414  0.89044615  1
  O  O400  1  0.63392585  0.61812040  0.39314471  1
  O  O401  1  0.63507118  0.64142813  0.87693742  1
