# generated using pymatgen
data_V73Zn73O256
_symmetry_space_group_name_H-M   'P 1'
_cell_length_a   16.85857941
_cell_length_b   16.85489786
_cell_length_c   16.83429179
_cell_angle_alpha   89.85327702
_cell_angle_beta   89.94975063
_cell_angle_gamma   89.96207542
_symmetry_Int_Tables_number   1
_chemical_formula_structural   V73Zn73O256
_chemical_formula_sum   'V73 Zn73 O256'
_cell_volume   4783.43928628
_cell_formula_units_Z   1
loop_
 _symmetry_equiv_pos_site_id
 _symmetry_equiv_pos_as_xyz
  1  'x, y, z'
loop_
 _atom_site_type_symbol
 _atom_site_label
 _atom_site_symmetry_multiplicity
 _atom_site_fract_x
 _atom_site_fract_y
 _atom_site_fract_z
 _atom_site_occupancy
  V  V0  1  0.12717472  0.74513019  0.37914031  1
  V  V1  1  0.25415114  0.62577357  0.36396978  1
  V  V2  1  0.00213826  0.87452751  0.37150431  1
  V  V3  1  0.74543646  0.15066235  0.88484647  1
  V  V4  1  0.11890055  0.74435396  0.87503053  1
  V  V5  1  0.86888544  0.62527371  0.23923156  1
  V  V6  1  0.00049713  0.74655678  0.23835939  1
  V  V7  1  0.00260422  0.37474285  0.37133076  1
  V  V8  1  0.13686606  0.49423779  0.63097302  1
  V  V9  1  0.37342101  0.50306143  0.37817382  1
  V  V10  1  0.49164704  0.74681890  0.24205934  1
  V  V11  1  0.37170151  0.88952311  0.49277947  1
  V  V12  1  0.63211111  0.37862778  0.25586538  1
  V  V13  1  0.62700997  0.50301083  0.12862850  1
  V  V14  1  0.90350089  0.37460578  0.00239049  1
  V  V15  1  0.48747417  0.49222583  -0.00592193  1
  V  V16  1  0.25566082  0.74279688  0.50306221  1
  V  V17  1  0.89176889  0.49631491  0.87739762  1
  V  V18  1  0.74661026  0.73636116  0.48955327  1
  V  V19  1  0.37967649  0.00121407  0.87040008  1
  V  V20  1  0.00780795  0.51550076  0.49639811  1
  V  V21  1  0.87627479  0.87201429  0.49802349  1
  V  V22  1  0.51267961  0.64271503  0.62730212  1
  V  V23  1  0.62335129  0.62882101  -0.00172662  1
  V  V24  1  0.36502031  0.24356241  0.62745951  1
  V  V25  1  0.50314126  0.36879778  0.86498773  1
  V  V26  1  0.48103940  0.62840146  0.12328299  1
  V  V27  1  0.26069097  0.01340485  0.24912270  1
  V  V28  1  0.51545568  0.12057642  0.62580922  1
  V  V29  1  0.86924520  0.50511908  0.36988821  1
  V  V30  1  0.37123246  0.87106158  0.00962179  1
  V  V31  1  0.87876174  0.74516733  0.63298389  1
  V  V32  1  0.50604251  0.86684114  0.86243459  1
  V  V33  1  0.73888026  0.37979042  0.63246403  1
  V  V34  1  0.12039904  0.00541156  0.11280415  1
  V  V35  1  0.00550164  0.63064237  0.64064755  1
  V  V36  1  0.25727429  0.62144889  0.86776935  1
  V  V37  1  0.13610541  0.87791130  0.24180187  1
  V  V38  1  0.23653633  0.12674186  0.88730505  1
  V  V39  1  0.13058363  0.24946281  0.37320839  1
  V  V40  1  0.25617918  0.87226379  0.62718921  1
  V  V41  1  0.72543451  0.87065108  0.13073666  1
  V  V42  1  0.72753406  0.00065368  0.24524452  1
  V  V43  1  0.73899508  0.88565094  0.62208573  1
  V  V44  1  0.87954366  0.87478852  0.02122022  1
  V  V45  1  0.25016524  0.74987420  0.00690760  1
  V  V46  1  0.87868450  0.37666078  0.51039333  1
  V  V47  1  0.13235088  0.13008437  0.50480860  1
  V  V48  1  0.24517154  0.47831299  0.24578011  1
  V  V49  1  -0.01538766  0.88201175  0.87330884  1
  V  V50  1  0.50970867  0.00919997  0.01065462  1
  V  V51  1  0.86407071  0.24082960  0.12445966  1
  V  V52  1  0.01679112  0.60460605  0.11604825  1
  V  V53  1  -0.00707386  0.24029523  0.25002352  1
  V  V54  1  0.74532934  0.37266563  0.11528939  1
  V  V55  1  0.87507237  0.00798334  0.36248962  1
  V  V56  1  0.51414881  0.24540284  0.74851362  1
  V  V57  1  0.11935597  0.86954780  0.74969155  1
  V  V58  1  0.62552494  0.24329792  0.38001288  1
  V  V59  1  0.74855736  0.00177844  0.76601729  1
  V  V60  1  0.36343576  0.37364232  0.51157174  1
  V  V61  1  0.50359556  0.37762864  0.37704402  1
  V  V62  1  0.37861313  0.62831937  0.74053392  1
  V  V63  1  0.73843985  0.49847483  0.75393026  1
  V  V64  1  0.25279491  0.00622523  0.74937900  1
  V  V65  1  0.51436672  0.50487004  0.51484722  1
  V  V66  1  0.88322303  0.13223018  0.73779235  1
  V  V67  1  0.00955688  0.27375835  0.74974757  1
  V  V68  1  0.75290623  0.24479042  0.50814527  1
  V  V69  1  0.00096844  0.00726086  0.50597148  1
  V  V70  1  0.51626949  0.00468689  0.49844778  1
  V  V71  1  0.75345081  0.62194896  0.87778503  1
  V  V72  1  0.50780335  0.87326120  0.36888034  1
  Zn  Zn73  1  0.26316594  0.12403026  0.37477593  1
  Zn  Zn74  1  0.11873205  0.00297914  0.63214558  1
  Zn  Zn75  1  0.75645019  0.74324599  0.01186203  1
  Zn  Zn76  1  0.61611425  0.74417272  0.85039768  1
  Zn  Zn77  1  0.70356930  0.56565327  0.31284585  1
  Zn  Zn78  1  0.62814150  0.73425177  0.37179991  1
  Zn  Zn79  1  0.28631089  0.31495123  0.07960466  1
  Zn  Zn80  1  0.75524970  0.13482168  0.36067698  1
  Zn  Zn81  1  -0.00654036  0.11632814  0.12232472  1
  Zn  Zn82  1  0.18361321  0.18804372  0.18303546  1
  Zn  Zn83  1  0.17786766  0.18975402  0.69147158  1
  Zn  Zn84  1  0.18751054  0.68516501  0.18755056  1
  Zn  Zn85  1  0.18692751  0.68312314  0.68752419  1
  Zn  Zn86  1  0.63654341  0.16423750  0.20604468  1
  Zn  Zn87  1  0.69379716  0.18451809  0.69009399  1
  Zn  Zn88  1  0.67357973  0.69411511  0.18715516  1
  Zn  Zn89  1  0.69509208  0.68825259  0.68543494  1
  Zn  Zn90  1  0.32027662  0.30848919  0.31948197  1
  Zn  Zn91  1  0.33060332  0.29079349  0.81971101  1
  Zn  Zn92  1  0.31551987  0.81596175  0.31354422  1
  Zn  Zn93  1  0.31580052  0.80866088  0.81465710  1
  Zn  Zn94  1  0.81212087  0.31874902  0.31209486  1
  Zn  Zn95  1  0.82413127  0.31324232  0.81334625  1
  Zn  Zn96  1  0.81271690  0.81191884  0.30510879  1
  Zn  Zn97  1  0.78883859  0.80533556  0.80293780  1
  Zn  Zn98  1  0.18523703  0.43796229  0.44008513  1
  Zn  Zn99  1  0.32420096  0.45439877  0.90998431  1
  Zn  Zn100  1  0.18836261  0.94152446  0.43158187  1
  Zn  Zn101  1  0.18627162  0.93221615  0.93254423  1
  Zn  Zn102  1  0.68921828  0.43671975  0.44773984  1
  Zn  Zn103  1  0.67987539  0.43539720  0.93677712  1
  Zn  Zn104  1  0.69194049  0.93332218  0.43319224  1
  Zn  Zn105  1  0.68710360  0.93520709  0.94470661  1
  Zn  Zn106  1  0.30646579  0.05513859  0.06141114  1
  Zn  Zn107  1  0.31445298  0.06598893  0.56688870  1
  Zn  Zn108  1  0.29661798  0.56553954  0.06244039  1
  Zn  Zn109  1  0.32086083  0.56462582  0.56415011  1
  Zn  Zn110  1  0.80380496  0.05490293  0.05731047  1
  Zn  Zn111  1  0.81743906  0.06407307  0.56193215  1
  Zn  Zn112  1  0.81645090  0.55582204  0.06088922  1
  Zn  Zn113  1  0.81642438  0.55999614  0.56666335  1
  Zn  Zn114  1  0.43405259  0.44110897  0.19215098  1
  Zn  Zn115  1  0.43024089  0.44266499  0.69414263  1
  Zn  Zn116  1  0.43872601  0.93905576  0.18746747  1
  Zn  Zn117  1  0.44038847  0.93464835  0.68314325  1
  Zn  Zn118  1  0.93861435  0.43395793  0.18648993  1
  Zn  Zn119  1  0.93921578  0.44507118  0.69117093  1
  Zn  Zn120  1  0.94108464  0.93826622  0.18724211  1
  Zn  Zn121  1  0.92799979  0.93809348  0.69335232  1
  Zn  Zn122  1  0.06617992  0.06444619  0.31270948  1
  Zn  Zn123  1  0.05562772  0.06108142  0.81633092  1
  Zn  Zn124  1  0.06640714  0.56118762  0.30434441  1
  Zn  Zn125  1  0.07060864  0.55794637  0.81408172  1
  Zn  Zn126  1  0.53551858  0.05964956  0.30630943  1
  Zn  Zn127  1  0.57308068  0.06027387  0.81444128  1
  Zn  Zn128  1  0.54279907  0.56593655  0.31332464  1
  Zn  Zn129  1  0.55797690  0.56029563  0.80958986  1
  Zn  Zn130  1  0.44305022  0.19205281  0.44686663  1
  Zn  Zn131  1  0.43296473  0.18344471  0.93436099  1
  Zn  Zn132  1  0.43725254  0.68967092  0.44451559  1
  Zn  Zn133  1  0.43355437  0.68801608  0.93503493  1
  Zn  Zn134  1  0.93635023  0.18989539  0.44377478  1
  Zn  Zn135  1  0.92126870  0.19511401  0.92202228  1
  Zn  Zn136  1  0.93287276  0.68874723  0.42918290  1
  Zn  Zn137  1  0.93491475  0.68937405  0.94444030  1
  Zn  Zn138  1  0.08535537  0.30228663  0.06800699  1
  Zn  Zn139  1  0.06049202  0.31288529  0.57009352  1
  Zn  Zn140  1  0.06362746  0.81418273  0.05618662  1
  Zn  Zn141  1  0.06602806  0.81345373  0.56330864  1
  Zn  Zn142  1  0.54013895  0.31844584  0.08266264  1
  Zn  Zn143  1  0.56286851  0.31466005  0.56311763  1
  Zn  Zn144  1  0.55539813  0.81534438  0.05338984  1
  Zn  Zn145  1  0.56532737  0.81382779  0.55556516  1
  O  O146  1  0.11561180  0.10926982  0.12764988  1
  O  O147  1  0.12978385  0.11952529  0.60923083  1
  O  O148  1  0.11699542  0.61889874  0.12901102  1
  O  O149  1  0.10972496  0.62335686  0.62334732  1
  O  O150  1  0.62836581  0.16774613  0.07879003  1
  O  O151  1  0.61432398  0.12845170  0.62072303  1
  O  O152  1  0.61502066  0.61749398  0.11874666  1
  O  O153  1  0.61320080  0.63040298  0.63246455  1
  O  O154  1  0.38522991  0.37868525  0.39082463  1
  O  O155  1  0.38973319  0.37033063  0.87657958  1
  O  O156  1  0.38367886  0.87647109  0.38807417  1
  O  O157  1  0.38410486  0.88219286  0.87852675  1
  O  O158  1  0.88234360  0.38785558  0.38146840  1
  O  O159  1  0.87942257  0.38075955  0.89498627  1
  O  O160  1  0.88417419  0.88261277  0.37806770  1
  O  O161  1  0.88603165  0.86392630  0.86065261  1
  O  O162  1  0.24663764  0.00472971  0.35682652  1
  O  O163  1  0.25742513  -0.00192273  0.86353689  1
  O  O164  1  0.25440594  0.50695689  0.37262310  1
  O  O165  1  0.23846041  0.52273531  0.88082904  1
  O  O166  1  0.76238814  -0.00386022  0.36366857  1
  O  O167  1  0.75319426  -0.01295746  0.86579057  1
  O  O168  1  0.76547020  0.49356704  0.37772965  1
  O  O169  1  0.75108910  0.49933143  0.87010065  1
  O  O170  1  0.26816701  0.49861039  0.14777266  1
  O  O171  1  0.23460009  0.51360500  0.61492193  1
  O  O172  1  0.23464753  1.00309752  0.13933637  1
  O  O173  1  0.25160834  0.99211741  0.63629834  1
  O  O174  1  0.73339607  0.49194596  0.11966901  1
  O  O175  1  0.75729126  0.49279466  0.64073640  1
  O  O176  1  0.74486909  0.99018674  0.13738196  1
  O  O177  1  0.74705782  0.98557495  0.60438825  1
  O  O178  1  -0.00450789  0.36717972  0.26498975  1
  O  O179  1  0.00202416  0.37564027  0.75283015  1
  O  O180  1  0.00606594  0.86680445  0.25791460  1
  O  O181  1  0.00996097  0.87948834  0.75536555  1
  O  O182  1  0.51088115  0.38652736  0.26898355  1
  O  O183  1  0.50137915  0.36715110  0.75798788  1
  O  O184  1  0.49541611  0.87078624  0.26339048  1
  O  O185  1  0.49964082  0.87899995  0.76212215  1
  O  O186  1  0.53193676  0.12950578  0.22443783  1
  O  O187  1  0.50543082  0.13182814  0.73785006  1
  O  O188  1  0.49103042  0.63309437  0.23438597  1
  O  O189  1  0.49487459  0.62592510  0.73875354  1
  O  O190  1  0.99534597  0.13699046  0.25285873  1
  O  O191  1  0.98450906  0.11357358  0.74625001  1
  O  O192  1  0.99501366  0.62872065  0.24023625  1
  O  O193  1  0.99892376  0.62388370  0.73884193  1
  O  O194  1  0.35703682  0.21774132  0.02894801  1
  O  O195  1  0.38167235  0.26461351  0.51272666  1
  O  O196  1  0.36559143  0.76156261  -0.00498224  1
  O  O197  1  0.35940324  0.76412828  0.49655606  1
  O  O198  1  0.88274376  0.26408078  0.01535115  1
  O  O199  1  0.86266958  0.26471438  0.49268283  1
  O  O200  1  0.86876754  0.76715973  -0.00348890  1
  O  O201  1  0.87145725  0.75920313  0.49725843  1
  O  O202  1  0.11428217  0.23516401  0.49328597  1
  O  O203  1  0.07574365  0.20136339  0.99148036  1
  O  O204  1  0.13958353  0.76365666  0.48641475  1
  O  O205  1  0.13824718  0.76077487  0.98515979  1
  O  O206  1  0.64328778  0.26345330  0.49128118  1
  O  O207  1  0.60366206  0.22571808  1.03582958  1
  O  O208  1  0.64341582  0.75040836  0.49634979  1
  O  O209  1  0.62400597  0.73435309  1.00131536  1
  O  O210  1  0.44567864  0.28787613  0.14171818  1
  O  O211  1  0.50090614  0.24028385  0.62989887  1
  O  O212  1  0.49979638  0.74062373  0.13075025  1
  O  O213  1  0.50056424  0.74182773  0.61594161  1
  O  O214  1  0.99806649  0.25305713  0.14318657  1
  O  O215  1  1.00032030  0.25315049  0.64326742  1
  O  O216  1  1.01022540  0.74536755  0.13656682  1
  O  O217  1  0.99277938  0.74112094  0.61723937  1
  O  O218  1  -0.00200852  0.25615179  0.36924778  1
  O  O219  1  -0.00756927  0.24821483  0.85275023  1
  O  O220  1  0.00850039  0.75605272  0.36717070  1
  O  O221  1  0.01469076  0.75175918  0.87893083  1
  O  O222  1  0.51915685  0.26520039  0.39486647  1
  O  O223  1  0.49086951  0.25294880  0.85978490  1
  O  O224  1  0.49762689  0.76026132  0.37285181  1
  O  O225  1  0.50137869  0.76051209  0.87596993  1
  O  O226  1  0.23692643  0.11520117  0.49258197  1
  O  O227  1  0.23947212  0.10993417  0.98629246  1
  O  O228  1  0.25470250  0.64053959  0.49386464  1
  O  O229  1  0.25653788  0.64161269  0.98680481  1
  O  O230  1  0.75654880  0.14334054  0.49878435  1
  O  O231  1  0.75945557  0.12798070  0.98450475  1
  O  O232  1  0.76097795  0.63724057  0.50076678  1
  O  O233  1  0.73865441  0.61704699  0.99753519  1
  O  O234  1  0.25611547  0.38925267  -0.00979396  1
  O  O235  1  0.26485866  0.37742155  0.49840676  1
  O  O236  1  0.26239996  0.86535464  -0.00864603  1
  O  O237  1  0.25836261  0.87665523  0.50315730  1
  O  O238  1  0.73870217  0.37153572  0.01421437  1
  O  O239  1  0.75973592  0.37552562  0.51495825  1
  O  O240  1  0.75400068  0.87375705  0.02073292  1
  O  O241  1  0.76084004  0.86758909  0.50367313  1
  O  O242  1  0.14521925  0.49411639  0.25835524  1
  O  O243  1  0.12317198  0.50325472  0.73142373  1
  O  O244  1  0.12626951  0.98729319  0.24701968  1
  O  O245  1  0.13772393  0.98802724  0.75108048  1
  O  O246  1  0.62194853  0.49808351  0.24275967  1
  O  O247  1  0.63888561  0.49332822  0.75730657  1
  O  O248  1  0.63154682  0.98910062  0.26232620  1
  O  O249  1  0.64821351  1.00391528  0.74526544  1
  O  O250  1  0.36014566  0.00216947  0.24146986  1
  O  O251  1  0.36401154  -0.00913046  0.75863526  1
  O  O252  1  0.36788866  0.49273585  0.27196812  1
  O  O253  1  0.37696184  0.52051937  0.75523086  1
  O  O254  1  0.87744175  0.00130811  0.26115989  1
  O  O255  1  0.85927007  0.01494962  0.73853727  1
  O  O256  1  0.88036621  0.50809839  0.26128928  1
  O  O257  1  0.86756725  0.49059730  0.77367159  1
  O  O258  1  0.11473913  0.35855444  0.38968689  1
  O  O259  1  0.17826644  0.37537433  0.80300484  1
  O  O260  1  0.11829640  0.86974638  0.36466550  1
  O  O261  1  0.11594705  0.86583735  0.86652472  1
  O  O262  1  0.62256995  0.37919397  0.37190870  1
  O  O263  1  0.60184955  0.36827232  0.88632109  1
  O  O264  1  0.60922742  0.86791183  0.38372536  1
  O  O265  1  0.60814372  0.87218696  0.88378759  1
  O  O266  1  0.35904356  0.16439177  0.08852272  1
  O  O267  1  0.38906529  0.13919338  0.61489932  1
  O  O268  1  0.38361663  0.62827582  0.11611858  1
  O  O269  1  0.38543483  0.62738595  0.63384329  1
  O  O270  1  0.87650224  0.13770918  0.11522441  1
  O  O271  1  0.86553400  0.13279708  0.63560131  1
  O  O272  1  0.88586535  0.61402845  0.13685081  1
  O  O273  1  0.88754415  0.63774691  0.61889228  1
  O  O274  1  0.18782998  0.27009983  0.10758042  1
  O  O275  1  0.26579817  0.24066624  0.63366392  1
  O  O276  1  0.24269349  0.74613853  0.10691352  1
  O  O277  1  0.24069557  0.75755388  0.60976080  1
  O  O278  1  0.76390321  0.25587257  0.13164310  1
  O  O279  1  0.74654502  0.26275629  0.61560413  1
  O  O280  1  0.74369160  0.76526252  0.13075991  1
  O  O281  1  0.76641412  0.75670721  0.60945626  1
  O  O282  1  0.23261537  0.24766686  0.37281517  1
  O  O283  1  0.25906404  0.22638137  0.87479906  1
  O  O284  1  0.24701866  0.74586139  0.38145633  1
  O  O285  1  0.24051215  0.74472242  0.88080334  1
  O  O286  1  0.74431267  0.25423058  0.38459187  1
  O  O287  1  0.74913903  0.25211913  0.87535035  1
  O  O288  1  0.75212056  0.75423310  0.38426864  1
  O  O289  1  0.75931873  0.72620201  0.88743934  1
  O  O290  1  0.01463153  0.15432461  -0.00087751  1
  O  O291  1  0.00448051  0.11163990  0.49761648  1
  O  O292  1  -0.00212160  0.62782949  0.01886345  1
  O  O293  1  -0.00264455  0.61672539  0.49448976  1
  O  O294  1  0.49286341  0.10777649  -0.00826654  1
  O  O295  1  0.50149625  0.11201043  0.50508819  1
  O  O296  1  0.50256034  0.61964760  0.00707870  1
  O  O297  1  0.49318991  0.61471151  0.51514892  1
  O  O298  1  0.49811007  0.38884589  0.49705352  1
  O  O299  1  0.49547037  0.38854143  0.99968906  1
  O  O300  1  0.48951368  0.88539433  0.49739402  1
  O  O301  1  0.48645515  0.88341055  0.98941073  1
  O  O302  1  0.99278474  0.38440834  0.49251204  1
  O  O303  1  1.00217878  0.36987782  1.01279780  1
  O  O304  1  0.99764133  0.88085998  0.48798720  1
  O  O305  1  0.98684215  0.86720971  0.98731271  1
  O  O306  1  0.49039045  0.49673034  0.38991268  1
  O  O307  1  0.50001626  0.48943218  0.88620131  1
  O  O308  1  0.50062369  0.98849582  0.38681179  1
  O  O309  1  0.48982568  0.99414170  0.87394198  1
  O  O310  1  0.99688389  0.49633070  0.38188152  1
  O  O311  1  0.99071710  0.50621630  0.87685132  1
  O  O312  1  0.99181969  0.99365864  0.37893684  1
  O  O313  1  0.99766703  0.98117518  0.87599563  1
  O  O314  1  0.01189503  0.00002100  0.12571765  1
  O  O315  1  -0.00083208  -0.01036616  0.60769069  1
  O  O316  1  0.00537970  0.50428203  0.12845682  1
  O  O317  1  -0.00055926  0.51557242  0.61227641  1
  O  O318  1  0.49433060  -0.00082831  0.11040912  1
  O  O319  1  0.49674604  0.01103885  0.61414795  1
  O  O320  1  0.50096580  0.51031493  0.11962161  1
  O  O321  1  0.50061627  0.50077287  0.61682422  1
  O  O322  1  0.25771415  0.37724715  0.25360897  1
  O  O323  1  0.24172477  0.37731907  0.76596587  1
  O  O324  1  0.23926393  0.88106964  0.25311144  1
  O  O325  1  0.24490927  0.87765804  0.74241543  1
  O  O326  1  0.73955248  0.37773273  0.23976793  1
  O  O327  1  0.75763548  0.38042371  0.73903468  1
  O  O328  1  0.75371979  0.88464355  0.23872917  1
  O  O329  1  0.76717346  0.89487507  0.72722021  1
  O  O330  1  0.24442921  0.11812263  0.25082340  1
  O  O331  1  0.24728100  0.10738790  0.74921746  1
  O  O332  1  0.25547883  0.62501980  0.26173042  1
  O  O333  1  0.25905731  0.62886009  0.75830654  1
  O  O334  1  0.73440932  0.10853562  0.24611666  1
  O  O335  1  0.75674631  0.11856848  0.75783173  1
  O  O336  1  0.76442517  0.62941597  0.23814701  1
  O  O337  1  0.75180522  0.60604815  0.76127763  1
  O  O338  1  0.37803253  0.15671893  0.35613607  1
  O  O339  1  0.36387766  0.10454582  0.87652935  1
  O  O340  1  0.36725083  0.61382861  0.38730188  1
  O  O341  1  0.36389716  0.62495713  0.86898586  1
  O  O342  1  0.87250985  0.11090967  0.38107147  1
  O  O343  1  0.85655053  0.12748229  0.85847178  1
  O  O344  1  0.87769475  0.61193204  0.36236020  1
  O  O345  1  0.86530353  0.60422077  0.89429170  1
  O  O346  1  0.14446628  0.42219291  0.06831654  1
  O  O347  1  0.12672926  0.39489144  0.61269676  1
  O  O348  1  0.11955650  0.88002045  0.13832298  1
  O  O349  1  0.13506506  0.87872504  0.63099902  1
  O  O350  1  0.62364541  0.38127456  0.13622903  1
  O  O351  1  0.64009242  0.37960518  0.62408518  1
  O  O352  1  0.62620353  0.87355542  0.12556808  1
  O  O353  1  0.64077556  0.86932086  0.62142346  1
  O  O354  1  0.10864642  0.24580033  0.26802841  1
  O  O355  1  0.11294726  0.25255937  0.75233287  1
  O  O356  1  0.12231354  0.76148447  0.25730346  1
  O  O357  1  0.13168383  0.76002439  0.76017985  1
  O  O358  1  0.62984598  0.26518271  0.27103986  1
  O  O359  1  0.61312270  0.25147893  0.74438471  1
  O  O360  1  0.60125271  0.74916057  0.25599050  1
  O  O361  1  0.68162975  0.76624975  0.76318121  1
  O  O362  1  0.38471028  0.21428690  0.29566821  1
  O  O363  1  0.39248282  0.25397111  0.73097781  1
  O  O364  1  0.39076025  0.75634065  0.25371231  1
  O  O365  1  0.37413472  0.73201444  0.75449750  1
  O  O366  1  0.88209267  0.25496400  0.23986459  1
  O  O367  1  0.88563123  0.24180123  0.74729488  1
  O  O368  1  0.88673501  0.73326371  0.25696565  1
  O  O369  1  0.87096816  0.75335944  0.73065358  1
  O  O370  1  0.38120971  0.48845024  0.49781066  1
  O  O371  1  0.38478897  0.50756875  1.00103502  1
  O  O372  1  0.37828599  0.99264865  0.49932618  1
  O  O373  1  0.37416005  0.98765109  0.98804027  1
  O  O374  1  0.88519242  0.49749065  0.48872796  1
  O  O375  1  0.87701951  0.48165012  0.99665345  1
  O  O376  1  0.88565171  0.99190393  0.49014292  1
  O  O377  1  0.86858050  0.97506108  1.00380076  1
  O  O378  1  0.12928749  -0.01349262  0.01475396  1
  O  O379  1  0.11194168  0.00688150  0.49436302  1
  O  O380  1  0.18534671  0.44123425  0.00733829  1
  O  O381  1  0.11060383  0.50423064  0.50121555  1
  O  O382  1  0.60954635  -0.00210258  -0.00116585  1
  O  O383  1  0.61475124  -0.00479694  0.49766716  1
  O  O384  1  0.60904274  0.50809335  0.00877798  1
  O  O385  1  0.61353840  0.50273808  0.50184776  1
  O  O386  1  0.38766147  0.34923812  0.13410165  1
  O  O387  1  0.37850122  0.36809851  0.61745333  1
  O  O388  1  0.37697856  0.87618382  0.10891570  1
  O  O389  1  0.36456057  0.87825004  0.61267488  1
  O  O390  1  0.86657440  0.37180444  0.11594870  1
  O  O391  1  0.87243867  0.38639820  0.61366239  1
  O  O392  1  0.87944968  0.86780379  0.12319534  1
  O  O393  1  0.87823232  0.86425990  0.61128947  1
  O  O394  1  0.12172780  0.13551021  0.38572610  1
  O  O395  1  0.13840202  0.11599137  0.86611377  1
  O  O396  1  0.13430739  0.63815573  0.36888528  1
  O  O397  1  0.13383586  0.63949286  0.86672545  1
  O  O398  1  0.62599249  0.14271740  0.37747127  1
  O  O399  1  0.64540001  0.12583221  0.87080907  1
  O  O400  1  0.62378177  0.61979357  0.36860914  1
  O  O401  1  0.63047789  0.62289355  0.88179805  1
