# generated using pymatgen
data_V73Zn73O256
_symmetry_space_group_name_H-M   'P 1'
_cell_length_a   16.87825540
_cell_length_b   16.89432919
_cell_length_c   16.91490843
_cell_angle_alpha   90.02746529
_cell_angle_beta   90.16405179
_cell_angle_gamma   90.44744751
_symmetry_Int_Tables_number   1
_chemical_formula_structural   V73Zn73O256
_chemical_formula_sum   'V73 Zn73 O256'
_cell_volume   4823.06460409
_cell_formula_units_Z   1
loop_
 _symmetry_equiv_pos_site_id
 _symmetry_equiv_pos_as_xyz
  1  'x, y, z'
loop_
 _atom_site_type_symbol
 _atom_site_label
 _atom_site_symmetry_multiplicity
 _atom_site_fract_x
 _atom_site_fract_y
 _atom_site_fract_z
 _atom_site_occupancy
  V  V0  1  0.74049651  0.49075737  0.25504511  1
  V  V1  1  0.25139003  0.75766804  0.00512214  1
  V  V2  1  0.49307406  0.88470315  0.88312153  1
  V  V3  1  0.23905234  0.37891877  0.62745395  1
  V  V4  1  0.49528016  0.62548042  0.62261477  1
  V  V5  1  -0.00439055  0.87575912  0.39050427  1
  V  V6  1  0.24824853  0.24885586  0.48063745  1
  V  V7  1  -0.00936600  0.62229621  0.64460285  1
  V  V8  1  0.23496380  0.50007853  0.74373330  1
  V  V9  1  0.87964141  0.76777040  0.61345023  1
  V  V10  1  0.75056355  0.12947742  0.38778042  1
  V  V11  1  0.74656501  -0.00363950  0.25059746  1
  V  V12  1  0.87791549  -0.00523012  0.38845675  1
  V  V13  1  0.61292406  0.74962522  0.36867768  1
  V  V14  1  0.06145192  -0.05320766  0.05660718  1
  V  V15  1  0.63838248  0.49616828  0.63905921  1
  V  V16  1  0.62240413  0.00507072  0.62277616  1
  V  V17  1  0.75184036  0.86254841  0.11904166  1
  V  V18  1  0.48156185  0.39705396  0.86958087  1
  V  V19  1  0.74780052  0.00868680  0.75579946  1
  V  V20  1  0.86465738  0.36037562  0.50786724  1
  V  V21  1  0.87612837  0.13459254  0.73818057  1
  V  V22  1  0.08657633  0.09281986  0.50774876  1
  V  V23  1  0.61830267  -0.00216706  0.11177089  1
  V  V24  1  0.37463565  0.50044746  0.36674416  1
  V  V25  1  0.61387391  0.49765370  0.11617013  1
  V  V26  1  0.25113024  0.75291183  0.51011927  1
  V  V27  1  -0.00594776  0.87449524  0.85799744  1
  V  V28  1  0.63088377  0.62587939  0.49465581  1
  V  V29  1  0.38383841  -0.02027639  0.38203239  1
  V  V30  1  0.12329324  0.75509253  0.37494805  1
  V  V31  1  0.38238377  0.37851543  0.50405285  1
  V  V32  1  0.00239281  0.75491413  0.24410008  1
  V  V33  1  0.87994003  0.49688733  0.38404515  1
  V  V34  1  0.12164985  0.26005785  0.87011548  1
  V  V35  1  -0.00042969  0.38299867  0.88635167  1
  V  V36  1  0.01271435  0.24846444  0.25761778  1
  V  V37  1  0.11171424  0.61375119  0.50348358  1
  V  V38  1  0.50289017  0.49850004  0.49585833  1
  V  V39  1  0.74331145  0.36984898  0.12153029  1
  V  V40  1  0.62001870  0.25458819  0.34730116  1
  V  V41  1  0.63467270  0.27163545  0.86489896  1
  V  V42  1  -0.00137051  0.25573148  0.73910807  1
  V  V43  1  0.26714853  0.36834001  0.13011075  1
  V  V44  1  0.87657462  0.12343188  0.25362435  1
  V  V45  1  0.12244408  0.12457913  0.00100832  1
  V  V46  1  0.00785324  0.37384705  0.38086656  1
  V  V47  1  0.49301578  0.12775691  0.64772104  1
  V  V48  1  0.49927744  0.64698906  0.12144311  1
  V  V49  1  0.84831207  0.50571108  0.87043749  1
  V  V50  1  0.11664273  0.75199099  0.86317713  1
  V  V51  1  0.23828728  -0.01895806  0.23565618  1
  V  V52  1  0.24814358  0.12279997  0.85029834  1
  V  V53  1  0.87579684  0.00847594  0.88387843  1
  V  V54  1  0.43363096  0.80748131  0.56717275  1
  V  V55  1  0.36391199  0.12617537  0.25572371  1
  V  V56  1  0.87445965  0.24940811  0.12091504  1
  V  V57  1  0.00331700  0.60606404  0.11936074  1
  V  V58  1  0.37598254  0.62069403  0.74718707  1
  V  V59  1  0.87814470  0.62009557  0.25085448  1
  V  V60  1  0.61445647  0.14122121  0.50518040  1
  V  V61  1  0.61748964  0.86978168  0.25486370  1
  V  V62  1  0.25111667  0.62627423  0.36965063  1
  V  V63  1  0.75193477  0.63175119  0.37509773  1
  V  V64  1  0.14053589  0.49064103  0.12848447  1
  V  V65  1  0.62752394  0.87293479  0.75316529  1
  V  V66  1  0.37935945  0.25209420  0.64014615  1
  V  V67  1  0.48682995  0.14372722  0.11639017  1
  V  V68  1  0.25581997  0.25154069  0.00586705  1
  V  V69  1  0.00761977  0.12150332  0.12719427  1
  V  V70  1  0.25316824  0.62554724  0.87598295  1
  V  V71  1  0.49768301  0.74958107  0.75900021  1
  V  V72  1  0.24765398  0.88715544  0.62742017  1
  Zn  Zn73  1  0.37341922  0.61909637  0.24144080  1
  Zn  Zn74  1  0.88481394  0.38532346  0.00997251  1
  Zn  Zn75  1  0.14152262  0.37615284  0.26010901  1
  Zn  Zn76  1  0.87178441  0.86747350  -0.00605970  1
  Zn  Zn77  1  0.13414879  0.88507343  0.74749604  1
  Zn  Zn78  1  0.37705459  0.01068061  0.87209575  1
  Zn  Zn79  1  0.66681182  0.14568743  -0.01934445  1
  Zn  Zn80  1  0.11559888  0.61311902  -0.01373835  1
  Zn  Zn81  1  0.86760773  0.73585918  0.11320361  1
  Zn  Zn82  1  0.19517293  0.18236897  0.19331497  1
  Zn  Zn83  1  0.17901197  0.19256983  0.67149405  1
  Zn  Zn84  1  0.18387757  0.68904071  0.18707231  1
  Zn  Zn85  1  0.18082226  0.68366227  0.68454153  1
  Zn  Zn86  1  0.68926668  0.17406360  0.16733124  1
  Zn  Zn87  1  0.67625235  0.18331943  0.71557322  1
  Zn  Zn88  1  0.68213142  0.68028389  0.18765120  1
  Zn  Zn89  1  0.68414211  0.69823761  0.66501975  1
  Zn  Zn90  1  0.34325898  0.31745914  0.30553938  1
  Zn  Zn91  1  0.30872211  0.31756230  0.81753626  1
  Zn  Zn92  1  0.29006879  0.84519772  0.33359418  1
  Zn  Zn93  1  0.31453311  0.80787304  0.80956297  1
  Zn  Zn94  1  0.81472995  0.30919039  0.31639083  1
  Zn  Zn95  1  0.82151144  0.33769444  0.79971727  1
  Zn  Zn96  1  0.81582944  0.81014969  0.30984348  1
  Zn  Zn97  1  0.80784605  0.80155483  0.77806767  1
  Zn  Zn98  1  0.19322924  0.43693953  0.44106236  1
  Zn  Zn99  1  0.22705391  0.45830018  0.95841670  1
  Zn  Zn100  1  0.18896251  0.94862777  0.44119125  1
  Zn  Zn101  1  0.22982657  0.95831282  0.95301902  1
  Zn  Zn102  1  0.68469183  0.42899893  0.43859555  1
  Zn  Zn103  1  0.68264728  0.43200884  0.93955811  1
  Zn  Zn104  1  0.69718096  0.94008651  0.43857311  1
  Zn  Zn105  1  0.68846521  0.92796957  0.93459503  1
  Zn  Zn106  1  0.31814917  0.05587086  0.06313521  1
  Zn  Zn107  1  0.31554154  0.06709414  0.55432292  1
  Zn  Zn108  1  0.34453844  0.56272448  0.05725994  1
  Zn  Zn109  1  0.30877409  0.56403150  0.55831575  1
  Zn  Zn110  1  0.81306558  0.05707718  0.06619190  1
  Zn  Zn111  1  0.80880914  0.06102773  0.56610197  1
  Zn  Zn112  1  0.81641685  0.54759402  0.06370937  1
  Zn  Zn113  1  0.81982854  0.56491203  0.56534832  1
  Zn  Zn114  1  0.45011248  0.41355428  0.19338026  1
  Zn  Zn115  1  0.44153505  0.44150495  0.69003457  1
  Zn  Zn116  1  0.46844640  0.98054371  0.23129219  1
  Zn  Zn117  1  0.43730922  0.94458556  0.69810032  1
  Zn  Zn118  1  0.93761657  0.43189045  0.19761815  1
  Zn  Zn119  1  0.93486196  0.43909128  0.69260511  1
  Zn  Zn120  1  0.93293408  0.93600648  0.19344668  1
  Zn  Zn121  1  0.93737172  0.94525957  0.68643155  1
  Zn  Zn122  1  0.07395216  0.06343811  0.32487065  1
  Zn  Zn123  1  0.05710770  0.06966090  0.81619717  1
  Zn  Zn124  1  0.06742914  0.55922844  0.31152926  1
  Zn  Zn125  1  0.06157153  0.56059290  0.80499552  1
  Zn  Zn126  1  0.52915281  0.10539668  0.33411963  1
  Zn  Zn127  1  0.56525328  0.06923023  0.82768481  1
  Zn  Zn128  1  0.55595634  0.56538185  0.30335924  1
  Zn  Zn129  1  0.56948726  0.56096574  0.81941179  1
  Zn  Zn130  1  0.43102995  0.19096997  0.44038548  1
  Zn  Zn131  1  0.43772515  0.19252290  0.93265355  1
  Zn  Zn132  1  0.43853230  0.68418576  0.43241164  1
  Zn  Zn133  1  0.43657999  0.68798446  0.94395930  1
  Zn  Zn134  1  0.94212544  0.18666629  0.44495647  1
  Zn  Zn135  1  0.94060262  0.18915906  0.93936557  1
  Zn  Zn136  1  0.93174654  0.69328454  0.44375521  1
  Zn  Zn137  1  0.92210681  0.68203144  0.92395416  1
  Zn  Zn138  1  0.06806915  0.30958042  0.06522730  1
  Zn  Zn139  1  0.06395692  0.30961613  0.55451404  1
  Zn  Zn140  1  0.03155681  0.77700096  0.03167055  1
  Zn  Zn141  1  0.06562134  0.80873398  0.56774459  1
  Zn  Zn142  1  0.56272545  0.30911551  0.04747283  1
  Zn  Zn143  1  0.56349229  0.31554563  0.57507801  1
  Zn  Zn144  1  0.51531868  0.85257823  0.09048973  1
  Zn  Zn145  1  0.61519815  0.83712981  0.54054636  1
  O  O146  1  0.11356325  0.13085215  0.12021567  1
  O  O147  1  0.12496991  0.13982082  0.59141427  1
  O  O148  1  0.11214781  0.60989218  0.13192080  1
  O  O149  1  0.10846449  0.63309765  0.60955561  1
  O  O150  1  0.59715455  0.09912457  0.13461054  1
  O  O151  1  0.61338955  0.12681198  0.62650761  1
  O  O152  1  0.61049103  0.60704804  0.13486395  1
  O  O153  1  0.61744847  0.62382339  0.61244622  1
  O  O154  1  0.36689742  0.39655827  0.39402332  1
  O  O155  1  0.37805439  0.38796729  0.86868651  1
  O  O156  1  0.39007211  0.87692594  0.37726495  1
  O  O157  1  0.39194527  0.86997219  0.86813459  1
  O  O158  1  0.88218722  0.37958665  0.38176129  1
  O  O159  1  0.89271503  0.37066900  0.89087714  1
  O  O160  1  0.88635469  0.87890424  0.37032211  1
  O  O161  1  0.88533936  0.87729616  0.87144602  1
  O  O162  1  0.26491688  -0.02760970  0.36414707  1
  O  O163  1  0.22505350  0.02260444  0.85571251  1
  O  O164  1  0.26353610  0.51384034  0.38394690  1
  O  O165  1  0.23673257  0.51661016  0.85472385  1
  O  O166  1  0.75533393  0.00803351  0.36807164  1
  O  O167  1  0.76466653  -0.00795925  0.86738076  1
  O  O168  1  0.75512155  0.50462320  0.36464459  1
  O  O169  1  0.74793563  0.50569970  0.87978412  1
  O  O170  1  0.24564676  0.48316025  0.12921892  1
  O  O171  1  0.25675469  0.48984156  0.63104371  1
  O  O172  1  0.24852943  0.99770287  0.13576036  1
  O  O173  1  0.25930666  0.98522797  0.61484972  1
  O  O174  1  0.74387508  0.49244462  0.13849208  1
  O  O175  1  0.73618794  0.51161793  0.61874277  1
  O  O176  1  0.74049035  0.98565427  0.13481303  1
  O  O177  1  0.73253648  1.01335078  0.64114747  1
  O  O178  1  0.00076531  0.36197621  0.26178899  1
  O  O179  1  -0.00665748  0.35902474  0.76563795  1
  O  O180  1  -0.00428104  0.85640050  0.24922420  1
  O  O181  1  0.00106186  0.87356852  0.75794825  1
  O  O182  1  0.45272745  0.34586298  0.27815531  1
  O  O183  1  0.49813676  0.38523649  0.76681330  1
  O  O184  1  0.51915296  0.87149716  0.24541903  1
  O  O185  1  0.50625520  0.86812678  0.75895850  1
  O  O186  1  0.47942022  0.10369985  0.22923618  1
  O  O187  1  0.49638148  0.12751570  0.74584868  1
  O  O188  1  0.49142063  0.62393652  0.23327587  1
  O  O189  1  0.49806785  0.63109808  0.74044313  1
  O  O190  1  0.99557572  0.12725900  0.24905944  1
  O  O191  1  0.98513987  0.14008501  0.75645886  1
  O  O192  1  0.99135523  0.62528910  0.24610268  1
  O  O193  1  1.00380280  0.63568962  0.74306346  1
  O  O194  1  0.35294265  0.24547897  -0.00396662  1
  O  O195  1  0.37291607  0.26474566  0.50741309  1
  O  O196  1  0.35252727  0.74824999  -0.00862540  1
  O  O197  1  0.37023894  0.74963769  0.50205966  1
  O  O198  1  0.87978323  0.24520241  0.01951288  1
  O  O199  1  0.87353814  0.25981991  0.49791720  1
  O  O200  1  0.90764671  0.75753817  0.00823147  1
  O  O201  1  0.86250814  0.74603005  0.51360097  1
  O  O202  1  0.14916851  0.26891558  0.49168068  1
  O  O203  1  0.12620967  0.24175380  0.98876841  1
  O  O204  1  0.13454127  0.74054319  0.49214001  1
  O  O205  1  0.12722636  0.73554481  0.97976719  1
  O  O206  1  0.62745962  0.24114132  0.51146084  1
  O  O207  1  0.63592678  0.25759131  0.97920960  1
  O  O208  1  0.62334285  0.73423185  0.48253141  1
  O  O209  1  0.69250123  0.66954755  1.00895270  1
  O  O210  1  0.50633305  0.24168300  0.12510684  1
  O  O211  1  0.48862177  0.24342687  0.62798516  1
  O  O212  1  0.51620705  0.74503770  0.12375664  1
  O  O213  1  0.49435769  0.74478342  0.62789041  1
  O  O214  1  0.99421746  0.24169711  0.13715253  1
  O  O215  1  1.00681693  0.26019337  0.64068193  1
  O  O216  1  1.00385887  0.73187025  0.13994335  1
  O  O217  1  0.98945359  0.73932977  0.61353837  1
  O  O218  1  -0.00571141  0.26124538  0.36805662  1
  O  O219  1  0.00990871  0.25605112  0.87438445  1
  O  O220  1  0.00086156  0.75731815  0.36682145  1
  O  O221  1  0.00697185  0.75998856  0.87719742  1
  O  O222  1  0.52102833  0.22486989  0.37013961  1
  O  O223  1  0.50135692  0.27273390  0.88380891  1
  O  O224  1  0.51396149  0.74227342  0.36787702  1
  O  O225  1  0.50074114  0.74659846  0.86146535  1
  O  O226  1  0.26200026  0.14967593  0.49683712  1
  O  O227  1  0.23288624  0.13658684  1.00297171  1
  O  O228  1  0.24478103  0.63596869  0.49255490  1
  O  O229  1  0.24681769  0.62808522  0.97847281  1
  O  O230  1  0.74224233  0.12347225  0.49291144  1
  O  O231  1  0.73548467  0.13538281  1.06469834  1
  O  O232  1  0.74021606  0.61514257  0.48566831  1
  O  O233  1  0.75743736  0.63750325  0.99382934  1
  O  O234  1  0.23793998  0.35719053  0.01291988  1
  O  O235  1  0.26341241  0.37804220  0.51460181  1
  O  O236  1  0.23218916  0.85484751  -0.00866912  1
  O  O237  1  0.24767353  0.85931835  0.51033089  1
  O  O238  1  0.75614580  0.37943684  0.02088534  1
  O  O239  1  0.76484296  0.37646853  0.49675239  1
  O  O240  1  0.74804769  0.86841698  0.01472862  1
  O  O241  1  0.71813599  0.87071412  0.51905025  1
  O  O242  1  0.12642906  0.49635996  0.23658180  1
  O  O243  1  0.13702104  0.50549251  0.73455270  1
  O  O244  1  0.13922486  1.00306712  0.25775426  1
  O  O245  1  0.09417778  1.00247770  0.72521426  1
  O  O246  1  0.63762266  0.49826831  0.24980588  1
  O  O247  1  0.63187705  0.51569373  0.73711100  1
  O  O248  1  0.63582354  0.98294932  0.24840008  1
  O  O249  1  0.63104262  1.00218807  0.75032649  1
  O  O250  1  0.35762569  -0.00064147  0.25969953  1
  O  O251  1  0.37320872  0.00734506  0.76037475  1
  O  O252  1  0.37783960  0.49587555  0.26669942  1
  O  O253  1  0.36833832  0.51659285  0.74367452  1
  O  O254  1  0.86796075  0.00653195  0.25906840  1
  O  O255  1  0.86819257  0.01257914  0.75614238  1
  O  O256  1  0.86728923  0.50617804  0.25902404  1
  O  O257  1  0.85409596  0.45406389  0.77457256  1
  O  O258  1  0.11261382  0.38532200  0.37449496  1
  O  O259  1  0.11988861  0.36135932  0.87653793  1
  O  O260  1  0.11113023  0.86175343  0.38004963  1
  O  O261  1  0.11235341  0.86446092  0.86596793  1
  O  O262  1  0.62927473  0.35303302  0.37064896  1
  O  O263  1  0.61006568  0.37596964  0.87443974  1
  O  O264  1  0.63178486  0.86009323  0.36582302  1
  O  O265  1  0.61424722  0.88033408  0.85899185  1
  O  O266  1  0.38104240  0.12178789  0.12973355  1
  O  O267  1  0.38526487  0.13895169  0.62246885  1
  O  O268  1  0.38624880  0.63274679  0.12866475  1
  O  O269  1  0.38924644  0.62082318  0.62635856  1
  O  O270  1  0.88810986  0.12571343  0.13716746  1
  O  O271  1  0.87204432  0.12425954  0.63959537  1
  O  O272  1  0.88379117  0.61713183  0.13354261  1
  O  O273  1  0.88662932  0.63386965  0.62399151  1
  O  O274  1  0.24298985  0.25590228  0.11500927  1
  O  O275  1  0.26255337  0.26596398  0.61976977  1
  O  O276  1  0.23669458  0.73783510  0.10339372  1
  O  O277  1  0.25083742  0.74743222  0.61238486  1
  O  O278  1  0.76079791  0.26815239  0.14375182  1
  O  O279  1  0.74301501  0.26803244  0.64509685  1
  O  O280  1  0.75190288  0.75777281  0.13502122  1
  O  O281  1  0.77780404  0.75299194  0.66027573  1
  O  O282  1  0.26867690  0.26801305  0.38392747  1
  O  O283  1  0.23576406  0.24682514  0.88158056  1
  O  O284  1  0.24225785  0.74876422  0.38590428  1
  O  O285  1  0.23764524  0.74042982  0.87219865  1
  O  O286  1  0.73844211  0.23457225  0.36401770  1
  O  O287  1  0.73620187  0.28377668  0.85149912  1
  O  O288  1  0.74775666  0.73475778  0.36668597  1
  O  O289  1  0.74584610  0.73643266  0.85878443  1
  O  O290  1  0.00992787  0.12625230  0.01212344  1
  O  O291  1  -0.01578542  0.10637928  0.51108673  1
  O  O292  1  -0.00172225  0.62381306  0.01812615  1
  O  O293  1  0.01168659  0.62239912  0.48787166  1
  O  O294  1  0.48986750  0.12685606  0.01535299  1
  O  O295  1  0.51241441  0.13057412  0.50864187  1
  O  O296  1  0.49371448  0.62508871  0.02015926  1
  O  O297  1  0.50773116  0.61939127  0.50487498  1
  O  O298  1  0.49450869  0.38708165  0.50695688  1
  O  O299  1  0.48918098  0.35677344  0.97724884  1
  O  O300  1  0.50263211  0.85707064  0.51538092  1
  O  O301  1  0.51076678  0.85863711  0.97823573  1
  O  O302  1  0.99357312  0.36962902  0.48375481  1
  O  O303  1  1.00704197  0.37312802  0.99085245  1
  O  O304  1  0.99849272  0.86742704  0.48771648  1
  O  O305  1  1.00300343  0.88808933  0.99008778  1
  O  O306  1  0.48676830  0.51221235  0.38518300  1
  O  O307  1  0.50333662  0.49851314  0.88327940  1
  O  O308  1  0.48656180  0.99945817  0.35438161  1
  O  O309  1  0.49881110  0.98951355  0.87897078  1
  O  O310  1  0.99058194  0.48444944  0.36347380  1
  O  O311  1  1.00776702  0.48254496  0.86795190  1
  O  O312  1  0.99249478  0.98192428  0.36831507  1
  O  O313  1  0.98650776  0.98888658  0.86867989  1
  O  O314  1  -0.00075451  0.00404262  0.12398879  1
  O  O315  1  0.03850388  0.00629593  0.66630186  1
  O  O316  1  0.00112378  0.50349241  0.12929543  1
  O  O317  1  -0.00652342  0.52001155  0.63732884  1
  O  O318  1  0.51682906  -0.03299153  0.12085903  1
  O  O319  1  0.50829140  0.01925857  0.63347357  1
  O  O320  1  0.51411052  0.47976871  0.12934843  1
  O  O321  1  0.51176057  0.51108534  0.61620197  1
  O  O322  1  0.25492435  0.35983096  0.23427567  1
  O  O323  1  0.25261294  0.38961881  0.73938161  1
  O  O324  1  0.24037198  0.87640659  0.23839131  1
  O  O325  1  0.25538842  0.87018577  0.73186909  1
  O  O326  1  0.75906186  0.38833650  0.24627272  1
  O  O327  1  0.76013352  0.33292357  0.67779965  1
  O  O328  1  0.74968249  0.88108490  0.24573103  1
  O  O329  1  0.73289838  0.88782872  0.75315319  1
  O  O330  1  0.25817829  0.10802406  0.24904676  1
  O  O331  1  0.24015915  0.14208578  0.75308919  1
  O  O332  1  0.25691377  0.64075523  0.26531912  1
  O  O333  1  0.25559541  0.61758828  0.74562855  1
  O  O334  1  0.75953227  0.11258570  0.25266017  1
  O  O335  1  0.76386410  0.12147099  0.75731075  1
  O  O336  1  0.75849272  0.61304854  0.25445077  1
  O  O337  1  0.70914854  0.67041093  0.82767883  1
  O  O338  1  0.38449489  0.11942954  0.36027155  1
  O  O339  1  0.34972895  0.13248934  0.87528054  1
  O  O340  1  0.36834836  0.61773751  0.37260543  1
  O  O341  1  0.35851097  0.63219710  0.86303589  1
  O  O342  1  0.86990466  0.11726472  0.36956328  1
  O  O343  1  0.88094766  0.11114036  0.87616608  1
  O  O344  1  0.87031984  0.61789109  0.36921240  1
  O  O345  1  0.87807058  0.60297850  0.85832448  1
  O  O346  1  0.12817484  0.38287911  0.13174728  1
  O  O347  1  0.14110834  0.37252871  0.62131552  1
  O  O348  1  0.10529782  0.87894022  0.10906034  1
  O  O349  1  0.14246830  0.86964147  0.62796296  1
  O  O350  1  0.63802985  0.37959308  0.12510281  1
  O  O351  1  0.62237371  0.39693877  0.62468665  1
  O  O352  1  0.63862044  0.87599038  0.13792042  1
  O  O353  1  0.60909243  0.90028929  0.64264197  1
  O  O354  1  0.11528940  0.24854423  0.24917489  1
  O  O355  1  0.11125584  0.24360116  0.76169701  1
  O  O356  1  0.10956663  0.73899033  0.26241497  1
  O  O357  1  0.12837619  0.75153430  0.76061045  1
  O  O358  1  0.62882837  0.23636354  0.24935259  1
  O  O359  1  0.60576789  0.25268631  0.76568629  1
  O  O360  1  0.63187996  0.75715698  0.25940894  1
  O  O361  1  0.61618002  0.76877792  0.73299242  1
  O  O362  1  0.36301043  0.22434502  0.24143319  1
  O  O363  1  0.36818723  0.25579590  0.73739872  1
  O  O364  1  0.36794539  0.80213487  0.18783974  1
  O  O365  1  0.38549078  0.73586858  0.74716445  1
  O  O366  1  0.88260861  0.23651497  0.24647626  1
  O  O367  1  0.88312881  0.24229332  0.75399137  1
  O  O368  1  0.88625877  0.73551050  0.24825362  1
  O  O369  1  0.89557049  0.75391436  0.73096066  1
  O  O370  1  0.38692827  0.49799212  0.50125243  1
  O  O371  1  0.33378899  0.48824922  0.98278183  1
  O  O372  1  0.37627694  1.00534299  0.47999079  1
  O  O373  1  0.33831199  0.99116583  0.97598328  1
  O  O374  1  0.87362348  0.49716244  0.48567032  1
  O  O375  1  0.87105908  0.49798411  0.97938302  1
  O  O376  1  0.86243071  0.99770109  0.48661362  1
  O  O377  1  0.86760679  0.99429234  0.98713313  1
  O  O378  1  0.12929249  0.00740945  0.00171309  1
  O  O379  1  0.11317335  -0.00718483  0.50758194  1
  O  O380  1  0.13497336  0.50361467  0.02042797  1
  O  O381  1  0.13154076  0.51608432  0.49751446  1
  O  O382  1  0.63434916  -0.00321572  0.01250956  1
  O  O383  1  0.62814625  0.01624535  0.52024771  1
  O  O384  1  0.63026065  0.49990374  0.01860633  1
  O  O385  1  0.61693912  0.50908988  0.49370197  1
  O  O386  1  0.36474277  0.37556541  0.12064360  1
  O  O387  1  0.37704307  0.36769722  0.62111302  1
  O  O388  1  0.38076066  0.84843323  0.13261001  1
  O  O389  1  0.37563853  0.87179844  0.62285632  1
  O  O390  1  0.87104333  0.36763185  0.12711077  1
  O  O391  1  0.88676950  0.38207566  0.60444981  1
  O  O392  1  0.85942254  0.87531352  0.12514174  1
  O  O393  1  0.88971316  0.87012416  0.61800692  1
  O  O394  1  0.10928423  0.12662322  0.41201715  1
  O  O395  1  0.12698998  0.13583633  0.88240027  1
  O  O396  1  0.13168958  0.63222141  0.38217933  1
  O  O397  1  0.13049363  0.63302087  0.86670664  1
  O  O398  1  0.63218503  0.12957115  0.39254564  1
  O  O399  1  0.62961695  0.14641543  0.87619857  1
  O  O400  1  0.63128112  0.63175357  0.37290065  1
  O  O401  1  0.64027519  0.65390668  0.86362098  1
