# generated using pymatgen
data_V73Zn73O256
_symmetry_space_group_name_H-M   'P 1'
_cell_length_a   16.90580631
_cell_length_b   16.89461961
_cell_length_c   16.88883053
_cell_angle_alpha   90.03857283
_cell_angle_beta   89.96048771
_cell_angle_gamma   90.21687717
_symmetry_Int_Tables_number   1
_chemical_formula_structural   V73Zn73O256
_chemical_formula_sum   'V73 Zn73 O256'
_cell_volume   4823.70314039
_cell_formula_units_Z   1
loop_
 _symmetry_equiv_pos_site_id
 _symmetry_equiv_pos_as_xyz
  1  'x, y, z'
loop_
 _atom_site_type_symbol
 _atom_site_label
 _atom_site_symmetry_multiplicity
 _atom_site_fract_x
 _atom_site_fract_y
 _atom_site_fract_z
 _atom_site_occupancy
  V  V0  1  0.74545421  0.74349799  -0.00576164  1
  V  V1  1  0.50518087  0.01030890  0.50379906  1
  V  V2  1  0.24860712  0.12777433  0.87823335  1
  V  V3  1  0.51014049  0.00650368  -0.00094099  1
  V  V4  1  0.24491729  0.48487499  0.22866594  1
  V  V5  1  0.36686200  0.48474013  0.38322566  1
  V  V6  1  0.87571784  0.86436329  0.49052822  1
  V  V7  1  0.74293349  0.88698927  0.13371479  1
  V  V8  1  0.87282386  0.87766956  -0.00355382  1
  V  V9  1  -0.00807058  0.37164375  0.87485013  1
  V  V10  1  0.62025515  0.74519634  0.86394784  1
  V  V11  1  0.01076750  -0.00447790  0.00643088  1
  V  V12  1  0.75163017  0.86580294  0.62555402  1
  V  V13  1  0.25480134  0.00584707  0.75132206  1
  V  V14  1  0.37573087  0.13093033  0.24612123  1
  V  V15  1  0.89036901  0.47389609  0.37169437  1
  V  V16  1  0.86551929  0.50304628  0.88133091  1
  V  V17  1  0.25498843  0.86793188  0.62379646  1
  V  V18  1  0.50891155  0.14006027  0.11977082  1
  V  V19  1  0.25846092  0.74903503  0.00757461  1
  V  V20  1  0.24166817  0.12216120  0.38986736  1
  V  V21  1  0.00251606  0.60438555  0.62302657  1
  V  V22  1  0.86787043  0.02598527  0.36937368  1
  V  V23  1  0.62766297  0.01003767  0.62309842  1
  V  V24  1  0.12673832  0.00148855  0.62016992  1
  V  V25  1  0.37122233  0.87670217  0.01297588  1
  V  V26  1  0.37979181  0.86883746  0.50223418  1
  V  V27  1  0.59853511  0.37758511  0.26145444  1
  V  V28  1  -0.01111638  0.11987832  0.13553518  1
  V  V29  1  0.61935054  0.87505475  0.75096785  1
  V  V30  1  0.38770555  0.65207682  0.74465749  1
  V  V31  1  0.73767268  0.49766257  0.73750202  1
  V  V32  1  0.48971921  0.12571704  0.63532870  1
  V  V33  1  0.37246727  0.00621662  0.87389943  1
  V  V34  1  0.10507959  0.28519456  0.37611094  1
  V  V35  1  0.50040286  0.25082544  0.75694456  1
  V  V36  1  0.60588863  0.49495356  0.59223827  1
  V  V37  1  0.25230676  -0.01346902  0.23959151  1
  V  V38  1  0.12908421  0.39355071  0.75183566  1
  V  V39  1  0.49704357  0.50315816  0.00867228  1
  V  V40  1  0.00262144  0.12931588  0.63644227  1
  V  V41  1  0.12405484  0.87039974  0.75102943  1
  V  V42  1  0.24284945  0.62836358  0.35098263  1
  V  V43  1  0.75676905  0.00869351  0.75051571  1
  V  V44  1  0.62658512  0.72317327  0.40198849  1
  V  V45  1  0.38193485  0.00185503  0.37402495  1
  V  V46  1  0.88960085  0.75532736  0.63663263  1
  V  V47  1  0.73031187  0.12720350  0.88338020  1
  V  V48  1  0.89266768  0.35344822  0.50373989  1
  V  V49  1  0.86960998  0.62813557  0.75088212  1
  V  V50  1  0.12814325  0.74962961  0.87635968  1
  V  V51  1  0.86163143  0.24522382  0.64291064  1
  V  V52  1  0.87606830  0.25772006  0.13245163  1
  V  V53  1  0.12129847  0.24649156  0.86732233  1
  V  V54  1  0.35813438  0.36962199  -0.00119304  1
  V  V55  1  0.74553972  0.25843623  -0.00239063  1
  V  V56  1  0.12914271  0.13126393  0.01343366  1
  V  V57  1  0.01074768  0.51307753  -0.00039373  1
  V  V58  1  0.00653750  0.00076969  0.49091276  1
  V  V59  1  0.24930010  0.39120741  0.62626011  1
  V  V60  1  0.51753209  0.37449491  0.87796469  1
  V  V61  1  0.36214184  0.25306600  0.62665172  1
  V  V62  1  0.35449813  0.25505666  0.12401153  1
  V  V63  1  0.25180675  0.62628932  0.86307243  1
  V  V64  1  0.88076381  0.01226532  0.87305135  1
  V  V65  1  0.37155966  0.49691698  0.86084538  1
  V  V66  1  0.61620360  0.62723518  0.00400545  1
  V  V67  1  0.87661908  0.74825638  0.12264943  1
  V  V68  1  -0.00639004  0.74723083  0.27299441  1
  V  V69  1  0.50005347  0.63872683  0.60028571  1
  V  V70  1  0.86029688  0.61754198  0.25129609  1
  V  V71  1  0.00216036  0.86897598  0.87217656  1
  V  V72  1  0.52398176  0.88107923  0.36409239  1
  Zn  Zn73  1  0.12582265  0.54274305  0.11342400  1
  Zn  Zn74  1  0.74731322  0.38077630  0.15016836  1
  Zn  Zn75  1  0.11516816  0.75261816  0.38567039  1
  Zn  Zn76  1  0.63148599  0.01085177  0.13459519  1
  Zn  Zn77  1  0.24525814  0.74950183  0.49684586  1
  Zn  Zn78  1  0.11238903  -0.12768113  0.24691985  1
  Zn  Zn79  1  0.63473711  0.50672381  0.14270389  1
  Zn  Zn80  1  0.49333170  0.87230265  0.87035708  1
  Zn  Zn81  1  0.63133797  0.36947636  0.72696740  1
  Zn  Zn82  1  0.18391826  0.18909902  0.20395750  1
  Zn  Zn83  1  0.18222850  0.18620247  0.68946085  1
  Zn  Zn84  1  0.18248772  0.69130349  0.19223737  1
  Zn  Zn85  1  0.18763877  0.68180466  0.68521297  1
  Zn  Zn86  1  0.68877207  0.20084989  0.18842309  1
  Zn  Zn87  1  0.68232169  0.18641632  0.69392664  1
  Zn  Zn88  1  0.68991967  0.69006135  0.17622817  1
  Zn  Zn89  1  0.70370188  0.66991774  0.57004793  1
  Zn  Zn90  1  0.28263227  0.30822943  0.30740953  1
  Zn  Zn91  1  0.31235737  0.31087666  0.80994732  1
  Zn  Zn92  1  0.32556093  0.80448255  0.31155010  1
  Zn  Zn93  1  0.31149747  0.82042223  0.81666276  1
  Zn  Zn94  1  0.83046541  0.29609520  0.31460861  1
  Zn  Zn95  1  0.80567923  0.31399287  0.81404422  1
  Zn  Zn96  1  0.79984737  0.80652972  0.30979636  1
  Zn  Zn97  1  0.80562109  0.81545513  0.81297098  1
  Zn  Zn98  1  0.19497716  0.44140315  0.43250425  1
  Zn  Zn99  1  0.18421452  0.44152658  0.93183376  1
  Zn  Zn100  1  0.18984474  0.93015980  0.42937481  1
  Zn  Zn101  1  0.18200728  0.92823057  1.06977378  1
  Zn  Zn102  1  0.71906984  0.39431847  0.40554232  1
  Zn  Zn103  1  0.70202169  0.44957785  0.97051293  1
  Zn  Zn104  1  0.69877768  0.94793626  0.44237407  1
  Zn  Zn105  1  0.69136937  0.93721379  0.93257513  1
  Zn  Zn106  1  0.31650171  0.06563989  0.06118539  1
  Zn  Zn107  1  0.31886435  0.05867516  0.56628206  1
  Zn  Zn108  1  0.30958480  0.56084656  0.04920950  1
  Zn  Zn109  1  0.33400781  0.55137341  0.56965732  1
  Zn  Zn110  1  0.81417011  0.06571473  0.05779944  1
  Zn  Zn111  1  0.83314448  0.05039766  0.57143322  1
  Zn  Zn112  1  0.82680501  0.54247180  0.08216837  1
  Zn  Zn113  1  0.78671855  0.50783961  0.52885535  1
  Zn  Zn114  1  0.42897200  0.43645230  0.19720697  1
  Zn  Zn115  1  0.44527375  0.43383936  0.68233379  1
  Zn  Zn116  1  0.44366048  0.94332419  0.18589376  1
  Zn  Zn117  1  0.43593503  0.93655908  0.68764845  1
  Zn  Zn118  1  0.95071639  0.44712199  0.19282751  1
  Zn  Zn119  1  0.93412550  0.43009842  0.69303966  1
  Zn  Zn120  1  0.93279530  0.93363445  0.19210971  1
  Zn  Zn121  1  0.94126890  0.93985125  0.68842694  1
  Zn  Zn122  1  0.06982730  0.05629267  0.31112157  1
  Zn  Zn123  1  0.06799739  0.05710030  0.81590417  1
  Zn  Zn124  1  0.05807692  0.56565262  0.29651870  1
  Zn  Zn125  1  0.05613001  0.56732993  0.81226041  1
  Zn  Zn126  1  0.55492057  0.08092620  0.31645042  1
  Zn  Zn127  1  0.56147065  0.06055814  0.80983370  1
  Zn  Zn128  1  0.57987760  0.51476743  0.36648092  1
  Zn  Zn129  1  0.55796715  0.56442763  0.81502664  1
  Zn  Zn130  1  0.39793225  0.21274490  0.42831869  1
  Zn  Zn131  1  0.43722765  0.19176642  0.93900753  1
  Zn  Zn132  1  0.42681272  0.68374918  0.40882226  1
  Zn  Zn133  1  0.43643518  0.68854000  0.93156261  1
  Zn  Zn134  1  0.95730480  0.18686332  0.43997397  1
  Zn  Zn135  1  0.93793567  0.19070946  0.94873128  1
  Zn  Zn136  1  0.88615214  0.64238815  0.47041708  1
  Zn  Zn137  1  0.93421929  0.68795487  0.93564397  1
  Zn  Zn138  1  0.04556855  0.30564839  0.04976060  1
  Zn  Zn139  1  0.07715651  0.31244486  0.56044063  1
  Zn  Zn140  1  0.08495861  0.76189931  0.08428775  1
  Zn  Zn141  1  0.06126946  0.81256367  0.55702903  1
  Zn  Zn142  1  0.56562318  0.32163006  0.06742296  1
  Zn  Zn143  1  0.55710857  0.29428200  0.55108982  1
  Zn  Zn144  1  0.57494768  0.83351691  0.04546514  1
  Zn  Zn145  1  0.56686884  0.81692450  0.56048377  1
  O  O146  1  0.12075981  0.13780702  0.11691793  1
  O  O147  1  0.12184371  0.10792820  0.62679330  1
  O  O148  1  0.11632504  0.65527982  0.11115026  1
  O  O149  1  0.10028921  0.62615768  0.64491199  1
  O  O150  1  0.61122024  0.13302342  0.12453854  1
  O  O151  1  0.61408134  0.11516003  0.63014088  1
  O  O152  1  0.62348496  0.62132449  0.10940279  1
  O  O153  1  0.60880519  0.60988622  0.60907946  1
  O  O154  1  0.34967388  0.38425944  0.36499870  1
  O  O155  1  0.37425181  0.37923491  0.88629367  1
  O  O156  1  0.38946952  0.88902636  0.38443016  1
  O  O157  1  0.37627686  0.89170715  0.88269065  1
  O  O158  1  0.89177361  0.36153554  0.38844092  1
  O  O159  1  0.88736126  0.38544183  0.86496231  1
  O  O160  1  0.86243944  0.86178516  0.39131241  1
  O  O161  1  0.88072862  0.88161596  0.87893712  1
  O  O162  1  0.26585636  0.00827489  0.36687365  1
  O  O163  1  0.25775250  0.01033196  0.86687992  1
  O  O164  1  0.24617755  0.50607463  0.35033704  1
  O  O165  1  0.25993299  0.51634556  0.88199060  1
  O  O166  1  0.76851150  0.01546556  0.38821666  1
  O  O167  1  0.75879591  0.01175036  0.87170153  1
  O  O168  1  0.79106535  0.47206531  0.34796285  1
  O  O169  1  0.76393149  0.49597768  0.87857476  1
  O  O170  1  0.24491160  0.51051048  0.12284707  1
  O  O171  1  0.26293224  0.48837312  0.64116797  1
  O  O172  1  0.25682816  0.99769710  0.13426107  1
  O  O173  1  0.24651557  0.99284121  0.63194397  1
  O  O174  1  0.73537728  0.47713250  0.08478091  1
  O  O175  1  0.71849194  0.49629432  0.63230925  1
  O  O176  1  0.74762773  0.99142550  0.11389187  1
  O  O177  1  0.74709524  1.00192195  0.63228902  1
  O  O178  1  0.05952561  0.36944603  0.20646044  1
  O  O179  1  0.01498598  0.37997179  0.76535795  1
  O  O180  1  -0.01028724  0.85132536  0.24729733  1
  O  O181  1  0.01034492  0.88404879  0.76218674  1
  O  O182  1  0.49895915  0.36484695  0.25092644  1
  O  O183  1  0.50693990  0.37258103  0.76577691  1
  O  O184  1  0.50530447  0.88857327  0.26554125  1
  O  O185  1  0.51487565  0.88601643  0.75156245  1
  O  O186  1  0.48802062  0.12150474  0.22945495  1
  O  O187  1  0.50167893  0.13277333  0.74430670  1
  O  O188  1  0.52096461  0.70690534  0.22532022  1
  O  O189  1  0.48782501  0.62683982  0.74926660  1
  O  O190  1  1.01312913  0.11555380  0.23207519  1
  O  O191  1  1.00573869  0.11222248  0.73595677  1
  O  O192  1  0.97809078  0.64202389  0.24185517  1
  O  O193  1  0.97790462  0.61445913  0.74388496  1
  O  O194  1  0.37091274  0.26196349  0.00604159  1
  O  O195  1  0.37377354  0.25768166  0.52821498  1
  O  O196  1  0.37104883  0.76869646  -0.01322729  1
  O  O197  1  0.37164672  0.76858347  0.48982076  1
  O  O198  1  0.86291182  0.23680850  0.01978381  1
  O  O199  1  0.88406584  0.25056549  0.50965026  1
  O  O200  1  0.86401098  0.75910251  -0.00131273  1
  O  O201  1  0.87676233  0.76338058  0.51793208  1
  O  O202  1  0.12885909  0.25858063  0.47251603  1
  O  O203  1  0.11973967  0.23569522  0.99025762  1
  O  O204  1  0.13174966  0.75283963  0.49790358  1
  O  O205  1  0.14891649  0.75968907  0.98447121  1
  O  O206  1  0.66925475  0.28778302  0.51038183  1
  O  O207  1  0.64471590  0.25845162  1.00839439  1
  O  O208  1  0.64146195  0.74637235  0.50340652  1
  O  O209  1  0.62635734  0.74665592  0.99483435  1
  O  O210  1  0.49246801  0.24095818  0.11282485  1
  O  O211  1  0.49076431  0.24231988  0.63291466  1
  O  O212  1  0.42002404  0.69113331  0.12699343  1
  O  O213  1  0.51037862  0.73696038  0.62106085  1
  O  O214  1  0.98576943  0.23276542  0.11860321  1
  O  O215  1  1.01598292  0.22897381  0.62280874  1
  O  O216  1  0.97403975  0.75891586  0.11084135  1
  O  O217  1  0.98927084  0.76560222  0.63825002  1
  O  O218  1  0.01086023  0.24905638  0.36086904  1
  O  O219  1  0.00306898  0.26391292  0.88408214  1
  O  O220  1  -0.01458417  0.74166104  0.37140282  1
  O  O221  1  0.01043968  0.76041714  0.88350007  1
  O  O222  1  0.55527867  0.23387731  0.37996069  1
  O  O223  1  0.49631460  0.26507436  0.87309315  1
  O  O224  1  0.53160886  0.77303691  0.38452043  1
  O  O225  1  0.51564396  0.75740913  0.88173425  1
  O  O226  1  0.25208707  0.10668253  0.48864396  1
  O  O227  1  0.23454970  0.11673377  0.99478647  1
  O  O228  1  0.22475604  0.60432892  0.53366248  1
  O  O229  1  0.27147091  0.64323376  0.97995462  1
  O  O230  1  0.70538459  0.23516240  0.46216197  1
  O  O231  1  0.74737245  0.12721419  0.98731355  1
  O  O232  1  0.78015686  0.61559886  0.50824430  1
  O  O233  1  0.73557018  0.64045991  1.00007694  1
  O  O234  1  0.25995465  0.38059688  -0.00284698  1
  O  O235  1  0.23185304  0.38628865  0.52667118  1
  O  O236  1  0.26446856  0.86917826  0.00555622  1
  O  O237  1  0.26615628  0.88284597  0.50637754  1
  O  O238  1  0.76532604  0.35432301  -0.02327795  1
  O  O239  1  0.78957813  0.39865147  0.50356140  1
  O  O240  1  0.75856229  0.87147225  0.00040853  1
  O  O241  1  0.76761908  0.88800372  0.51614832  1
  O  O242  1  0.13901999  0.51681228  0.23017273  1
  O  O243  1  0.12980460  0.49210512  0.76091543  1
  O  O244  1  0.14920199  0.99335655  0.25319048  1
  O  O245  1  0.13551473  0.98947322  0.74369264  1
  O  O246  1  0.61166403  0.48771034  0.25173087  1
  O  O247  1  0.63628377  0.50104191  0.76156984  1
  O  O248  1  0.65062888  1.04641674  0.25459926  1
  O  O249  1  0.63497385  0.99515085  0.74338063  1
  O  O250  1  0.37318814  0.00866202  0.25381971  1
  O  O251  1  0.36647744  -0.00363899  0.75937903  1
  O  O252  1  0.35128508  0.50165683  0.24659717  1
  O  O253  1  0.37977838  0.49371213  0.76101412  1
  O  O254  1  0.88377870  -0.00504395  0.27405614  1
  O  O255  1  0.86494023  -0.00554633  0.75908171  1
  O  O256  1  0.86206273  0.52668383  0.19940294  1
  O  O257  1  0.86139105  0.50082750  0.75694378  1
  O  O258  1  0.10965607  0.38812561  0.37950113  1
  O  O259  1  0.12156960  0.36630612  0.86722258  1
  O  O260  1  0.13119084  0.86682834  0.36040315  1
  O  O261  1  0.11724208  0.86730521  0.86653397  1
  O  O262  1  0.61166766  0.39794714  0.36830263  1
  O  O263  1  0.61447532  0.38161359  0.88658628  1
  O  O264  1  0.62198120  0.89897649  0.37336469  1
  O  O265  1  0.62262971  0.87078693  0.86698208  1
  O  O266  1  0.37957187  0.13930423  0.12515347  1
  O  O267  1  0.37963649  0.13419404  0.63116818  1
  O  O268  1  0.38909205  0.62568821  0.13999005  1
  O  O269  1  0.38677315  0.62829035  0.63638543  1
  O  O270  1  0.88633890  0.11956361  0.12820725  1
  O  O271  1  0.89098059  0.13450298  0.62267971  1
  O  O272  1  0.86050823  0.64906276  0.11269023  1
  O  O273  1  0.88444270  0.63958546  0.64030209  1
  O  O274  1  0.25631855  0.24499578  0.12316815  1
  O  O275  1  0.25927124  0.25164179  0.63839783  1
  O  O276  1  0.25884015  0.74057167  0.10538815  1
  O  O277  1  0.24778087  0.76512578  0.62257464  1
  O  O278  1  0.75844201  0.25941846  0.11414945  1
  O  O279  1  0.76289014  0.23474931  0.63058339  1
  O  O280  1  0.75191957  0.76823737  0.11281124  1
  O  O281  1  0.75594618  0.76335293  0.62928966  1
  O  O282  1  0.28915486  0.21722660  0.38239951  1
  O  O283  1  0.24155953  0.23472105  0.86946812  1
  O  O284  1  0.24828009  0.73533430  0.37748006  1
  O  O285  1  0.24631519  0.74544602  0.87582100  1
  O  O286  1  0.73170867  0.27057996  0.39455192  1
  O  O287  1  0.75782758  0.23176732  0.88106971  1
  O  O288  1  0.70582465  0.75650463  0.34911516  1
  O  O289  1  0.73292254  0.75941101  0.88431936  1
  O  O290  1  0.01209933  0.11457765  0.00909522  1
  O  O291  1  0.00261694  0.10500320  0.51284140  1
  O  O292  1  0.00069805  0.61296506  -0.01258508  1
  O  O293  1  -0.01337750  0.63468698  0.52648232  1
  O  O294  1  0.49254017  0.11551715  0.00900270  1
  O  O295  1  0.49154546  0.11174416  0.51829841  1
  O  O296  1  0.49820519  0.61205856  -0.00593978  1
  O  O297  1  0.48040189  0.63722077  0.50193840  1
  O  O298  1  0.50497523  0.26333477  0.44215815  1
  O  O299  1  0.49378381  0.38392826  0.99077334  1
  O  O300  1  0.49487614  0.88660122  0.49779815  1
  O  O301  1  0.49120853  0.89115164  0.99548498  1
  O  O302  1  0.99068850  0.37463598  0.51477819  1
  O  O303  1  1.00536704  0.38769110  0.98130104  1
  O  O304  1  0.98310077  0.88689923  0.50738593  1
  O  O305  1  0.98812364  0.88242470  0.99008479  1
  O  O306  1  0.46325265  0.50945343  0.36337269  1
  O  O307  1  0.49046599  0.48764251  0.88002958  1
  O  O308  1  0.50238185  0.99790245  0.38410698  1
  O  O309  1  0.49041526  1.00806090  0.88601364  1
  O  O310  1  0.97415401  0.48015106  0.30425620  1
  O  O311  1  0.99335512  0.49194054  0.87998989  1
  O  O312  1  0.99852587  1.00470219  0.38786479  1
  O  O313  1  0.99779475  0.99111470  0.88424479  1
  O  O314  1  -0.00775236  0.00594454  0.11594178  1
  O  O315  1  0.00800801  0.00396104  0.61810982  1
  O  O316  1  0.00300317  0.49851879  0.10234290  1
  O  O317  1  -0.00937231  0.50421691  0.62566566  1
  O  O318  1  0.50694091  0.01087975  0.11266830  1
  O  O319  1  0.50680539  0.00620834  0.62452691  1
  O  O320  1  0.49195599  0.49391409  0.10827179  1
  O  O321  1  0.50177308  0.51357618  0.61930434  1
  O  O322  1  0.24179278  0.38586139  0.22904496  1
  O  O323  1  0.23449350  0.37164120  0.75127677  1
  O  O324  1  0.27162254  0.88726140  0.25388674  1
  O  O325  1  0.24589187  0.88485504  0.74285883  1
  O  O326  1  0.74288067  0.35991686  0.26502259  1
  O  O327  1  0.74432905  0.38980957  0.75329771  1
  O  O328  1  0.75609191  0.87953693  0.23166126  1
  O  O329  1  0.74109352  0.88775916  0.74460306  1
  O  O330  1  0.26389426  0.11152426  0.25573634  1
  O  O331  1  0.24121927  0.11246175  0.75968307  1
  O  O332  1  0.25981097  0.63432023  0.25097930  1
  O  O333  1  0.27043939  0.63494707  0.75438069  1
  O  O334  1  0.70803013  0.10392072  0.25641324  1
  O  O335  1  0.74427245  0.11491258  0.76478072  1
  O  O336  1  0.76046525  0.63873007  0.24545712  1
  O  O337  1  0.76440478  0.60418500  0.74434249  1
  O  O338  1  0.39476108  0.11248147  0.36307942  1
  O  O339  1  0.36327337  0.11680000  0.88818150  1
  O  O340  1  0.33440092  0.60679423  0.40346349  1
  O  O341  1  0.37414362  0.61983464  0.85806006  1
  O  O342  1  0.88288897  0.12500857  0.37606232  1
  O  O343  1  0.88305752  0.11280448  0.87976622  1
  O  O344  1  0.87474635  0.60194579  0.35278994  1
  O  O345  1  0.87731036  0.61325496  0.86332205  1
  O  O346  1  0.10191427  0.35835482  0.14503941  1
  O  O347  1  0.13338014  0.37182122  0.64517738  1
  O  O348  1  0.12441028  0.85734950  0.13368727  1
  O  O349  1  0.13353941  0.88373813  0.63224325  1
  O  O350  1  0.62244057  0.38370181  0.14360572  1
  O  O351  1  0.59382592  0.38885931  0.61516490  1
  O  O352  1  0.63596167  0.88440825  0.12475988  1
  O  O353  1  0.63410901  0.88560762  0.63170248  1
  O  O354  1  0.16834065  0.25857242  0.29208730  1
  O  O355  1  0.11858437  0.24674687  0.76531798  1
  O  O356  1  0.10124998  0.74225298  0.26173439  1
  O  O357  1  0.13483303  0.76521821  0.75698796  1
  O  O358  1  0.64068004  0.27735512  0.25627453  1
  O  O359  1  0.60890532  0.25595458  0.74474497  1
  O  O360  1  0.58256163  0.74698718  0.21320798  1
  O  O361  1  0.62832804  0.76058283  0.76269931  1
  O  O362  1  0.36673727  0.24370312  0.23305497  1
  O  O363  1  0.39140915  0.25458634  0.74545592  1
  O  O364  1  0.40323140  0.72642970  0.30722700  1
  O  O365  1  0.38484464  0.75148677  0.75521928  1
  O  O366  1  0.85853085  0.22849053  0.22931125  1
  O  O367  1  0.87322812  0.25051333  0.74208208  1
  O  O368  1  0.87364863  0.74461548  0.23735123  1
  O  O369  1  0.86405181  0.73721563  0.75186007  1
  O  O370  1  0.36140079  0.48317218  0.48623325  1
  O  O371  1  0.38305031  0.49058206  0.99050796  1
  O  O372  1  0.38692051  0.99465079  0.49268904  1
  O  O373  1  0.38053207  0.99206452  0.99574790  1
  O  O374  1  0.90603923  0.50041701  0.46750730  1
  O  O375  1  0.88466809  0.50485935  0.98462717  1
  O  O376  1  0.88691848  0.99243708  0.48869286  1
  O  O377  1  0.88282848  0.99315596  0.99073630  1
  O  O378  1  0.11730373  0.00820091  0.00761177  1
  O  O379  1  0.11376046  -0.01628097  0.50707371  1
  O  O380  1  0.11639623  0.50509919  -0.00390423  1
  O  O381  1  0.17009618  0.55604615  0.51172154  1
  O  O382  1  0.61095519  -0.00306796  -0.00501322  1
  O  O383  1  0.61914086  -0.00263708  0.51448511  1
  O  O384  1  0.60549074  0.51126298  -0.00865310  1
  O  O385  1  0.61822121  0.49477063  0.49509146  1
  O  O386  1  0.37594821  0.36342028  0.11161940  1
  O  O387  1  0.36071621  0.36479975  0.63966908  1
  O  O388  1  0.38777978  0.87487723  0.11157528  1
  O  O389  1  0.37041814  0.88149998  0.61201291  1
  O  O390  1  0.88515728  0.36022836  0.14213528  1
  O  O391  1  0.88291835  0.35103979  0.62250190  1
  O  O392  1  0.86282053  0.87200966  0.11282723  1
  O  O393  1  0.86710940  0.87226410  0.63036347  1
  O  O394  1  0.14262078  0.12109880  0.37435235  1
  O  O395  1  0.12864914  0.12789691  0.88588821  1
  O  O396  1  0.13844371  0.62116298  0.36803913  1
  O  O397  1  0.13669407  0.63949022  0.85935083  1
  O  O398  1  0.58640613  0.16254677  0.39591493  1
  O  O399  1  0.63149276  0.12387128  0.87786870  1
  O  O400  1  0.60969849  0.62650155  0.38275462  1
  O  O401  1  0.61856485  0.63975300  0.88344433  1
