# generated using pymatgen
data_V73Zn73O256
_symmetry_space_group_name_H-M   'P 1'
_cell_length_a   16.88824479
_cell_length_b   16.86928605
_cell_length_c   16.85647719
_cell_angle_alpha   90.08193860
_cell_angle_beta   90.00972234
_cell_angle_gamma   89.83748560
_symmetry_Int_Tables_number   1
_chemical_formula_structural   V73Zn73O256
_chemical_formula_sum   'V73 Zn73 O256'
_cell_volume   4802.26186366
_cell_formula_units_Z   1
loop_
 _symmetry_equiv_pos_site_id
 _symmetry_equiv_pos_as_xyz
  1  'x, y, z'
loop_
 _atom_site_type_symbol
 _atom_site_label
 _atom_site_symmetry_multiplicity
 _atom_site_fract_x
 _atom_site_fract_y
 _atom_site_fract_z
 _atom_site_occupancy
  V  V0  1  0.12574333  0.00031113  0.62291852  1
  V  V1  1  0.86185318  0.01804195  0.38083645  1
  V  V2  1  0.87635176  0.73809663  0.13595453  1
  V  V3  1  -0.05644824  0.18282251  0.20577092  1
  V  V4  1  0.48751123  0.12652014  0.62026236  1
  V  V5  1  0.87116587  0.25277298  0.61479228  1
  V  V6  1  0.37837461  0.62462954  0.24539669  1
  V  V7  1  0.88263125  0.13288989  0.74952625  1
  V  V8  1  0.88880290  0.47827476  0.89213770  1
  V  V9  1  0.25172797  0.37339281  0.11838003  1
  V  V10  1  0.00007327  -0.00127333  0.48870043  1
  V  V11  1  0.51536104  0.50356778  0.00020461  1
  V  V12  1  0.37741066  0.37386828  0.00158010  1
  V  V13  1  0.49732102  0.00041534  0.00302097  1
  V  V14  1  0.75159726  0.00767621  0.74786267  1
  V  V15  1  0.63160266  -0.00008860  0.13041091  1
  V  V16  1  0.37889891  0.74695493  0.11830759  1
  V  V17  1  0.24111977  0.62408620  0.86619521  1
  V  V18  1  0.36983706  0.00740518  0.88018032  1
  V  V19  1  0.25594326  0.37088495  0.65040587  1
  V  V20  1  0.11210426  0.25521151  0.86932548  1
  V  V21  1  0.62875811  0.24264669  0.87533258  1
  V  V22  1  0.75201911  0.00816777  0.26259389  1
  V  V23  1  0.10435620  0.62283965  0.51379207  1
  V  V24  1  0.90714532  0.37598620  0.48681552  1
  V  V25  1  0.50324773  0.37553167  0.86974994  1
  V  V26  1  0.87607775  0.87253393  0.49452300  1
  V  V27  1  0.11995335  0.11490197  0.00833746  1
  V  V28  1  0.75186649  0.87238275  0.62637442  1
  V  V29  1  0.62608793  0.00474258  0.62165760  1
  V  V30  1  0.25568527  0.63120244  0.38743212  1
  V  V31  1  0.48667742  -0.01059273  0.48707138  1
  V  V32  1  0.49389812  0.24378859  0.74788493  1
  V  V33  1  0.86965376  0.58985653  0.73921193  1
  V  V34  1  0.88895802  0.51891322  0.37752449  1
  V  V35  1  0.12119026  0.86633021  0.76195893  1
  V  V36  1  0.12573193  0.13679268  0.48335446  1
  V  V37  1  0.23726318  0.74106846  -0.00835951  1
  V  V38  1  0.75468321  0.61053975  0.89536643  1
  V  V39  1  0.76047626  0.25375053  0.01277962  1
  V  V40  1  0.25143428  0.86573897  0.61794479  1
  V  V41  1  0.12130830  0.51443422  0.10251879  1
  V  V42  1  0.48627924  0.13542215  0.12508585  1
  V  V43  1  0.62405785  0.51310596  0.61183445  1
  V  V44  1  0.25178936  0.50597347  0.24661392  1
  V  V45  1  0.74003605  0.74434406  0.48693144  1
  V  V46  1  0.11326356  0.37476419  0.25285534  1
  V  V47  1  0.63520395  0.37494440  0.73851246  1
  V  V48  1  0.49285765  0.52119780  0.49297224  1
  V  V49  1  0.36712670  0.36626500  0.50175263  1
  V  V50  1  0.60544010  0.87431855  0.26216368  1
  V  V51  1  0.51257480  0.62561783  0.11720312  1
  V  V52  1  0.11310727  0.75378041  0.37066297  1
  V  V53  1  0.49756178  0.37827731  0.37701059  1
  V  V54  1  0.00477952  0.13437885  0.62696641  1
  V  V55  1  0.63317014  0.36683280  0.24918476  1
  V  V56  1  0.39525394  0.63774144  0.75027442  1
  V  V57  1  0.23626842  0.87172283  0.12895679  1
  V  V58  1  -0.04301517  0.75908867  0.73961781  1
  V  V59  1  0.37770259  0.87367616  -0.00504363  1
  V  V60  1  0.24742857  -0.00592295  0.26626567  1
  V  V61  1  0.86816141  0.88288497  0.02891740  1
  V  V62  1  -0.03325578  0.89046709  0.86777588  1
  V  V63  1  0.63536808  0.13713935  0.48701774  1
  V  V64  1  0.27102724  0.14438107  0.37665116  1
  V  V65  1  0.39020883  0.75276468  0.62168317  1
  V  V66  1  0.24584651  0.00692970  0.75942698  1
  V  V67  1  0.74974028  0.52313934  0.25690005  1
  V  V68  1  0.76063132  0.12524222  0.87610714  1
  V  V69  1  -0.00238956  -0.00347740  0.01138925  1
  V  V70  1  0.48631665  0.25138149  0.24823907  1
  V  V71  1  0.25386212  0.23138069  -0.00468112  1
  V  V72  1  0.37515224  0.50238614  0.86380855  1
  Zn  Zn73  1  0.74809242  0.76241887  0.00404072  1
  Zn  Zn74  1  0.73657898  0.39567890  0.11864655  1
  Zn  Zn75  1  0.55914420  0.83315486  0.79688775  1
  Zn  Zn76  1  0.14016505  0.49823903  0.61965182  1
  Zn  Zn77  1  0.62806856  0.12694571  0.00540680  1
  Zn  Zn78  1  0.94859301  0.68840669  0.28856161  1
  Zn  Zn79  1  0.36443137  0.13066564  0.74918396  1
  Zn  Zn80  1  0.74308468  0.36426049  0.59198675  1
  Zn  Zn81  1  0.61546946  0.72893514  0.89467747  1
  Zn  Zn82  1  0.12649612  0.15800575  0.26197735  1
  Zn  Zn83  1  0.18676513  0.19517745  0.68476007  1
  Zn  Zn84  1  0.18397061  0.69295185  0.18575820  1
  Zn  Zn85  1  0.18831769  0.68537880  0.69260442  1
  Zn  Zn86  1  0.67977030  0.18503648  0.19352522  1
  Zn  Zn87  1  0.68579083  0.18653408  0.68165032  1
  Zn  Zn88  1  0.68927908  0.70098203  0.18527546  1
  Zn  Zn89  1  0.68894050  0.68886491  0.69016140  1
  Zn  Zn90  1  0.31336917  0.32182593  0.31132474  1
  Zn  Zn91  1  0.30932866  0.30792626  0.82161337  1
  Zn  Zn92  1  0.31816007  0.80990759  0.31352057  1
  Zn  Zn93  1  0.31151634  0.81526476  0.81067159  1
  Zn  Zn94  1  0.81813030  0.31797807  0.32053555  1
  Zn  Zn95  1  0.82073407  0.30900810  0.81053769  1
  Zn  Zn96  1  0.80188124  0.82620901  0.30730657  1
  Zn  Zn97  1  0.74167752  0.80616194  0.81470316  1
  Zn  Zn98  1  0.18642747  0.44316806  0.43478387  1
  Zn  Zn99  1  0.18876941  0.43658838  0.92840530  1
  Zn  Zn100  1  0.18810747  0.93463118  0.43584304  1
  Zn  Zn101  1  0.18698020  0.93117841  0.94350678  1
  Zn  Zn102  1  0.67986295  0.45157272  0.42470108  1
  Zn  Zn103  1  0.69692508  0.43071237  0.93149401  1
  Zn  Zn104  1  0.67686278  0.93610760  0.44091191  1
  Zn  Zn105  1  0.68613030  0.94272822  0.93886190  1
  Zn  Zn106  1  0.31056579  0.05330750  0.09141384  1
  Zn  Zn107  1  0.30690898  0.05983680  0.55741063  1
  Zn  Zn108  1  0.31705029  0.55942257  0.05428622  1
  Zn  Zn109  1  0.32183978  0.55569140  0.57396440  1
  Zn  Zn110  1  0.81723376  0.07466349  0.07414041  1
  Zn  Zn111  1  0.81284581  0.06900582  0.56093972  1
  Zn  Zn112  1  0.82528671  0.55953259  0.06983019  1
  Zn  Zn113  1  0.80664333  0.55418629  0.55377702  1
  Zn  Zn114  1  0.44102491  0.44021332  0.18440465  1
  Zn  Zn115  1  0.44097625  0.44026822  0.67881826  1
  Zn  Zn116  1  0.42508401  0.94266974  0.19020140  1
  Zn  Zn117  1  0.43314930  0.93884091  0.68076065  1
  Zn  Zn118  1  0.96028952  0.50920629  0.20736693  1
  Zn  Zn119  1  0.92419537  0.45121180  0.66486461  1
  Zn  Zn120  1  1.03066369  0.85776279  0.16761842  1
  Zn  Zn121  1  0.93494997  0.94489868  0.68013224  1
  Zn  Zn122  1  0.02762215  0.00248159  0.25971238  1
  Zn  Zn123  1  0.06547974  0.06910259  0.82291888  1
  Zn  Zn124  1  0.07705151  0.56112530  0.32119830  1
  Zn  Zn125  1  0.05127458  0.56921897  0.92475830  1
  Zn  Zn126  1  0.55436325  0.06569680  0.31240059  1
  Zn  Zn127  1  0.54527497  0.02865354  0.79584612  1
  Zn  Zn128  1  0.55975034  0.55377175  0.30221457  1
  Zn  Zn129  1  0.57410415  0.56055244  0.80596126  1
  Zn  Zn130  1  0.44671292  0.19108299  0.43582939  1
  Zn  Zn131  1  0.43830820  0.18647873  0.93702075  1
  Zn  Zn132  1  0.43395569  0.71227286  0.42682723  1
  Zn  Zn133  1  0.44159473  0.69207695  0.93052818  1
  Zn  Zn134  1  0.94547958  0.19230250  0.42389877  1
  Zn  Zn135  1  0.94239633  0.18859522  0.94673714  1
  Zn  Zn136  1  0.93732969  0.68867621  0.46108305  1
  Zn  Zn137  1  0.91157505  0.70370890  0.91858890  1
  Zn  Zn138  1  0.09949310  0.26067306  0.11293561  1
  Zn  Zn139  1  0.07568478  0.31555525  0.56967327  1
  Zn  Zn140  1  0.04654785  0.69311119  0.06110931  1
  Zn  Zn141  1  0.06218913  0.80820257  0.56250938  1
  Zn  Zn142  1  0.56875704  0.31533854  0.06351157  1
  Zn  Zn143  1  0.55333441  0.30789432  0.55917910  1
  Zn  Zn144  1  0.56745300  0.81515816  0.05999823  1
  Zn  Zn145  1  0.56697670  0.81476383  0.56193649  1
  O  O146  1  0.13013440  0.13314456  0.10728910  1
  O  O147  1  0.12333233  0.11583865  0.61797898  1
  O  O148  1  0.12718332  0.61917703  0.11561002  1
  O  O149  1  0.13690880  0.62112942  0.61477903  1
  O  O150  1  0.61189491  0.11471695  0.12544689  1
  O  O151  1  0.61533105  0.12116823  0.61540888  1
  O  O152  1  0.60933650  0.62866906  0.13304608  1
  O  O153  1  0.63177849  0.61030015  0.62816505  1
  O  O154  1  0.38894962  0.37957111  0.38006106  1
  O  O155  1  0.38689567  0.38206211  0.87879279  1
  O  O156  1  0.41024149  0.80779679  0.37441828  1
  O  O157  1  0.36570619  0.88846061  0.88722129  1
  O  O158  1  0.89831615  0.37074204  0.38478984  1
  O  O159  1  0.87030953  0.37775179  0.88155554  1
  O  O160  1  0.86634795  0.88964159  0.39226509  1
  O  O161  1  0.87053134  0.90008158  0.86209101  1
  O  O162  1  0.26562217  -0.01855340  0.36615567  1
  O  O163  1  0.25023638  -0.00207874  0.86551635  1
  O  O164  1  0.24738636  0.51586564  0.35307912  1
  O  O165  1  0.26537516  0.51298628  0.87972293  1
  O  O166  1  0.75262552  0.00139084  0.37553765  1
  O  O167  1  0.74363837  0.01927560  0.86427266  1
  O  O168  1  0.76269081  0.50088753  0.36469141  1
  O  O169  1  0.76089304  0.50365901  0.87576017  1
  O  O170  1  0.24452119  0.49874494  0.12338044  1
  O  O171  1  0.25602521  0.48359616  0.62838652  1
  O  O172  1  0.23118980  0.96960692  0.10462056  1
  O  O173  1  0.24265337  0.99179258  0.63488005  1
  O  O174  1  0.76848688  0.49976897  0.15079117  1
  O  O175  1  0.72539306  0.48050066  0.59782260  1
  O  O176  1  0.73527197  1.01016363  0.13489941  1
  O  O177  1  0.74254268  1.00423003  0.62749900  1
  O  O178  1  0.01780936  0.39727239  0.24154514  1
  O  O179  1  0.00552326  0.36991733  0.73765628  1
  O  O180  1  -0.00219947  0.89813950  0.26450083  1
  O  O181  1  0.00579426  0.88784545  0.75545569  1
  O  O182  1  0.50349529  0.37317434  0.25460644  1
  O  O183  1  0.50450901  0.36604440  0.75488552  1
  O  O184  1  0.50404802  0.88721604  0.24563618  1
  O  O185  1  0.51133805  0.92407289  0.75737999  1
  O  O186  1  0.49852734  0.14138498  0.23937932  1
  O  O187  1  0.49849104  0.12661533  0.73830702  1
  O  O188  1  0.48616787  0.61187967  0.23189215  1
  O  O189  1  0.49473113  0.62796735  0.75398808  1
  O  O190  1  1.02416514  0.11109750  0.23450407  1
  O  O191  1  0.99330903  0.11441493  0.73872610  1
  O  O192  1  1.00935521  0.60679447  0.24371902  1
  O  O193  1  0.95681860  0.65318664  0.74998629  1
  O  O194  1  0.36596627  0.26222634  -0.00880503  1
  O  O195  1  0.38352168  0.26686119  0.49751066  1
  O  O196  1  0.37211398  0.75687929  0.00180205  1
  O  O197  1  0.37620298  0.74330851  0.52430963  1
  O  O198  1  0.85979069  0.24251751  0.00447146  1
  O  O199  1  0.89615818  0.26335658  0.50362956  1
  O  O200  1  0.87388705  0.77203220  0.01577862  1
  O  O201  1  0.86828725  0.76943435  0.50216123  1
  O  O202  1  0.12498013  0.23429388  0.50350028  1
  O  O203  1  0.14179001  0.24095463  1.00013580  1
  O  O204  1  0.11794578  0.73146278  0.49528124  1
  O  O205  1  0.13962680  0.74417851  0.99885803  1
  O  O206  1  0.61859878  0.23696283  0.50214782  1
  O  O207  1  0.63164698  0.25022217  0.98864912  1
  O  O208  1  0.63981139  0.75133844  0.50417083  1
  O  O209  1  0.63647152  0.74727573  1.00606804  1
  O  O210  1  0.50593407  0.24372529  0.13144513  1
  O  O211  1  0.49973811  0.23558248  0.63464581  1
  O  O212  1  0.49122151  0.73419277  0.11113633  1
  O  O213  1  0.48968164  0.76570365  0.63162057  1
  O  O214  1  0.98969444  0.24123742  0.13724600  1
  O  O215  1  0.99968602  0.23875183  0.62219462  1
  O  O216  1  0.98542884  0.76091702  0.12885872  1
  O  O217  1  0.99158011  0.77245085  0.64387415  1
  O  O218  1  -0.02783838  0.21740703  0.31659583  1
  O  O219  1  0.01192034  0.25280828  0.88726377  1
  O  O220  1  0.00797017  0.73657235  0.37868466  1
  O  O221  1  -0.02307257  0.78007035  0.85204832  1
  O  O222  1  0.49699275  0.26334780  0.35792087  1
  O  O223  1  0.50955674  0.25665505  0.87079935  1
  O  O224  1  0.55676645  0.71341324  0.36929292  1
  O  O225  1  0.50741983  0.76198755  0.87654773  1
  O  O226  1  0.23739125  0.11381704  0.48100983  1
  O  O227  1  0.25243271  0.12984022  1.01016087  1
  O  O228  1  0.27355308  0.61788402  0.48393237  1
  O  O229  1  0.26111988  0.63495842  0.98447968  1
  O  O230  1  0.73513583  0.12499856  0.50076985  1
  O  O231  1  0.74973012  0.13189370  0.99232974  1
  O  O232  1  0.76426130  0.64766223  0.50874448  1
  O  O233  1  0.75179138  0.61218120  0.99615064  1
  O  O234  1  0.26172586  0.38055872  0.00490431  1
  O  O235  1  0.26820133  0.38037618  0.48617505  1
  O  O236  1  0.25506145  0.85736255  0.00355115  1
  O  O237  1  0.24664514  0.87890187  0.51962286  1
  O  O238  1  0.74554650  0.36059849  0.00822047  1
  O  O239  1  0.75575957  0.36158592  0.46784822  1
  O  O240  1  0.76858317  0.89007172  0.00204464  1
  O  O241  1  0.75588498  0.87342819  0.50687204  1
  O  O242  1  0.14203170  0.49646629  0.23354450  1
  O  O243  1  0.05634309  0.42558921  0.74491949  1
  O  O244  1  0.14832779  0.99182927  0.24916308  1
  O  O245  1  0.13172194  0.99671770  0.74405224  1
  O  O246  1  0.64386310  0.49155049  0.25808713  1
  O  O247  1  0.61650365  0.48201583  0.72895841  1
  O  O248  1  0.62071114  0.99899538  0.24154183  1
  O  O249  1  0.64326400  1.02042329  0.73509139  1
  O  O250  1  0.33755578  0.01401206  0.20803641  1
  O  O251  1  0.35665742  -0.00164661  0.75891430  1
  O  O252  1  0.36366548  0.51290641  0.23548455  1
  O  O253  1  0.38921414  0.51193901  0.75783534  1
  O  O254  1  0.85876148  0.00447382  0.27191413  1
  O  O255  1  0.86268095  0.02086888  0.73612578  1
  O  O256  1  0.86577528  0.50049072  0.26992155  1
  O  O257  1  0.87665826  0.48911333  0.76806623  1
  O  O258  1  0.13536216  0.38469510  0.35135588  1
  O  O259  1  0.13423531  0.35510454  0.87796934  1
  O  O260  1  0.12593348  0.85221125  0.38851629  1
  O  O261  1  0.12294873  0.87703008  0.86259716  1
  O  O262  1  0.60867631  0.37976222  0.36110620  1
  O  O263  1  0.61878768  0.36860667  0.86069416  1
  O  O264  1  0.61550272  0.88069739  0.36338933  1
  O  O265  1  0.65239352  0.86129948  0.87236804  1
  O  O266  1  0.38764439  0.13622537  0.11664939  1
  O  O267  1  0.38429989  0.11966705  0.62672501  1
  O  O268  1  0.38306999  0.62906088  0.12320605  1
  O  O269  1  0.37336261  0.63799567  0.64231161  1
  O  O270  1  0.88375119  0.12119073  0.15187090  1
  O  O271  1  0.88646830  0.13504833  0.62477166  1
  O  O272  1  0.88673730  0.63793716  0.12738337  1
  O  O273  1  0.88557811  0.56380339  0.63696836  1
  O  O274  1  0.25328160  0.27094783  0.10775993  1
  O  O275  1  0.25779592  0.26729714  0.63564240  1
  O  O276  1  0.25997351  0.74756280  0.10876053  1
  O  O277  1  0.25158633  0.76369720  0.63292153  1
  O  O278  1  0.74042663  0.24254304  0.11231472  1
  O  O279  1  0.76581362  0.24964217  0.61912287  1
  O  O280  1  0.76991634  0.74696591  0.12080203  1
  O  O281  1  0.74564585  0.77103301  0.62050891  1
  O  O282  1  0.25669808  0.24332725  0.37069347  1
  O  O283  1  0.24660156  0.24339782  0.89168749  1
  O  O284  1  0.24274080  0.73401376  0.37132450  1
  O  O285  1  0.25450782  0.73959146  0.88246564  1
  O  O286  1  0.74892259  0.29687339  0.41834883  1
  O  O287  1  0.74546524  0.24450466  0.88282171  1
  O  O288  1  0.75163303  0.75793886  0.38740627  1
  O  O289  1  0.77990299  0.72361276  0.89032728  1
  O  O290  1  0.00780951  0.10916583  0.00557176  1
  O  O291  1  0.01132590  0.11992013  0.50477761  1
  O  O292  1  -0.00869716  0.64635507  -0.02298475  1
  O  O293  1  0.00472662  0.61760794  0.51940138  1
  O  O294  1  0.50322084  0.12395337  0.01082317  1
  O  O295  1  0.50219118  0.12214157  0.51177053  1
  O  O296  1  0.50164237  0.61212626  0.00275177  1
  O  O297  1  0.48384091  0.61975386  0.48372850  1
  O  O298  1  0.49618396  0.37601862  0.48534687  1
  O  O299  1  0.49751647  0.38108166  0.99084921  1
  O  O300  1  0.50721246  0.89137768  0.50228505  1
  O  O301  1  0.48662296  0.88844610  1.01283663  1
  O  O302  1  1.00428874  0.38553156  0.50960403  1
  O  O303  1  0.92808361  0.36887359  1.06774106  1
  O  O304  1  0.98572900  0.88629544  0.50791372  1
  O  O305  1  0.97652487  0.88538494  0.98097350  1
  O  O306  1  0.50191658  0.49251698  0.38249355  1
  O  O307  1  0.50010619  0.49215272  0.87937745  1
  O  O308  1  0.49253415  1.00717377  0.38762842  1
  O  O309  1  0.48903511  1.00978158  0.89638359  1
  O  O310  1  0.98861056  0.50501638  0.37575659  1
  O  O311  1  0.99006661  0.48691027  0.87914142  1
  O  O312  1  0.98275451  1.00917206  0.38607805  1
  O  O313  1  1.00352423  0.99248907  0.88531497  1
  O  O314  1  0.02055379  -0.03028729  0.10401898  1
  O  O315  1  0.00909062  0.01048359  0.61354822  1
  O  O316  1  0.02333028  0.49708005  0.11279262  1
  O  O317  1  0.03969546  0.48979266  0.68848443  1
  O  O318  1  0.49792988  0.01701008  0.11906118  1
  O  O319  1  0.50670555  0.01379316  0.61944616  1
  O  O320  1  0.49852100  0.50859000  0.10781314  1
  O  O321  1  0.51208563  0.49769660  0.60581647  1
  O  O322  1  0.25991769  0.39091746  0.23301226  1
  O  O323  1  0.26128855  0.38056077  0.75100048  1
  O  O324  1  0.26210005  0.87727460  0.23645532  1
  O  O325  1  0.23555085  0.88416639  0.74612487  1
  O  O326  1  0.73769266  0.36666487  0.24971114  1
  O  O327  1  0.73413819  0.36554631  0.74837645  1
  O  O328  1  0.72950186  0.90060323  0.25417578  1
  O  O329  1  0.75501708  0.89475952  0.73268009  1
  O  O330  1  0.23667693  0.11225720  0.27944617  1
  O  O331  1  0.24687096  0.10949714  0.74321566  1
  O  O332  1  0.25877513  0.61733402  0.24179289  1
  O  O333  1  0.26307960  0.63109159  0.76341048  1
  O  O334  1  0.73230443  0.10785726  0.25773205  1
  O  O335  1  0.76066045  0.12914073  0.75547033  1
  O  O336  1  0.74046453  0.62179251  0.25483246  1
  O  O337  1  0.77451362  0.62586598  0.73866523  1
  O  O338  1  0.36946215  0.12911407  0.37711017  1
  O  O339  1  0.37404916  0.11191568  0.87329383  1
  O  O340  1  0.36727161  0.63253308  0.35157233  1
  O  O341  1  0.37564062  0.61982702  0.86409543  1
  O  O342  1  0.86133594  0.11587330  0.39385626  1
  O  O343  1  0.86973797  0.13649930  0.86419207  1
  O  O344  1  0.88241717  0.62130920  0.38154435  1
  O  O345  1  0.86605182  0.60078378  0.86625075  1
  O  O346  1  0.14361712  0.38792002  0.12506178  1
  O  O347  1  0.15022249  0.37864910  0.62372665  1
  O  O348  1  0.14052303  0.84371463  0.13266640  1
  O  O349  1  0.13075954  0.88509743  0.63198835  1
  O  O350  1  0.62079436  0.38114065  0.14252281  1
  O  O351  1  0.62462798  0.36460735  0.63203894  1
  O  O352  1  0.61501097  0.89782082  0.12900349  1
  O  O353  1  0.64030915  0.89402235  0.61645840  1
  O  O354  1  0.12843281  0.27129877  0.23071485  1
  O  O355  1  0.12320833  0.23563588  0.76961200  1
  O  O356  1  0.12366866  0.74086881  0.26936471  1
  O  O357  1  0.12134400  0.76690851  0.74691084  1
  O  O358  1  0.61335393  0.26316450  0.24992135  1
  O  O359  1  0.61565007  0.25591191  0.75448114  1
  O  O360  1  0.62481935  0.77730899  0.23691795  1
  O  O361  1  0.64300109  0.75445904  0.76730443  1
  O  O362  1  0.38815011  0.26310936  0.24090488  1
  O  O363  1  0.39023229  0.24505693  0.76536881  1
  O  O364  1  0.36744580  0.73322481  0.22879283  1
  O  O365  1  0.37894567  0.74286665  0.74962373  1
  O  O366  1  0.86390830  0.24206426  0.25150669  1
  O  O367  1  0.87721367  0.24226347  0.73337422  1
  O  O368  1  0.86996267  0.75683766  0.24250231  1
  O  O369  1  0.86130566  0.77885744  0.73857441  1
  O  O370  1  0.39287278  0.48910666  0.50397753  1
  O  O371  1  0.38884201  0.49241734  0.98475449  1
  O  O372  1  0.38760362  0.99773045  0.50904383  1
  O  O373  1  0.37530268  0.99430684  0.99937114  1
  O  O374  1  0.86911155  0.48297900  0.48319131  1
  O  O375  1  0.87672537  0.49431208  0.99323125  1
  O  O376  1  0.87987102  0.99782297  0.49566239  1
  O  O377  1  0.88864123  0.99986384  1.01684994  1
  O  O378  1  0.11940803  0.00953756  -0.00659860  1
  O  O379  1  0.11823112  0.00411212  0.50452262  1
  O  O380  1  0.12919676  0.50699880  -0.00147987  1
  O  O381  1  0.13118776  0.51909805  0.49903946  1
  O  O382  1  0.61548202  0.00332783  0.01165999  1
  O  O383  1  0.61400744  0.01345620  0.50667389  1
  O  O384  1  0.61317113  0.48939459  -0.00671987  1
  O  O385  1  0.60880440  0.50526455  0.50037346  1
  O  O386  1  0.36824139  0.38731660  0.11020400  1
  O  O387  1  0.36887611  0.37726940  0.61269299  1
  O  O388  1  0.36512124  0.86326900  0.11379827  1
  O  O389  1  0.36028557  0.86426047  0.63678280  1
  O  O390  1  0.88597100  0.37546922  0.12666639  1
  O  O391  1  0.86893504  0.37118069  0.60257661  1
  O  O392  1  0.87304565  0.87861440  0.12692195  1
  O  O393  1  0.85835461  0.89328340  0.60932883  1
  O  O394  1  0.11841385  0.13345151  0.38365226  1
  O  O395  1  0.12372944  0.13769168  0.89629228  1
  O  O396  1  0.13943126  0.62897855  0.39271945  1
  O  O397  1  0.14280793  0.61476712  0.86572539  1
  O  O398  1  0.61602467  0.12491542  0.38811713  1
  O  O399  1  0.63499620  0.13747543  0.87313090  1
  O  O400  1  0.60253900  0.65443084  0.36185817  1
  O  O401  1  0.65147684  0.61812697  0.86599094  1
