# generated using pymatgen
data_V73Zn73O256
_symmetry_space_group_name_H-M   'P 1'
_cell_length_a   16.83984963
_cell_length_b   16.83560235
_cell_length_c   16.83917234
_cell_angle_alpha   89.91323342
_cell_angle_beta   89.99305587
_cell_angle_gamma   90.00858296
_symmetry_Int_Tables_number   1
_chemical_formula_structural   V73Zn73O256
_chemical_formula_sum   'V73 Zn73 O256'
_cell_volume   4774.05154935
_cell_formula_units_Z   1
loop_
 _symmetry_equiv_pos_site_id
 _symmetry_equiv_pos_as_xyz
  1  'x, y, z'
loop_
 _atom_site_type_symbol
 _atom_site_label
 _atom_site_symmetry_multiplicity
 _atom_site_fract_x
 _atom_site_fract_y
 _atom_site_fract_z
 _atom_site_occupancy
  V  V0  1  0.84938660  0.50681278  0.87534460  1
  V  V1  1  -0.00416937  0.26049618  0.75639741  1
  V  V2  1  0.50125047  0.26761604  0.75841871  1
  V  V3  1  0.62049196  0.87466167  0.24220690  1
  V  V4  1  0.23985880  -0.00751477  0.75026764  1
  V  V5  1  0.74679561  0.74515832  -0.00993968  1
  V  V6  1  0.38361294  0.87841808  0.00592385  1
  V  V7  1  0.88095296  0.88312835  -0.00506824  1
  V  V8  1  0.61962141  0.75107013  0.86080292  1
  V  V9  1  0.49758660  0.62367427  0.62967522  1
  V  V10  1  0.74608728  0.00470352  0.24097526  1
  V  V11  1  0.24842931  0.23781225  -0.00982708  1
  V  V12  1  0.88912806  0.49910100  0.37620774  1
  V  V13  1  0.00252518  0.88743060  0.87386642  1
  V  V14  1  0.76142636  0.12095854  0.88088371  1
  V  V15  1  0.13032567  0.75770586  0.87210950  1
  V  V16  1  0.62644410  0.25924575  0.36018851  1
  V  V17  1  0.89050337  0.62613423  0.24477546  1
  V  V18  1  0.25807695  0.49850882  0.25814948  1
  V  V19  1  0.52242212  -0.00110894  0.50799333  1
  V  V20  1  0.38775794  0.73471345  0.13253185  1
  V  V21  1  0.61707862  0.74750770  0.36690324  1
  V  V22  1  0.87770851  0.11398277  0.74637566  1
  V  V23  1  0.24371075  0.74385118  0.49321424  1
  V  V24  1  0.01900834  0.60769192  0.62096210  1
  V  V25  1  0.37003423  0.37859918  -0.03013065  1
  V  V26  1  0.49844963  0.87900394  0.37214116  1
  V  V27  1  0.37167766  0.11300007  0.24610646  1
  V  V28  1  0.00398503  0.11814870  0.60862430  1
  V  V29  1  0.75728287  0.25484517  0.00068506  1
  V  V30  1  0.37270406  0.60916096  0.75569737  1
  V  V31  1  0.05633262  0.05793965  0.06602974  1
  V  V32  1  0.88919913  0.38424214  -0.00424071  1
  V  V33  1  0.86609961  0.62515865  0.74819051  1
  V  V34  1  0.88885013  0.25698201  0.13437738  1
  V  V35  1  0.63326894  0.25700546  0.88024860  1
  V  V36  1  0.74031742  0.37924105  0.12562028  1
  V  V37  1  0.11737870  0.24808727  0.39106578  1
  V  V38  1  0.61630589  0.62162070  0.00004160  1
  V  V39  1  0.88507046  0.12422228  0.25069184  1
  V  V40  1  0.49883999  0.87234272  0.85969374  1
  V  V41  1  0.73223543  -0.00262967  0.74988740  1
  V  V42  1  0.51109653  0.11085271  0.11244236  1
  V  V43  1  0.37153667  0.01233338  0.86936935  1
  V  V44  1  0.25222621  0.61738971  0.37753102  1
  V  V45  1  0.23411111  -0.00258368  0.24115285  1
  V  V46  1  0.00180210  0.75120667  0.74381447  1
  V  V47  1  0.88661974  0.74543299  0.12313592  1
  V  V48  1  -0.01497173  0.88644779  0.37598285  1
  V  V49  1  0.12931904  -0.01044595  0.61138283  1
  V  V50  1  0.11711557  0.50514035  0.12075226  1
  V  V51  1  0.13204404  0.39889048  0.75543273  1
  V  V52  1  0.36908428  0.87967704  0.49557390  1
  V  V53  1  0.37197205  0.75437682  0.63028883  1
  V  V54  1  0.11374469  0.36471650  0.25737118  1
  V  V55  1  0.24720599  0.75556790  0.00942293  1
  V  V56  1  0.74799939  0.62858150  0.36963327  1
  V  V57  1  0.62434187  0.62687441  0.49590947  1
  V  V58  1  0.48964056  0.49058860  0.50279841  1
  V  V59  1  0.25300560  0.12761008  0.39220092  1
  V  V60  1  0.73681003  0.25948533  0.50487025  1
  V  V61  1  0.73770074  0.49736722  0.24449698  1
  V  V62  1  0.74432863  0.12130234  0.37713688  1
  V  V63  1  0.51194707  0.11026020  0.65937881  1
  V  V64  1  0.87243495  0.25824141  0.61695163  1
  V  V65  1  0.48810198  0.25299101  0.24220441  1
  V  V66  1  0.48906603  0.37438058  0.37563711  1
  V  V67  1  0.74671663  0.88110698  0.12056635  1
  V  V68  1  0.65227261  0.38210727  0.74444161  1
  V  V69  1  0.25042768  0.61552385  0.87690155  1
  V  V70  1  0.64621412  0.49683478  0.62418770  1
  V  V71  1  0.26337750  0.36551114  0.13042015  1
  V  V72  1  0.11900899  0.85304040  0.25352252  1
  Zn  Zn73  1  0.34080404  0.16993239  0.71602096  1
  Zn  Zn74  1  0.24757704  0.37560302  0.62984985  1
  Zn  Zn75  1  0.12701010  0.24313645  0.87771846  1
  Zn  Zn76  1  0.74432505  0.88147006  0.63057233  1
  Zn  Zn77  1  0.56879487  0.54967913  0.14825621  1
  Zn  Zn78  1  0.48477933  0.49828037  -0.01373133  1
  Zn  Zn79  1  0.86637919  0.39105206  0.50159379  1
  Zn  Zn80  1  0.85989370  0.78109274  0.57193339  1
  Zn  Zn81  1  0.36112525  0.33031424  0.51909375  1
  Zn  Zn82  1  0.18060248  0.18508847  0.18370852  1
  Zn  Zn83  1  0.18027689  0.18091617  0.69323132  1
  Zn  Zn84  1  0.19293045  0.68125136  0.19103225  1
  Zn  Zn85  1  0.19241723  0.69158457  0.69000407  1
  Zn  Zn86  1  0.68912135  0.19077849  0.18091784  1
  Zn  Zn87  1  0.68430246  0.18483299  0.68976340  1
  Zn  Zn88  1  0.69317683  0.69338165  0.18363488  1
  Zn  Zn89  1  0.68870420  0.69756410  0.67416701  1
  Zn  Zn90  1  0.30799637  0.30833062  0.31669017  1
  Zn  Zn91  1  0.29324576  0.31138887  0.79516338  1
  Zn  Zn92  1  0.30883873  0.81277035  0.31065653  1
  Zn  Zn93  1  0.31373652  0.81690408  0.80929140  1
  Zn  Zn94  1  0.81654369  0.31765698  0.31485097  1
  Zn  Zn95  1  0.82723258  0.31288582  0.81455714  1
  Zn  Zn96  1  0.81136262  0.80977331  0.30982510  1
  Zn  Zn97  1  0.81715470  0.81514046  0.80677317  1
  Zn  Zn98  1  0.19743022  0.42911278  0.45073177  1
  Zn  Zn99  1  0.18117695  0.42418685  0.93885401  1
  Zn  Zn100  1  0.18700252  0.94065669  0.42442880  1
  Zn  Zn101  1  0.19214603  0.94427854  0.94581363  1
  Zn  Zn102  1  0.68430804  0.44215416  0.43380932  1
  Zn  Zn103  1  0.68202962  0.43713148  0.93901993  1
  Zn  Zn104  1  0.69059496  0.93462629  0.42943906  1
  Zn  Zn105  1  0.68391244  0.93682639  0.93824571  1
  Zn  Zn106  1  0.31931868  0.06123844  0.06639754  1
  Zn  Zn107  1  0.32255089  0.06110385  0.57350923  1
  Zn  Zn108  1  0.30427103  0.55806129  0.06133013  1
  Zn  Zn109  1  0.30443616  0.55516914  0.56505848  1
  Zn  Zn110  1  0.86420686  0.08283599  0.04693812  1
  Zn  Zn111  1  0.79944574  0.06636546  0.56656823  1
  Zn  Zn112  1  0.80986368  0.56371700  0.06212109  1
  Zn  Zn113  1  0.83325250  0.59879249  0.54654806  1
  Zn  Zn114  1  0.43989898  0.46172883  0.18967951  1
  Zn  Zn115  1  0.43797264  0.43513755  0.68804626  1
  Zn  Zn116  1  0.43668081  0.93839145  0.18411998  1
  Zn  Zn117  1  0.43452577  0.93971318  0.68703156  1
  Zn  Zn118  1  0.93894208  0.43946062  0.18954677  1
  Zn  Zn119  1  0.93316067  0.44296653  0.68852687  1
  Zn  Zn120  1  0.93901974  0.93416594  0.19586739  1
  Zn  Zn121  1  0.94118234  0.93375353  0.68017334  1
  Zn  Zn122  1  0.06623776  0.06139945  0.32838472  1
  Zn  Zn123  1  0.07300620  0.06753147  0.80583446  1
  Zn  Zn124  1  0.07610162  0.56478284  0.31108280  1
  Zn  Zn125  1  0.06071327  0.57891682  0.82363588  1
  Zn  Zn126  1  0.56382900  0.06361356  0.31110564  1
  Zn  Zn127  1  0.57171305  0.05682991  0.85691659  1
  Zn  Zn128  1  0.54695337  0.56347155  0.31579819  1
  Zn  Zn129  1  0.56867375  0.56334293  0.81321929  1
  Zn  Zn130  1  0.43856847  0.17335588  0.43248268  1
  Zn  Zn131  1  0.43786866  0.20091308  0.94094031  1
  Zn  Zn132  1  0.43246978  0.68709666  0.43543539  1
  Zn  Zn133  1  0.43578334  0.69066934  0.93956972  1
  Zn  Zn134  1  0.93047556  0.19135611  0.43321483  1
  Zn  Zn135  1  0.97582931  0.15941330  0.91738300  1
  Zn  Zn136  1  0.95852425  0.69443979  0.44364828  1
  Zn  Zn137  1  0.93345095  0.69328147  0.92996267  1
  Zn  Zn138  1  0.07238957  0.31923215  0.06572641  1
  Zn  Zn139  1  0.07210288  0.30388142  0.57841862  1
  Zn  Zn140  1  0.06959878  0.82525841  0.06320802  1
  Zn  Zn141  1  0.06077878  0.81649348  0.55572427  1
  Zn  Zn142  1  0.53416981  0.34927797  0.07671046  1
  Zn  Zn143  1  0.53272026  0.27766198  0.55117216  1
  Zn  Zn144  1  0.55917918  0.80990228  0.06019221  1
  Zn  Zn145  1  0.56222968  0.80932470  0.56017522  1
  O  O146  1  0.10942521  0.12685812  0.11868763  1
  O  O147  1  0.10835836  0.12332056  0.62084986  1
  O  O148  1  0.13424298  0.60546462  0.13151219  1
  O  O149  1  0.11798143  0.62297169  0.64155189  1
  O  O150  1  0.61000374  0.12984023  0.13052957  1
  O  O151  1  0.60895441  0.12438479  0.62809597  1
  O  O152  1  0.62980578  0.63613952  0.10718206  1
  O  O153  1  0.61797489  0.61777802  0.61729039  1
  O  O154  1  0.38887800  0.35882796  0.39026125  1
  O  O155  1  0.35245442  0.38115813  0.87219649  1
  O  O156  1  0.38703613  0.86784693  0.38529367  1
  O  O157  1  0.38672227  0.86712405  0.88315840  1
  O  O158  1  0.87603671  0.39315468  0.37690216  1
  O  O159  1  0.87437064  0.39348655  0.88545147  1
  O  O160  1  0.88392385  0.87996208  0.35539000  1
  O  O161  1  0.88688464  0.86629599  0.88804079  1
  O  O162  1  0.24503901  0.02173566  0.36036600  1
  O  O163  1  0.25987625  -0.00571470  0.86637587  1
  O  O164  1  0.24305160  0.50383194  0.37148474  1
  O  O165  1  0.23916392  0.51852420  0.88538944  1
  O  O166  1  0.74447286  0.01691518  0.36353363  1
  O  O167  1  0.75659635  0.01796624  0.87008345  1
  O  O168  1  0.75334505  0.50663903  0.35926033  1
  O  O169  1  0.75133625  0.50600792  0.87046483  1
  O  O170  1  0.24690865  0.48866368  0.14073134  1
  O  O171  1  0.22349084  0.47638233  0.55869229  1
  O  O172  1  0.25790261  0.99855726  0.14251620  1
  O  O173  1  0.23845328  1.00394509  0.63371387  1
  O  O174  1  0.75420052  0.49523706  0.13595798  1
  O  O175  1  0.74245260  0.51201811  0.61402174  1
  O  O176  1  0.75432852  0.98700973  0.12879344  1
  O  O177  1  0.74235412  1.00320083  0.64400177  1
  O  O178  1  0.01397781  0.37710885  0.25354078  1
  O  O179  1  -0.00075050  0.36233601  0.74152704  1
  O  O180  1  0.00745678  0.87023489  0.26157452  1
  O  O181  1  -0.01070842  0.86096795  0.76579884  1
  O  O182  1  0.49095261  0.36479781  0.26726041  1
  O  O183  1  0.51231285  0.36910396  0.74916769  1
  O  O184  1  0.51089881  0.88418289  0.25735299  1
  O  O185  1  0.49452210  0.87101835  0.76004618  1
  O  O186  1  0.49240831  0.13570454  0.25076035  1
  O  O187  1  0.51438877  0.11179244  0.76037999  1
  O  O188  1  0.48617101  0.56647383  0.22478170  1
  O  O189  1  0.48991301  0.61924540  0.74005921  1
  O  O190  1  0.98238936  0.11892517  0.26240170  1
  O  O191  1  0.98521909  0.13178760  0.73957810  1
  O  O192  1  0.98856977  0.62631798  0.25177173  1
  O  O193  1  0.99750096  0.63879709  0.74850124  1
  O  O194  1  0.35778827  0.26507861  -0.00646650  1
  O  O195  1  0.42884961  0.24288846  0.51750398  1
  O  O196  1  0.36837287  0.75864932  0.00834053  1
  O  O197  1  0.36862656  0.75805077  0.50701027  1
  O  O198  1  0.86978576  0.26934297  0.01064414  1
  O  O199  1  0.86151279  0.25628604  0.50208832  1
  O  O200  1  0.86476317  0.75324490  0.00492986  1
  O  O201  1  0.86111030  0.70205547  0.49888125  1
  O  O202  1  0.12433964  0.25387820  0.49171738  1
  O  O203  1  0.14267523  0.26266082  0.99808269  1
  O  O204  1  0.14709042  0.75826886  0.51044785  1
  O  O205  1  0.13896307  0.75879423  0.99180111  1
  O  O206  1  0.63340905  0.25050018  0.49353340  1
  O  O207  1  0.64340175  0.26217172  0.98467385  1
  O  O208  1  0.61777166  0.73450484  0.48431738  1
  O  O209  1  0.63543987  0.74625178  0.99390020  1
  O  O210  1  0.50354351  0.25617275  0.14197663  1
  O  O211  1  0.50825888  0.23291070  0.65890186  1
  O  O212  1  0.48857978  0.74677296  0.12388675  1
  O  O213  1  0.48511751  0.73088629  0.61119321  1
  O  O214  1  0.98672174  0.26102301  0.12258097  1
  O  O215  1  0.98906092  0.23700444  0.62753767  1
  O  O216  1  0.98449709  0.75197552  0.11081990  1
  O  O217  1  1.00390617  0.75191815  0.64157641  1
  O  O218  1  0.01647136  0.24223802  0.37823535  1
  O  O219  1  -0.02582487  0.25751630  0.85604122  1
  O  O220  1  0.00947419  0.76962201  0.38165514  1
  O  O221  1  0.01562991  0.75145980  0.87232973  1
  O  O222  1  0.51266883  0.25437796  0.36804267  1
  O  O223  1  0.52773254  0.24019079  0.86832577  1
  O  O224  1  0.50879439  0.75912169  0.37580257  1
  O  O225  1  0.50987550  0.75746466  0.87576622  1
  O  O226  1  0.26690324  0.12040962  0.49082983  1
  O  O227  1  0.25740482  0.14002763  1.01159780  1
  O  O228  1  0.25341490  0.63523121  0.49330658  1
  O  O229  1  0.26208841  0.64357672  0.98306279  1
  O  O230  1  0.75482210  0.13615833  0.48210271  1
  O  O231  1  0.77476052  0.13798172  0.98667154  1
  O  O232  1  0.73155364  0.61109214  0.47981335  1
  O  O233  1  0.74836962  0.64209177  0.99878666  1
  O  O234  1  0.25961629  0.36979499  0.01347266  1
  O  O235  1  0.24903090  0.34586455  0.51126817  1
  O  O236  1  0.26331681  0.86137892  -0.00699028  1
  O  O237  1  0.26497144  0.86846624  0.48707923  1
  O  O238  1  0.75919048  0.37322489  0.00702021  1
  O  O239  1  0.74761574  0.36332908  0.49455248  1
  O  O240  1  0.75732064  0.86803127  0.00139724  1
  O  O241  1  0.78639527  0.91314321  0.49775202  1
  O  O242  1  0.13529440  0.48530422  0.24794875  1
  O  O243  1  0.09912089  0.49314059  0.76431382  1
  O  O244  1  0.13420342  1.01275946  0.24498209  1
  O  O245  1  0.13336584  0.99779056  0.74288732  1
  O  O246  1  0.63766448  0.50137954  0.24699058  1
  O  O247  1  0.63104829  0.49417673  0.73689390  1
  O  O248  1  0.63585685  0.98920150  0.25280863  1
  O  O249  1  0.63503972  1.00520839  0.76650357  1
  O  O250  1  0.37244505  0.00955394  0.25410589  1
  O  O251  1  0.36617871  -0.00233966  0.76188005  1
  O  O252  1  0.35551085  0.48081685  0.26467580  1
  O  O253  1  0.37620315  0.51057021  0.75439419  1
  O  O254  1  0.86182918  0.01647594  0.24130916  1
  O  O255  1  0.87448109  0.01328547  0.74461513  1
  O  O256  1  0.86962112  0.51226011  0.25316242  1
  O  O257  1  0.88149648  0.51011662  0.76852754  1
  O  O258  1  0.13606311  0.36109026  0.36748320  1
  O  O259  1  0.12722108  0.36222540  0.85810664  1
  O  O260  1  0.11182907  0.88382357  0.36148383  1
  O  O261  1  0.11257620  0.86806219  0.88258115  1
  O  O262  1  0.61578206  0.36361950  0.37687408  1
  O  O263  1  0.63937061  0.36629414  0.85987320  1
  O  O264  1  0.62274504  0.86500493  0.36614258  1
  O  O265  1  0.61023195  0.86399931  0.87816427  1
  O  O266  1  0.39122036  0.12296428  0.14048212  1
  O  O267  1  0.40222043  0.11500693  0.63650247  1
  O  O268  1  0.37038179  0.63550304  0.11691267  1
  O  O269  1  0.37619548  0.62352417  0.63566197  1
  O  O270  1  0.86992398  0.14654054  0.14037623  1
  O  O271  1  0.87821261  0.13095569  0.62973798  1
  O  O272  1  0.87275840  0.63391522  0.13103489  1
  O  O273  1  0.89366564  0.61897102  0.64544379  1
  O  O274  1  0.24786677  0.26221507  0.12221528  1
  O  O275  1  0.26454776  0.25890892  0.68991137  1
  O  O276  1  0.25257402  0.74558729  0.11054800  1
  O  O277  1  0.26608851  0.74241616  0.61355135  1
  O  O278  1  0.75916190  0.26024566  0.11810958  1
  O  O279  1  0.75405188  0.24108745  0.60952027  1
  O  O280  1  0.75833183  0.76165414  0.11144887  1
  O  O281  1  0.74135073  0.76600714  0.60246988  1
  O  O282  1  0.24308459  0.23547733  0.37593411  1
  O  O283  1  0.24833159  0.24293373  0.88476801  1
  O  O284  1  0.25423145  0.74141927  0.38640044  1
  O  O285  1  0.23957080  0.75385607  0.87604017  1
  O  O286  1  0.73849488  0.25040856  0.37856864  1
  O  O287  1  0.75568924  0.24958878  0.88201411  1
  O  O288  1  0.73721296  0.73685373  0.36431552  1
  O  O289  1  0.74021421  0.76145214  0.88500405  1
  O  O290  1  -0.02586238  0.10854755  0.01561409  1
  O  O291  1  -0.01528466  0.12181501  0.51062510  1
  O  O292  1  0.00370438  0.60498068  -0.01805569  1
  O  O293  1  0.01105239  0.62869212  0.52176149  1
  O  O294  1  0.49443386  0.13523242  0.01563557  1
  O  O295  1  0.50457200  0.09685878  0.49108283  1
  O  O296  1  0.51150088  0.62157122  -0.00275314  1
  O  O297  1  0.50692666  0.61060049  0.50086406  1
  O  O298  1  0.50636933  0.38351218  0.49670044  1
  O  O299  1  0.47298537  0.35836105  0.98034624  1
  O  O300  1  0.49532130  0.88033360  0.49295320  1
  O  O301  1  0.48790521  0.87176234  0.99137474  1
  O  O302  1  1.01715141  0.39497213  0.50521292  1
  O  O303  1  0.98727042  0.37815894  1.00359609  1
  O  O304  1  0.98350582  0.85016822  0.48112871  1
  O  O305  1  0.98940427  0.87266201  0.99054917  1
  O  O306  1  0.50634423  0.48210375  0.38897585  1
  O  O307  1  0.52693484  0.48883558  0.88313721  1
  O  O308  1  0.51278083  0.98535857  0.38581718  1
  O  O309  1  0.48079822  0.98231715  0.87217307  1
  O  O310  1  0.98764422  0.51174217  0.36737421  1
  O  O311  1  1.01371756  0.54741171  0.93170479  1
  O  O312  1  0.99922382  0.98808051  0.38325277  1
  O  O313  1  1.00202385  0.98496103  0.86376570  1
  O  O314  1  0.00067374  -0.00071783  0.12742007  1
  O  O315  1  0.01050657  0.01099741  0.62897103  1
  O  O316  1  0.01528352  0.49745534  0.12947969  1
  O  O317  1  0.00341379  0.50771520  0.62727886  1
  O  O318  1  0.50303717  0.00997280  0.12258882  1
  O  O319  1  0.50636718  0.00167783  0.61926019  1
  O  O320  1  0.51074342  0.46397107  0.09758050  1
  O  O321  1  0.50736933  0.50595292  0.61581942  1
  O  O322  1  0.24411082  0.37599701  0.24571504  1
  O  O323  1  0.23539538  0.40843516  0.75145806  1
  O  O324  1  0.23446137  0.89085724  0.26540240  1
  O  O325  1  0.25366700  0.89023294  0.74584844  1
  O  O326  1  0.75664887  0.38935955  0.24223977  1
  O  O327  1  0.75134023  0.37653341  0.74631011  1
  O  O328  1  0.74315527  0.88230319  0.24060330  1
  O  O329  1  0.75207795  0.89645654  0.76431938  1
  O  O330  1  0.26305360  0.12072110  0.24334609  1
  O  O331  1  0.25031857  0.10498177  0.75107755  1
  O  O332  1  0.25324570  0.60672826  0.25962256  1
  O  O333  1  0.26290646  0.62760507  0.76100626  1
  O  O334  1  0.75027819  0.12049488  0.25364903  1
  O  O335  1  0.76149473  0.12039970  0.75446117  1
  O  O336  1  0.75222934  0.61477364  0.25097426  1
  O  O337  1  0.76759371  0.63562733  0.73978686  1
  O  O338  1  0.36349051  0.13033092  0.35962843  1
  O  O339  1  0.38374607  0.11000560  0.88157222  1
  O  O340  1  0.35809291  0.62497155  0.37719957  1
  O  O341  1  0.36819819  0.63287374  0.86280791  1
  O  O342  1  0.85563884  0.14170014  0.35725688  1
  O  O343  1  0.87053401  0.13297584  0.85604732  1
  O  O344  1  0.86570202  0.62018344  0.35609123  1
  O  O345  1  0.87498707  0.61308596  0.86972566  1
  O  O346  1  0.13600071  0.38023515  0.14146808  1
  O  O347  1  0.12894150  0.36472227  0.65222245  1
  O  O348  1  0.12028734  0.87162061  0.15134577  1
  O  O349  1  0.11458040  0.89098413  0.62479933  1
  O  O350  1  0.64193580  0.36854093  0.11813132  1
  O  O351  1  0.63394693  0.38865498  0.63487417  1
  O  O352  1  0.63350777  0.86761771  0.13082677  1
  O  O353  1  0.63440862  0.85228157  0.63210515  1
  O  O354  1  0.12690986  0.26038358  0.25483583  1
  O  O355  1  0.09907171  0.24105882  0.75488797  1
  O  O356  1  0.13555064  0.75386942  0.25775628  1
  O  O357  1  0.11632007  0.75452304  0.76183481  1
  O  O358  1  0.61875584  0.25389752  0.25743745  1
  O  O359  1  0.63034757  0.26707613  0.75585506  1
  O  O360  1  0.62773942  0.76093067  0.25482828  1
  O  O361  1  0.62934982  0.74282809  0.76282254  1
  O  O362  1  0.38553278  0.24268877  0.25278748  1
  O  O363  1  0.40246490  0.24987751  0.78046384  1
  O  O364  1  0.36339264  0.75691957  0.22921732  1
  O  O365  1  0.37256255  0.74597782  0.73325904  1
  O  O366  1  0.87370033  0.24954168  0.24056414  1
  O  O367  1  0.87701246  0.24515706  0.73359610  1
  O  O368  1  0.86897359  0.73839088  0.23300640  1
  O  O369  1  0.88997797  0.73576468  0.76609548  1
  O  O370  1  0.39156990  0.50158508  0.50230895  1
  O  O371  1  0.36770932  0.48294556  0.99926093  1
  O  O372  1  0.38258427  0.98053107  0.50933978  1
  O  O373  1  0.36359636  0.98403761  0.98741820  1
  O  O374  1  0.87097905  0.50927530  0.48037217  1
  O  O375  1  0.86716915  0.49452908  0.98926289  1
  O  O376  1  0.83804602  0.97358884  0.49723478  1
  O  O377  1  0.86627181  0.98029394  1.00058800  1
  O  O378  1  0.11632808  -0.00272860  0.00844870  1
  O  O379  1  0.13632680  -0.00139298  0.51176340  1
  O  O380  1  0.13485503  0.48662032  0.02149008  1
  O  O381  1  0.06275264  0.45265284  0.48869663  1
  O  O382  1  0.61591390  0.02184374  -0.04282118  1
  O  O383  1  0.62253583  -0.01221434  0.50517602  1
  O  O384  1  0.64002623  0.52267779  -0.00034384  1
  O  O385  1  0.61837274  0.50451492  0.50980620  1
  O  O386  1  0.36290280  0.37726735  0.13614553  1
  O  O387  1  0.36387832  0.38578156  0.62208476  1
  O  O388  1  0.38024185  0.86932716  0.11015059  1
  O  O389  1  0.38341003  0.86050480  0.61334933  1
  O  O390  1  0.86853017  0.37315723  0.11803722  1
  O  O391  1  0.88175984  0.36455989  0.61648418  1
  O  O392  1  0.87016092  0.86361522  0.11508113  1
  O  O393  1  0.86285018  0.86794972  0.63765722  1
  O  O394  1  0.13909169  0.13711783  0.37620420  1
  O  O395  1  0.08622135  0.13728194  0.88980302  1
  O  O396  1  0.14718088  0.62682348  0.37316410  1
  O  O397  1  0.14226246  0.64441368  0.87315598  1
  O  O398  1  0.63674839  0.14030987  0.36799503  1
  O  O399  1  0.65459082  0.14760348  0.86565259  1
  O  O400  1  0.62382800  0.62815555  0.37354113  1
  O  O401  1  0.62347666  0.64303618  0.88602174  1
