# generated using pymatgen
data_V73Zn73O256
_symmetry_space_group_name_H-M   'P 1'
_cell_length_a   16.92698755
_cell_length_b   16.92982776
_cell_length_c   16.91157468
_cell_angle_alpha   90.16950779
_cell_angle_beta   90.41436712
_cell_angle_gamma   90.13594827
_symmetry_Int_Tables_number   1
_chemical_formula_structural   V73Zn73O256
_chemical_formula_sum   'V73 Zn73 O256'
_cell_volume   4846.20475915
_cell_formula_units_Z   1
loop_
 _symmetry_equiv_pos_site_id
 _symmetry_equiv_pos_as_xyz
  1  'x, y, z'
loop_
 _atom_site_type_symbol
 _atom_site_label
 _atom_site_symmetry_multiplicity
 _atom_site_fract_x
 _atom_site_fract_y
 _atom_site_fract_z
 _atom_site_occupancy
  V  V0  1  0.88407269  0.62243143  0.26053905  1
  V  V1  1  0.75192734  0.50489894  0.25750665  1
  V  V2  1  0.13050342  0.60828077  0.53205665  1
  V  V3  1  0.49405335  0.12441105  0.61438472  1
  V  V4  1  0.25847278  0.86950075  0.10615977  1
  V  V5  1  -0.01264797  0.50141843  0.50708509  1
  V  V6  1  0.25017082  0.86805225  0.64887329  1
  V  V7  1  -0.01335946  0.12841542  0.14442762  1
  V  V8  1  0.40377776  0.37110202  -0.01365601  1
  V  V9  1  0.74192323  0.88059108  0.13644054  1
  V  V10  1  0.25041197  0.38849449  0.11514743  1
  V  V11  1  0.74160752  -0.00172635  0.26863125  1
  V  V12  1  0.49967297  0.73749037  0.74123599  1
  V  V13  1  0.16014731  0.11486478  0.49896138  1
  V  V14  1  0.62402482  0.62156039  0.00233676  1
  V  V15  1  0.01079702  0.74904979  0.75810227  1
  V  V16  1  0.02203314  0.12326520  0.60819730  1
  V  V17  1  0.63537438  0.12976731  -0.00200145  1
  V  V18  1  0.62889149  0.88560440  0.75102976  1
  V  V19  1  0.88822863  0.37285009  -0.01598544  1
  V  V20  1  0.23473348  -0.00394389  0.75206786  1
  V  V21  1  0.00524227  0.38358301  0.37186266  1
  V  V22  1  0.50511656  0.11924680  0.12613833  1
  V  V23  1  0.87472921  0.35691518  0.49412549  1
  V  V24  1  0.49971465  0.87422426  0.87717859  1
  V  V25  1  0.62550326  0.37101403  0.25433217  1
  V  V26  1  0.30388852  0.61972028  0.87973120  1
  V  V27  1  0.11612103  0.77259236  0.91071904  1
  V  V28  1  0.74861297  0.62966704  0.38170450  1
  V  V29  1  0.41055201  0.91832262  0.43017621  1
  V  V30  1  0.37767161  -0.00614735  0.87748721  1
  V  V31  1  0.36568758  0.12861806  0.25927205  1
  V  V32  1  0.75787105  0.35749871  0.13298726  1
  V  V33  1  0.13482027  0.01462774  0.12478663  1
  V  V34  1  0.89586890  0.88102628  0.50386206  1
  V  V35  1  0.62255640  0.50071405  0.12811382  1
  V  V36  1  0.38059900  0.51229955  0.37614674  1
  V  V37  1  0.75175797  0.88833007  0.62652743  1
  V  V38  1  0.24472833  0.24965212  -0.00857713  1
  V  V39  1  0.74699590  0.52655277  0.76434969  1
  V  V40  1  0.24363546  0.12413016  0.87520944  1
  V  V41  1  0.25224603  0.00228416  0.25402390  1
  V  V42  1  0.23231002  0.61992693  0.35918059  1
  V  V43  1  0.89918315  -0.00123851  0.37565346  1
  V  V44  1  0.40811566  0.47701375  0.84217570  1
  V  V45  1  0.75230647  0.10521353  0.84686405  1
  V  V46  1  -0.00525986  0.25094943  0.25524786  1
  V  V47  1  0.61267745  0.86696047  0.25816595  1
  V  V48  1  0.50072816  0.63742005  0.13851683  1
  V  V49  1  0.00200354  0.62035037  0.11245973  1
  V  V50  1  0.50637706  -0.00387353  0.00425350  1
  V  V51  1  0.87686776  0.74893469  0.13172654  1
  V  V52  1  0.75105339  0.74595431  -0.00003650  1
  V  V53  1  -0.00678349  0.00621779  0.01354425  1
  V  V54  1  0.50404642  0.24698328  0.25473912  1
  V  V55  1  0.38003472  0.25070088  0.12025465  1
  V  V56  1  0.62892842  0.11891117  0.48936451  1
  V  V57  1  0.87254725  0.88631173  0.00824810  1
  V  V58  1  0.60518811  -0.01509427  0.60820294  1
  V  V59  1  0.37343759  0.72567398  0.63191435  1
  V  V60  1  0.24460545  0.74056959  0.51770546  1
  V  V61  1  0.37869489  0.12231775  0.74823123  1
  V  V62  1  0.88412183  0.12207894  0.71996018  1
  V  V63  1  -0.01162698  0.90278089  0.86401409  1
  V  V64  1  0.50500059  0.37558552  0.38377655  1
  V  V65  1  0.88364143  0.74707315  0.63517434  1
  V  V66  1  0.14853483  0.25537753  0.38019914  1
  V  V67  1  0.74570558  0.75057708  0.49860505  1
  V  V68  1  0.63246097  0.74555391  0.87553675  1
  V  V69  1  0.69443094  0.38800081  0.65267212  1
  V  V70  1  0.36237609  0.36946279  0.50125622  1
  V  V71  1  0.52100348  0.23690541  0.76517882  1
  V  V72  1  0.13087159  0.38866572  0.23983246  1
  Zn  Zn73  1  0.15069942  0.62211171  0.00595911  1
  Zn  Zn74  1  0.06609059  0.46478162  0.04348526  1
  Zn  Zn75  1  0.33916927  0.58000251  0.22078248  1
  Zn  Zn76  1  0.73324922  0.25126705  0.47984914  1
  Zn  Zn77  1  0.06952809  0.81915471  0.31856923  1
  Zn  Zn78  1  0.58925255  0.74140618  0.36255626  1
  Zn  Zn79  1  -0.00221723  0.59933583  0.65887449  1
  Zn  Zn80  1  0.80961637  0.15959935  0.32691171  1
  Zn  Zn81  1  0.07827574  0.15661384  -0.02434885  1
  Zn  Zn82  1  0.18329119  0.19687305  0.18389032  1
  Zn  Zn83  1  0.17032718  0.22577544  0.66637162  1
  Zn  Zn84  1  0.17695548  0.70129321  0.18281861  1
  Zn  Zn85  1  0.20751587  0.58633936  0.71339035  1
  Zn  Zn86  1  0.68242664  0.18122442  0.19236453  1
  Zn  Zn87  1  0.71911642  0.22055920  0.68963633  1
  Zn  Zn88  1  0.69102055  0.68956729  0.19140571  1
  Zn  Zn89  1  0.69703540  0.71143547  0.69409638  1
  Zn  Zn90  1  0.31996687  0.33145640  0.30220432  1
  Zn  Zn91  1  0.31264484  0.30311213  0.79765440  1
  Zn  Zn92  1  0.24301030  0.82207802  0.32442829  1
  Zn  Zn93  1  0.31252803  0.79826411  0.83274226  1
  Zn  Zn94  1  0.81192225  0.32316283  0.32389319  1
  Zn  Zn95  1  0.75873470  0.31532709  0.84680173  1
  Zn  Zn96  1  0.88548947  0.79519418  0.33110182  1
  Zn  Zn97  1  0.81518468  0.82545070  0.81618392  1
  Zn  Zn98  1  0.18556038  0.44496768  0.43958904  1
  Zn  Zn99  1  0.21075149  0.44762344  0.91756380  1
  Zn  Zn100  1  0.22098080  0.93746809  0.44654840  1
  Zn  Zn101  1  0.17624894  0.94694654  0.94070376  1
  Zn  Zn102  1  0.69244925  0.44470199  0.44082407  1
  Zn  Zn103  1  0.73138053  0.46329687  0.94669227  1
  Zn  Zn104  1  0.68693525  0.92375052  0.43623634  1
  Zn  Zn105  1  0.68874236  0.94063959  0.94131117  1
  Zn  Zn106  1  0.32101484  0.06549313  0.05759198  1
  Zn  Zn107  1  0.31466658  0.05036097  0.56246672  1
  Zn  Zn108  1  0.33667133  0.55566001  0.04474499  1
  Zn  Zn109  1  0.34537779  0.51992867  0.59389670  1
  Zn  Zn110  1  0.81109698  0.06735697  0.08290171  1
  Zn  Zn111  1  0.82227796  0.06810043  0.56064236  1
  Zn  Zn112  1  0.81652995  0.55549148  0.06967675  1
  Zn  Zn113  1  0.78620528  0.57497827  0.59092831  1
  Zn  Zn114  1  0.44070244  0.43408373  0.18663704  1
  Zn  Zn115  1  0.47914514  0.40759306  0.67051894  1
  Zn  Zn116  1  0.42857853  0.93677247  0.18717895  1
  Zn  Zn117  1  0.43088408  0.92330460  0.68898050  1
  Zn  Zn118  1  0.93832191  0.44062845  0.19068449  1
  Zn  Zn119  1  0.89104484  0.44041191  0.66589124  1
  Zn  Zn120  1  0.94112085  0.93809416  0.20139636  1
  Zn  Zn121  1  0.94847905  0.95599163  0.66668017  1
  Zn  Zn122  1  0.07926082  0.06787575  0.32117477  1
  Zn  Zn123  1  0.02563044  0.10609853  0.83130322  1
  Zn  Zn124  1  0.06014481  0.56371335  0.31347394  1
  Zn  Zn125  1  0.06701719  0.56446552  0.86237534  1
  Zn  Zn126  1  0.54245555  0.04155204  0.31774193  1
  Zn  Zn127  1  0.56834657  0.06404647  0.81401006  1
  Zn  Zn128  1  0.56534258  0.56241015  0.32000261  1
  Zn  Zn129  1  0.59017328  0.41321658  0.81695096  1
  Zn  Zn130  1  0.42773655  0.19304931  0.44186455  1
  Zn  Zn131  1  0.43799339  0.18028883  0.93847306  1
  Zn  Zn132  1  0.39249484  0.72953096  0.40555360  1
  Zn  Zn133  1  0.46050999  0.67238887  0.92320846  1
  Zn  Zn134  1  0.96038087  0.18298759  0.43657992  1
  Zn  Zn135  1  0.89130589  0.21462864  0.91536169  1
  Zn  Zn136  1  0.95102712  0.69063192  0.44875628  1
  Zn  Zn137  1  0.94535449  0.70478849  0.94412910  1
  Zn  Zn138  1  0.05785014  0.30461072  0.06713704  1
  Zn  Zn139  1  0.05321976  0.30151636  0.55117492  1
  Zn  Zn140  1  0.05507540  0.83072604  0.11300095  1
  Zn  Zn141  1  0.07326188  0.80915869  0.56781902  1
  Zn  Zn142  1  0.61792925  0.33840299  -0.01201526  1
  Zn  Zn143  1  0.57366962  0.29662749  0.56462458  1
  Zn  Zn144  1  0.56064300  0.81174928  0.06439079  1
  Zn  Zn145  1  0.52559711  0.77337949  0.52327046  1
  O  O146  1  0.11424006  0.12404085  0.12091056  1
  O  O147  1  0.14785543  0.12768563  0.60651882  1
  O  O148  1  0.10851929  0.63579018  0.11448873  1
  O  O149  1  0.11358252  0.61727344  0.63275375  1
  O  O150  1  0.60990810  0.12371235  0.12233684  1
  O  O151  1  0.60614043  0.09933390  0.60774741  1
  O  O152  1  0.61965192  0.62144126  0.12299013  1
  O  O153  1  0.62031012  0.55601961  0.55061988  1
  O  O154  1  0.38495448  0.38258540  0.38676201  1
  O  O155  1  0.37729889  0.36889880  0.87742295  1
  O  O156  1  0.35538783  0.84398180  0.37599424  1
  O  O157  1  0.39082222  0.88163054  0.86853146  1
  O  O158  1  0.89890318  0.37862605  0.37627659  1
  O  O159  1  0.86729050  0.35803744  0.88441326  1
  O  O160  1  0.87718084  0.88622228  0.39568645  1
  O  O161  1  0.88268682  0.88056425  0.89455902  1
  O  O162  1  0.24969687  0.00591406  0.35150291  1
  O  O163  1  0.25723776  0.00108513  0.86880588  1
  O  O164  1  0.25888751  0.51821773  0.37902607  1
  O  O165  1  0.29344350  0.50476560  0.86447001  1
  O  O166  1  0.75399045  -0.00634224  0.37030744  1
  O  O167  1  0.75687982  0.00827344  0.88189056  1
  O  O168  1  0.74912515  0.51406794  0.36674861  1
  O  O169  1  0.74084555  0.54598741  0.86156974  1
  O  O170  1  0.26298480  0.48759537  0.10837903  1
  O  O171  1  0.24523599  0.51432488  0.63992065  1
  O  O172  1  0.24133467  1.01766177  0.12298438  1
  O  O173  1  0.26000398  0.97996321  0.64450361  1
  O  O174  1  0.73969722  0.50255155  0.14421808  1
  O  O175  1  0.75089939  0.46273393  0.60801986  1
  O  O176  1  0.75505868  0.98372088  0.14270245  1
  O  O177  1  0.73043526  0.98745070  0.61095880  1
  O  O178  1  0.00880440  0.37181269  0.25294830  1
  O  O179  1  0.10328674  0.45343644  0.71851439  1
  O  O180  1  0.01384715  0.85709188  0.22216383  1
  O  O181  1  -0.01922715  0.89852942  0.76340203  1
  O  O182  1  0.50770345  0.36503404  0.25562218  1
  O  O183  1  0.51383740  0.34203170  0.75784180  1
  O  O184  1  0.51566335  0.88265107  0.23721896  1
  O  O185  1  0.51111438  0.86840966  0.75949201  1
  O  O186  1  0.49099180  0.12708207  0.24557636  1
  O  O187  1  0.49717095  0.11935739  0.73998757  1
  O  O188  1  0.51013123  0.62650783  0.23890664  1
  O  O189  1  0.51686891  0.64379796  0.74685800  1
  O  O190  1  1.01282856  0.13588938  0.25007622  1
  O  O191  1  0.99080939  0.12866196  0.72608033  1
  O  O192  1  0.98734704  0.62049197  0.24474973  1
  O  O193  1  1.00747342  0.64652614  0.76319689  1
  O  O194  1  0.37314455  0.25555258  0.00248321  1
  O  O195  1  0.37539658  0.27019717  0.50638522  1
  O  O196  1  0.35166197  0.71211619  -0.09429129  1
  O  O197  1  0.35908535  0.72981561  0.52396023  1
  O  O198  1  0.86867147  0.27927764  0.01502494  1
  O  O199  1  0.88140456  0.25708708  0.47740626  1
  O  O200  1  0.86723648  0.76265003  0.00969745  1
  O  O201  1  0.87916032  0.76387966  0.51655244  1
  O  O202  1  0.14222754  0.26876791  0.48138523  1
  O  O203  1  0.14146744  0.24908066  1.00526672  1
  O  O204  1  0.13392520  0.72514733  0.51472088  1
  O  O205  1  0.10145466  0.78199541  1.00986235  1
  O  O206  1  0.61133095  0.22058203  0.48629789  1
  O  O207  1  0.62090765  0.22728450  1.00281496  1
  O  O208  1  0.64662847  0.75289083  0.50924926  1
  O  O209  1  0.63428275  0.74698371  0.99590944  1
  O  O210  1  0.49060538  0.23933080  0.13784057  1
  O  O211  1  0.50504981  0.22579412  0.63322170  1
  O  O212  1  0.50010316  0.73681366  0.12385209  1
  O  O213  1  0.48814426  0.75104557  0.63177979  1
  O  O214  1  1.00099511  0.23685017  0.13896114  1
  O  O215  1  1.05566817  0.23832558  0.63986799  1
  O  O216  1  0.98291429  0.73485759  0.12256802  1
  O  O217  1  0.99324939  0.76343254  0.64480428  1
  O  O218  1  0.02122319  0.26400054  0.37023518  1
  O  O219  1  -0.00140471  0.19486007  0.89805483  1
  O  O220  1  -0.01369732  0.75948299  0.37022073  1
  O  O221  1  -0.00657033  0.77707348  0.86869552  1
  O  O222  1  0.48878072  0.26345601  0.36300967  1
  O  O223  1  0.51233996  0.22383637  0.86487819  1
  O  O224  1  0.41751813  0.75930712  0.26049684  1
  O  O225  1  0.51311745  0.75855309  0.86482564  1
  O  O226  1  0.26036322  0.13134437  0.49996463  1
  O  O227  1  0.25976280  0.13960359  0.99010983  1
  O  O228  1  0.23195405  0.61760563  0.51823893  1
  O  O229  1  0.26173749  0.61118076  0.97859309  1
  O  O230  1  0.73320114  0.12491063  0.50807669  1
  O  O231  1  0.73295981  0.11715235  1.02143085  1
  O  O232  1  0.76300178  0.63898450  0.49828481  1
  O  O233  1  0.74523035  0.64095396  1.01240615  1
  O  O234  1  0.25857851  0.36151983  -0.00210710  1
  O  O235  1  0.26399881  0.38587631  0.49925187  1
  O  O236  1  0.25144684  0.89626029  0.00825885  1
  O  O237  1  0.24369087  0.84194409  0.51710145  1
  O  O238  1  0.72583221  0.36700445  0.03532546  1
  O  O239  1  0.77227711  0.37062359  0.47051655  1
  O  O240  1  0.75351063  0.87122095  0.01476131  1
  O  O241  1  0.76011630  0.86428950  0.50847942  1
  O  O242  1  0.12143637  0.48752247  0.25060480  1
  O  O243  1  0.13355166  0.51803591  0.77935819  1
  O  O244  1  0.14175324  1.01945639  0.23637771  1
  O  O245  1  0.13950925  1.00046529  0.75469383  1
  O  O246  1  0.63362198  0.49456058  0.24929707  1
  O  O247  1  0.66315421  0.46599175  0.74063698  1
  O  O248  1  0.63503252  0.98403423  0.26163112  1
  O  O249  1  0.61697326  0.98755692  0.73832332  1
  O  O250  1  0.36415246  0.02183345  0.23761822  1
  O  O251  1  0.37961265  0.00341971  0.76391616  1
  O  O252  1  0.36998453  0.47983031  0.26525854  1
  O  O253  1  0.40695747  0.47063554  0.74260389  1
  O  O254  1  0.86446669  -0.01263683  0.27221767  1
  O  O255  1  0.85845527  0.03203230  0.67387923  1
  O  O256  1  0.86609628  0.51506767  0.24813012  1
  O  O257  1  0.84011426  0.48600619  0.75093371  1
  O  O258  1  0.12567612  0.37468242  0.36271142  1
  O  O259  1  0.11580054  0.38291731  0.88051839  1
  O  O260  1  0.15422415  0.87132795  0.38085730  1
  O  O261  1  0.09099379  0.88628670  0.88683600  1
  O  O262  1  0.61405242  0.38420719  0.36659423  1
  O  O263  1  0.66943020  0.37706931  0.89098045  1
  O  O264  1  0.61975258  0.86262431  0.36399312  1
  O  O265  1  0.62212797  0.87043435  0.86918671  1
  O  O266  1  0.38485126  0.13647637  0.12652960  1
  O  O267  1  0.38813672  0.10528878  0.63390604  1
  O  O268  1  0.39587143  0.60936196  0.12635326  1
  O  O269  1  0.37635802  0.62641811  0.63863420  1
  O  O270  1  0.88769756  0.11706379  0.15145122  1
  O  O271  1  0.92186300  0.13841813  0.58751165  1
  O  O272  1  0.88003019  0.62898002  0.13431340  1
  O  O273  1  0.88500612  0.64425737  0.62517214  1
  O  O274  1  0.26269225  0.25534704  0.10977515  1
  O  O275  1  0.23456870  0.29548196  0.71879751  1
  O  O276  1  0.23719670  0.77077606  0.11296037  1
  O  O277  1  0.26014481  0.74372138  0.63192905  1
  O  O278  1  0.75472306  0.25949638  0.15267442  1
  O  O279  1  0.70017688  0.29414098  0.59306215  1
  O  O280  1  0.75715387  0.75887378  0.12003097  1
  O  O281  1  0.76737550  0.76129187  0.61852898  1
  O  O282  1  0.24548297  0.26554053  0.36030007  1
  O  O283  1  0.25684202  0.24071286  0.88567220  1
  O  O284  1  0.26598358  0.71419412  0.40443628  1
  O  O285  1  0.21201858  0.78939105  0.89145964  1
  O  O286  1  0.74643829  0.24206259  0.36561836  1
  O  O287  1  0.77959400  0.20628754  0.88205591  1
  O  O288  1  0.76479703  0.74633054  0.39517579  1
  O  O289  1  0.74509362  0.76174898  0.88741276  1
  O  O290  1  -0.01736591  0.11491307  0.03032449  1
  O  O291  1  0.04242171  0.13894793  0.50207359  1
  O  O292  1  -0.01429293  0.62186017  0.01312381  1
  O  O293  1  0.00825979  0.60971297  0.50515702  1
  O  O294  1  0.50866038  0.11543736  0.00718192  1
  O  O295  1  0.49112227  0.12208427  0.51079024  1
  O  O296  1  0.51756879  0.62747593  0.01234274  1
  O  O297  1  0.50237824  0.71716863  0.42576492  1
  O  O298  1  0.50762309  0.36316304  0.48253711  1
  O  O299  1  0.50147536  0.35481378  0.99437880  1
  O  O300  1  0.47533582  0.87405129  0.49371135  1
  O  O301  1  0.50943391  0.88047616  0.98780840  1
  O  O302  1  0.99829695  0.38181509  0.49218627  1
  O  O303  1  0.99219301  0.38014983  1.00713791  1
  O  O304  1  0.99452956  0.87549489  0.51532324  1
  O  O305  1  0.98452490  0.89304256  1.01773329  1
  O  O306  1  0.49160380  0.48629941  0.36760267  1
  O  O307  1  0.50598173  0.47041842  0.86729796  1
  O  O308  1  0.46307845  0.97896530  0.36793012  1
  O  O309  1  0.49779252  0.99250907  0.88146909  1
  O  O310  1  1.01138674  0.49083664  0.38932006  1
  O  O311  1  0.94436723  0.54526500  0.87368972  1
  O  O312  1  0.99787203  0.99511129  0.36365197  1
  O  O313  1  0.99141925  1.00470072  0.89318947  1
  O  O314  1  0.01000560  0.01232788  0.13414004  1
  O  O315  1  0.02802717  0.02218553  0.61994003  1
  O  O316  1  -0.00116139  0.51405072  0.12474909  1
  O  O317  1  -0.01649552  0.49380914  0.61666286  1
  O  O318  1  0.48795976  0.00888433  0.11442063  1
  O  O319  1  0.50306217  -0.00729466  0.62396075  1
  O  O320  1  0.51860214  0.50262500  0.13192764  1
  O  O321  1  0.55893751  0.58225344  0.58491570  1
  O  O322  1  0.24240453  0.36973126  0.22517883  1
  O  O323  1  0.11422677  0.32182441  0.82588938  1
  O  O324  1  0.25700401  0.90153545  0.23039514  1
  O  O325  1  0.25518471  0.88101829  0.75583809  1
  O  O326  1  0.74527392  0.38648270  0.25201883  1
  O  O327  1  0.74018206  0.33832311  0.73267052  1
  O  O328  1  0.74035576  0.87880228  0.24414710  1
  O  O329  1  0.74164787  0.87076013  0.73949745  1
  O  O330  1  0.26286559  0.13056476  0.24137442  1
  O  O331  1  0.26127918  0.10635646  0.75725241  1
  O  O332  1  0.24011367  0.62485712  0.25509216  1
  O  O333  1  0.24803637  0.64819054  0.79950557  1
  O  O334  1  0.74543579  0.10177116  0.24852226  1
  O  O335  1  0.72250983  0.10807771  0.75249002  1
  O  O336  1  0.75861634  0.62159566  0.25957698  1
  O  O337  1  0.73810668  0.60880703  0.69751967  1
  O  O338  1  0.37616993  0.13436509  0.35770664  1
  O  O339  1  0.36696637  0.11348323  0.86837799  1
  O  O340  1  0.37636639  0.61322606  0.35509555  1
  O  O341  1  0.40777154  0.58645467  0.86152375  1
  O  O342  1  0.88775292  0.10449484  0.38802387  1
  O  O343  1  0.86612114  0.10169630  0.82031652  1
  O  O344  1  0.87143481  0.63116046  0.36414531  1
  O  O345  1  0.90041968  0.60721334  0.87615560  1
  O  O346  1  0.13184203  0.38312980  0.11976084  1
  O  O347  1  0.15901414  0.41852180  0.68604218  1
  O  O348  1  0.14135899  0.90775855  0.12114874  1
  O  O349  1  0.15037463  0.86136323  0.63318602  1
  O  O350  1  0.63413119  0.38382309  0.14673051  1
  O  O351  1  0.59029149  0.39498054  0.62748493  1
  O  O352  1  0.63765622  0.86868154  0.13308291  1
  O  O353  1  0.63004237  0.87968771  0.63161891  1
  O  O354  1  0.11914602  0.26479310  0.25492257  1
  O  O355  1  0.04789331  0.31086749  0.79251369  1
  O  O356  1  0.15850781  0.75843753  0.27541307  1
  O  O357  1  0.10488900  0.77122085  0.76692807  1
  O  O358  1  0.61298479  0.25653405  0.24922837  1
  O  O359  1  0.61867183  0.22501858  0.74792928  1
  O  O360  1  0.62439228  0.76097847  0.25086633  1
  O  O361  1  0.62059382  0.76222560  0.75578559  1
  O  O362  1  0.38099361  0.24566083  0.23978071  1
  O  O363  1  0.39277941  0.22586714  0.75501276  1
  O  O364  1  0.35655738  0.74053274  0.22370230  1
  O  O365  1  0.39212294  0.74757380  0.74657757  1
  O  O366  1  0.89461968  0.24705056  0.27188190  1
  O  O367  1  0.83279616  0.20463344  0.69359523  1
  O  O368  1  0.86322838  0.73270674  0.24033383  1
  O  O369  1  0.87913055  0.76238993  0.73993904  1
  O  O370  1  0.37882834  0.50457585  0.47865249  1
  O  O371  1  0.39540475  0.47165616  0.99357046  1
  O  O372  1  0.33710113  0.97079528  0.48386732  1
  O  O373  1  0.38895012  1.00682888  0.98491494  1
  O  O374  1  0.88853262  0.49081063  0.49425725  1
  O  O375  1  0.83958794  0.47092148  0.99631323  1
  O  O376  1  0.87848934  0.98842740  0.49297549  1
  O  O377  1  0.87649092  0.99403853  1.02023847  1
  O  O378  1  0.10725293  0.01520853  0.01122451  1
  O  O379  1  0.14994093  0.01609439  0.49101188  1
  O  O380  1  0.12228080  0.51411435  -0.03934152  1
  O  O381  1  0.11380582  0.50491224  0.50875280  1
  O  O382  1  0.61201452  0.00599121  0.00095659  1
  O  O383  1  0.61702924  -0.01028133  0.50572705  1
  O  O384  1  0.64345609  0.51491950  0.01421489  1
  O  O385  1  0.60493763  0.50661924  0.48527440  1
  O  O386  1  0.37541164  0.36612576  0.10997522  1
  O  O387  1  0.39698176  0.41012477  0.59364109  1
  O  O388  1  0.35996401  0.87730180  0.12055714  1
  O  O389  1  0.35872196  0.85354126  0.63405372  1
  O  O390  1  0.85735543  0.38357608  0.13292603  1
  O  O391  1  0.88230141  0.35609164  0.59533749  1
  O  O392  1  0.86330714  0.86691673  0.12644717  1
  O  O393  1  0.87100485  0.87718025  0.61698289  1
  O  O394  1  0.13768650  0.14634574  0.38435665  1
  O  O395  1  0.14106065  0.11629668  0.87640353  1
  O  O396  1  0.13404570  0.61845868  0.38328476  1
  O  O397  1  0.10391385  0.66627595  0.90517663  1
  O  O398  1  0.61166279  0.09468515  0.39320381  1
  O  O399  1  0.64177800  0.11483743  0.88963135  1
  O  O400  1  0.64439034  0.63490278  0.36985985  1
  O  O401  1  0.62085293  0.64458012  0.88743874  1
