# generated using pymatgen
data_V73Zn73O256
_symmetry_space_group_name_H-M   'P 1'
_cell_length_a   16.86244425
_cell_length_b   16.86955332
_cell_length_c   16.86892602
_cell_angle_alpha   89.97490708
_cell_angle_beta   89.89825784
_cell_angle_gamma   90.11675294
_symmetry_Int_Tables_number   1
_chemical_formula_structural   V73Zn73O256
_chemical_formula_sum   'V73 Zn73 O256'
_cell_volume   4798.54879039
_cell_formula_units_Z   1
loop_
 _symmetry_equiv_pos_site_id
 _symmetry_equiv_pos_as_xyz
  1  'x, y, z'
loop_
 _atom_site_type_symbol
 _atom_site_label
 _atom_site_symmetry_multiplicity
 _atom_site_fract_x
 _atom_site_fract_y
 _atom_site_fract_z
 _atom_site_occupancy
  V  V0  1  0.36656204  0.23763061  0.60969882  1
  V  V1  1  0.15172935  0.37047468  0.73233670  1
  V  V2  1  0.87810806  0.62320121  0.25628166  1
  V  V3  1  0.37414900  0.63249741  0.24614885  1
  V  V4  1  0.62474699  0.37636241  0.25293254  1
  V  V5  1  0.73890894  0.50819336  0.73922031  1
  V  V6  1  -0.00819831  0.25949000  0.74628773  1
  V  V7  1  0.38428256  -0.01000091  0.37003858  1
  V  V8  1  0.50074948  0.37607166  0.87234684  1
  V  V9  1  0.37244168  0.87987521  0.01257127  1
  V  V10  1  0.13654483  0.13018651  0.49481322  1
  V  V11  1  0.23322802  0.88027666  0.13230711  1
  V  V12  1  0.25839255  0.24069559  -0.01164539  1
  V  V13  1  0.00098675  0.88910645  0.87713829  1
  V  V14  1  0.25805338  0.87270612  0.61946539  1
  V  V15  1  0.50261665  0.37481028  0.38331474  1
  V  V16  1  0.75538087  0.38185746  0.10790331  1
  V  V17  1  0.50290630  0.24782422  0.23987293  1
  V  V18  1  0.25267342  0.75045424  0.50268387  1
  V  V19  1  0.36016000  0.37782449  0.50681107  1
  V  V20  1  0.36460846  0.24640789  0.13290530  1
  V  V21  1  0.12211085  0.76514765  0.37994668  1
  V  V22  1  0.37058797  0.63887543  0.74570429  1
  V  V23  1  0.23787523  0.47971638  0.24470352  1
  V  V24  1  0.48774462  0.88711137  0.87941726  1
  V  V25  1  0.73496711  0.37265762  0.62907838  1
  V  V26  1  -0.00004938  -0.00493007  0.49143426  1
  V  V27  1  0.87271525  0.87100457  0.49582598  1
  V  V28  1  0.87819425  0.74032240  0.12339023  1
  V  V29  1  0.37497213  0.12241699  0.76443407  1
  V  V30  1  0.50587272  0.24683127  0.74078720  1
  V  V31  1  0.24100616  0.62742740  0.37567700  1
  V  V32  1  0.12748257  -0.00105190  0.62505336  1
  V  V33  1  0.74864442  0.50145080  0.25494775  1
  V  V34  1  0.11930677  0.74177594  0.88026422  1
  V  V35  1  0.75544505  0.88051325  0.63525456  1
  V  V36  1  0.88192474  0.37072358  0.51313258  1
  V  V37  1  0.62971634  0.24185645  0.88722918  1
  V  V38  1  0.80335422  0.57308358  0.92111917  1
  V  V39  1  0.61792090  0.00768691  0.61203258  1
  V  V40  1  0.88586020  0.62101869  0.74658921  1
  V  V41  1  0.00907391  0.75709231  0.25421595  1
  V  V42  1  0.25368350  0.73774499  0.00174470  1
  V  V43  1  0.61927757  0.50347952  0.12085075  1
  V  V44  1  -0.00696810  0.12945031  0.62721617  1
  V  V45  1  0.24526399  0.11603315  0.34413745  1
  V  V46  1  0.86569640  0.10884071  0.76250182  1
  V  V47  1  0.63983843  0.87629353  0.25714949  1
  V  V48  1  0.12368570  0.87101662  0.75253029  1
  V  V49  1  0.75299001  0.74833939  -0.00481638  1
  V  V50  1  0.51651360  0.74837321  0.25434995  1
  V  V51  1  0.49698822  0.63262241  0.12190808  1
  V  V52  1  0.86304029  0.01285726  0.36721699  1
  V  V53  1  0.61656542  0.62220784  -0.00643886  1
  V  V54  1  0.75244505  0.88088509  0.12933012  1
  V  V55  1  0.13226613  0.24398392  0.86190877  1
  V  V56  1  0.00139329  0.25467321  0.26589774  1
  V  V57  1  0.55900485  0.56936671  0.56746842  1
  V  V58  1  0.88420493  0.88514109  -0.00001735  1
  V  V59  1  0.11339220  0.11786629  0.00348422  1
  V  V60  1  0.13589397  0.51215227  0.62815300  1
  V  V61  1  0.36723094  0.49948203  0.86141059  1
  V  V62  1  0.01667768  0.61373641  0.11693354  1
  V  V63  1  0.37789507  0.49807112  0.37687302  1
  V  V64  1  0.74264826  0.24633795  0.48782039  1
  V  V65  1  0.87662255  0.49811735  0.38149248  1
  V  V66  1  0.62669123  0.74888278  0.87279915  1
  V  V67  1  0.73927885  0.63587641  0.39085303  1
  V  V68  1  0.63936579  0.89665736  0.76744619  1
  V  V69  1  0.88989752  0.75299422  0.63740808  1
  V  V70  1  0.25844509  0.00323881  0.76139314  1
  V  V71  1  0.37159834  0.38465165  0.00610024  1
  V  V72  1  0.00077214  0.52090700  0.51384445  1
  Zn  Zn73  1  0.88415819  0.25451546  0.11559864  1
  Zn  Zn74  1  0.51002671  0.02345436  0.05153828  1
  Zn  Zn75  1  0.59416039  0.77682496  0.42486096  1
  Zn  Zn76  1  0.02014791  0.38361146  0.37901398  1
  Zn  Zn77  1  0.43212687  0.71368268  0.58826839  1
  Zn  Zn78  1  0.39023871  0.08353049  0.22223659  1
  Zn  Zn79  1  0.50871864  0.74512543  0.75193467  1
  Zn  Zn80  1  0.40961514  0.87874742  0.49304879  1
  Zn  Zn81  1  0.24062585  0.61386131  0.87790459  1
  Zn  Zn82  1  0.17362570  0.20033356  0.18066241  1
  Zn  Zn83  1  0.19112745  0.18350012  0.67836090  1
  Zn  Zn84  1  0.19001337  0.68959924  0.18808231  1
  Zn  Zn85  1  0.19400750  0.68716427  0.69313219  1
  Zn  Zn86  1  0.70233639  0.20284998  0.19001816  1
  Zn  Zn87  1  0.69131320  0.18568726  0.68134953  1
  Zn  Zn88  1  0.69221809  0.68335609  0.18400224  1
  Zn  Zn89  1  0.69494708  0.69165950  0.68060435  1
  Zn  Zn90  1  0.18582995  0.30547133  0.33207481  1
  Zn  Zn91  1  0.32133915  0.30989131  0.80676782  1
  Zn  Zn92  1  0.31390567  0.81425892  0.31021889  1
  Zn  Zn93  1  0.30506366  0.81550173  0.81773031  1
  Zn  Zn94  1  0.82237104  0.31125743  0.31025483  1
  Zn  Zn95  1  0.80915240  0.30924645  0.80549694  1
  Zn  Zn96  1  0.81942346  0.81211458  0.31716955  1
  Zn  Zn97  1  0.81828189  0.81315761  0.81493908  1
  Zn  Zn98  1  0.19022993  0.45685717  0.44289711  1
  Zn  Zn99  1  0.19009439  0.41976481  0.92765247  1
  Zn  Zn100  1  0.19234467  0.94131848  0.43405644  1
  Zn  Zn101  1  0.18756701  0.93570760  0.94491606  1
  Zn  Zn102  1  0.68499200  0.44378409  0.44758121  1
  Zn  Zn103  1  0.67960140  0.43529041  0.92898001  1
  Zn  Zn104  1  0.69007321  0.93715201  0.43935480  1
  Zn  Zn105  1  0.66830539  0.95275723  0.95784893  1
  Zn  Zn106  1  0.30455990  0.05921703  0.06171032  1
  Zn  Zn107  1  0.32202605  0.05398637  0.55627280  1
  Zn  Zn108  1  0.30674811  0.55682941  0.06797034  1
  Zn  Zn109  1  0.31743897  0.56500215  0.56042561  1
  Zn  Zn110  1  0.79313331  0.05999451  0.03156640  1
  Zn  Zn111  1  0.80754557  0.06214372  0.56393354  1
  Zn  Zn112  1  0.86891226  0.51738482  0.09421206  1
  Zn  Zn113  1  0.81217413  0.56594958  0.56847984  1
  Zn  Zn114  1  0.43302147  0.44016830  0.19065098  1
  Zn  Zn115  1  0.44047341  0.43556029  0.68463930  1
  Zn  Zn116  1  0.42846916  0.91580035  0.19609209  1
  Zn  Zn117  1  0.45688484  0.90606979  0.67518672  1
  Zn  Zn118  1  0.97606151  0.40647151  0.16760154  1
  Zn  Zn119  1  0.93536545  0.44256426  0.68966762  1
  Zn  Zn120  1  0.93297990  0.93505451  0.19171207  1
  Zn  Zn121  1  0.94222428  0.94058873  0.68932540  1
  Zn  Zn122  1  0.04636443  0.08111651  0.31350810  1
  Zn  Zn123  1  0.06540185  0.06457003  0.81343686  1
  Zn  Zn124  1  0.06091937  0.56210421  0.31331068  1
  Zn  Zn125  1  0.07052949  0.55427592  0.80636699  1
  Zn  Zn126  1  0.54227024  0.03705472  0.25863448  1
  Zn  Zn127  1  0.55621904  0.06766069  0.82034363  1
  Zn  Zn128  1  0.56302418  0.56457205  0.31721015  1
  Zn  Zn129  1  0.55421713  0.56187058  0.80533746  1
  Zn  Zn130  1  0.37586190  0.22475896  0.38710193  1
  Zn  Zn131  1  0.44651361  0.18572563  0.94054892  1
  Zn  Zn132  1  0.43397778  0.68723584  0.42993728  1
  Zn  Zn133  1  0.43814000  0.69113740  0.93238684  1
  Zn  Zn134  1  0.93466579  0.18791270  0.44381767  1
  Zn  Zn135  1  0.94365631  0.18546356  0.92478417  1
  Zn  Zn136  1  0.93378662  0.69194919  0.43956758  1
  Zn  Zn137  1  0.94697597  0.68923342  0.93602926  1
  Zn  Zn138  1  0.06813189  0.31222035  0.04177823  1
  Zn  Zn139  1  0.10115812  0.33729148  0.52639870  1
  Zn  Zn140  1  0.06368415  0.80429148  0.06244782  1
  Zn  Zn141  1  0.06562227  0.81158739  0.56197080  1
  Zn  Zn142  1  0.55850679  0.31434635  0.06068350  1
  Zn  Zn143  1  0.56377152  0.30882617  0.56405161  1
  Zn  Zn144  1  0.56693607  0.82829847  0.06086814  1
  Zn  Zn145  1  0.57794762  0.81172769  0.58144611  1
  O  O146  1  0.12991506  0.13533813  0.10120010  1
  O  O147  1  0.11895313  0.11352468  0.61758788  1
  O  O148  1  0.11501859  0.61979154  0.13269082  1
  O  O149  1  0.12245219  0.61046740  0.64784119  1
  O  O150  1  0.63600480  0.12191733  0.12383269  1
  O  O151  1  0.63051317  0.10739749  0.62597997  1
  O  O152  1  0.61974137  0.62129343  0.11452288  1
  O  O153  1  0.61685559  0.62916751  0.62743014  1
  O  O154  1  0.38430629  0.38357281  0.38938133  1
  O  O155  1  0.37707600  0.38371750  0.87980030  1
  O  O156  1  0.37152750  0.88260453  0.37883875  1
  O  O157  1  0.38415191  0.87897738  0.87580144  1
  O  O158  1  0.86771721  0.39266146  0.39045265  1
  O  O159  1  0.87961732  0.36860059  0.88804718  1
  O  O160  1  0.87455635  0.88194103  0.39202081  1
  O  O161  1  0.88864204  0.87137638  0.88817720  1
  O  O162  1  0.25632933  0.01305441  0.37677474  1
  O  O163  1  0.24972385  -0.00766102  0.85925030  1
  O  O164  1  0.25858819  0.51085592  0.36863244  1
  O  O165  1  0.26146966  0.49650785  0.87969442  1
  O  O166  1  0.76371490  0.00320730  0.38219041  1
  O  O167  1  0.74014462  0.03277721  0.93947078  1
  O  O168  1  0.75510761  0.51092117  0.37151990  1
  O  O169  1  0.75141484  0.50279320  0.86422158  1
  O  O170  1  0.25104590  0.49455252  0.14420464  1
  O  O171  1  0.23477513  0.50489468  0.61390030  1
  O  O172  1  0.25212830  0.98019447  0.12464721  1
  O  O173  1  0.24088135  0.99215983  0.62603428  1
  O  O174  1  0.73773662  0.49930600  0.13802391  1
  O  O175  1  0.74860316  0.49477462  0.63298384  1
  O  O176  1  0.75667480  0.97856268  0.12171434  1
  O  O177  1  0.74177057  0.98839595  0.62405564  1
  O  O178  1  0.00068633  0.37108146  0.26943918  1
  O  O179  1  -0.00136030  0.36033573  0.73912414  1
  O  O180  1  -0.00247476  0.85496461  0.24633948  1
  O  O181  1  0.01093453  0.88095434  0.76482821  1
  O  O182  1  0.51043256  0.37294559  0.25041401  1
  O  O183  1  0.48305651  0.35666992  0.76095736  1
  O  O184  1  0.52160514  0.85612102  0.24360299  1
  O  O185  1  0.51867240  0.87933177  0.77262484  1
  O  O186  1  0.50581448  0.14835522  0.25546890  1
  O  O187  1  0.48548863  0.13404482  0.75323866  1
  O  O188  1  0.49682166  0.63005872  0.24204431  1
  O  O189  1  0.47927828  0.62947053  0.75483890  1
  O  O190  1  1.00355720  0.15370190  0.24074690  1
  O  O191  1  0.99713961  0.12486401  0.73968753  1
  O  O192  1  0.99178435  0.62909313  0.24526423  1
  O  O193  1  0.98485655  0.61458233  0.75830535  1
  O  O194  1  0.36769310  0.25342478  0.00481652  1
  O  O195  1  0.37811727  0.26241774  0.50216164  1
  O  O196  1  0.35693067  0.75474155  -0.01319232  1
  O  O197  1  0.36200309  0.75608238  0.49715581  1
  O  O198  1  0.87934085  0.26655025  -0.01610709  1
  O  O199  1  0.87034945  0.26849953  0.49988179  1
  O  O200  1  0.87162569  0.74928705  0.00744780  1
  O  O201  1  0.88476041  0.76600037  0.51376412  1
  O  O202  1  0.11910883  0.22697890  0.50698159  1
  O  O203  1  0.14102108  0.24970560  0.98295125  1
  O  O204  1  0.12848638  0.75039679  0.48653603  1
  O  O205  1  0.13334816  0.74993777  0.98624123  1
  O  O206  1  0.64230850  0.25744515  0.50066063  1
  O  O207  1  0.62384192  0.25871481  0.98788060  1
  O  O208  1  0.65546139  0.76448379  0.51702833  1
  O  O209  1  0.63518358  0.74343357  0.99509124  1
  O  O210  1  0.48929390  0.25647303  0.13355720  1
  O  O211  1  0.49051210  0.25435996  0.63609355  1
  O  O212  1  0.50791762  0.73868996  0.13506339  1
  O  O213  1  0.48903464  0.78913937  0.64879525  1
  O  O214  1  0.99323209  0.30065544  0.11985504  1
  O  O215  1  1.00538609  0.23231576  0.63492988  1
  O  O216  1  0.99779242  0.73687205  0.13678758  1
  O  O217  1  0.99000011  0.76000880  0.63194774  1
  O  O218  1  -0.00439840  0.25300795  0.37018666  1
  O  O219  1  0.01635010  0.24666926  0.85211544  1
  O  O220  1  0.01058895  0.74403562  0.36651304  1
  O  O221  1  0.01508708  0.75995300  0.87584131  1
  O  O222  1  0.48265005  0.27099668  0.35471643  1
  O  O223  1  0.50281452  0.25686484  0.86409834  1
  O  O224  1  0.50874255  0.73637490  0.35816032  1
  O  O225  1  0.51327490  0.76138615  0.87376168  1
  O  O226  1  0.23597139  0.11813570  0.50543167  1
  O  O227  1  0.24905048  0.13825105  0.99632213  1
  O  O228  1  0.25779132  0.63706111  0.48734685  1
  O  O229  1  0.25337848  0.63270219  0.99752884  1
  O  O230  1  0.76173487  0.14846515  0.50772001  1
  O  O231  1  0.66142866  0.11341376  1.05333905  1
  O  O232  1  0.75605945  0.62297518  0.48940978  1
  O  O233  1  0.74133420  0.62961343  0.98694293  1
  O  O234  1  0.26563681  0.36188034  -0.00463128  1
  O  O235  1  0.26168148  0.37834796  0.50259195  1
  O  O236  1  0.25894956  0.86724422  0.00492049  1
  O  O237  1  0.24076256  0.86560691  0.50828460  1
  O  O238  1  0.74570190  0.38928459  0.00919479  1
  O  O239  1  0.75859633  0.37709257  0.51176544  1
  O  O240  1  0.76635385  0.86411211  0.01272523  1
  O  O241  1  0.77042603  0.88229662  0.51403076  1
  O  O242  1  0.13879982  0.49847713  0.26136990  1
  O  O243  1  0.12403504  0.47915105  0.73864761  1
  O  O244  1  0.08237312  1.00572455  0.21223868  1
  O  O245  1  0.13603281  0.99416625  0.74400585  1
  O  O246  1  0.63081858  0.49667034  0.24450355  1
  O  O247  1  0.64004017  0.50594989  0.75534613  1
  O  O248  1  0.63658971  0.97598659  0.25195865  1
  O  O249  1  0.63259229  0.99622592  0.76587371  1
  O  O250  1  0.35823800  -0.02039993  0.26306161  1
  O  O251  1  0.36551028  0.01150251  0.74517694  1
  O  O252  1  0.36431828  0.50656363  0.25901506  1
  O  O253  1  0.37229246  0.50254848  0.75871386  1
  O  O254  1  0.88017571  -0.00521999  0.26836246  1
  O  O255  1  0.87603951  0.00826505  0.74985924  1
  O  O256  1  0.86613563  0.50892823  0.26273937  1
  O  O257  1  0.86669616  0.51571489  0.74645253  1
  O  O258  1  0.12855671  0.36597188  0.41295801  1
  O  O259  1  0.13804388  0.35695508  0.84551113  1
  O  O260  1  0.12664167  0.86404793  0.37421071  1
  O  O261  1  0.11637133  0.87041133  0.87313383  1
  O  O262  1  0.61199582  0.38589640  0.36643571  1
  O  O263  1  0.60449139  0.37087625  0.87254974  1
  O  O264  1  0.64709242  0.86161837  0.36074687  1
  O  O265  1  0.62685339  0.87071416  0.87573519  1
  O  O266  1  0.36457271  0.14092819  0.12600650  1
  O  O267  1  0.37914053  0.13558694  0.61603306  1
  O  O268  1  0.38570285  0.61561695  0.13454182  1
  O  O269  1  0.36465852  0.63238262  0.64027686  1
  O  O270  1  0.83048277  0.13722706  0.11214581  1
  O  O271  1  0.89132220  0.11677992  0.62990656  1
  O  O272  1  0.87928773  0.62921594  0.13727949  1
  O  O273  1  0.87449991  0.64210526  0.63515706  1
  O  O274  1  0.26009240  0.25592033  0.11288009  1
  O  O275  1  0.26735843  0.24726153  0.62038799  1
  O  O276  1  0.24014097  0.75361315  0.10497805  1
  O  O277  1  0.24062759  0.75911605  0.61452265  1
  O  O278  1  0.76050302  0.27998705  0.12677394  1
  O  O279  1  0.74926958  0.26923521  0.62235145  1
  O  O280  1  0.76353524  0.74537323  0.11432893  1
  O  O281  1  0.76734216  0.77086632  0.63598950  1
  O  O282  1  0.25792330  0.22113385  0.36889825  1
  O  O283  1  0.25263056  0.24979641  0.88141617  1
  O  O284  1  0.23868285  0.74804756  0.38054001  1
  O  O285  1  0.23553991  0.75227088  0.88562822  1
  O  O286  1  0.75530104  0.25894378  0.38689725  1
  O  O287  1  0.72634063  0.26219171  0.86361070  1
  O  O288  1  0.76071998  0.73370672  0.37352030  1
  O  O289  1  0.74440630  0.75753485  0.88771219  1
  O  O290  1  0.01290655  0.13506708  -0.00249916  1
  O  O291  1  0.00545022  0.11365329  0.51125486  1
  O  O292  1  0.00129306  0.63100216  0.01793217  1
  O  O293  1  -0.00551425  0.61989439  0.50592412  1
  O  O294  1  0.50205787  0.12539800  0.01140202  1
  O  O295  1  0.53894996  0.12997401  0.45991157  1
  O  O296  1  0.50727324  0.63400431  0.00815419  1
  O  O297  1  0.48956695  0.63575968  0.51749623  1
  O  O298  1  0.50223819  0.36926227  0.48439547  1
  O  O299  1  0.48260031  0.36529138  0.98264750  1
  O  O300  1  0.51345237  0.83654859  0.49002793  1
  O  O301  1  0.47680787  0.85319610  0.98934295  1
  O  O302  1  0.98766168  0.38378407  0.50120543  1
  O  O303  1  0.90522388  0.34538482  0.95742701  1
  O  O304  1  0.99317579  0.88936905  0.50819897  1
  O  O305  1  0.99211797  0.86688825  0.99326364  1
  O  O306  1  0.48825861  0.48845259  0.36451724  1
  O  O307  1  0.48771735  0.48332745  0.86630887  1
  O  O308  1  0.48405529  1.00408212  0.35527047  1
  O  O309  1  0.50531531  0.98613648  0.88721491  1
  O  O310  1  0.99282050  0.50535571  0.39195438  1
  O  O311  1  1.02835824  0.47047502  0.88782089  1
  O  O312  1  0.99848643  1.00318118  0.38889633  1
  O  O313  1  1.00668789  0.98795432  0.87983439  1
  O  O314  1  0.03194092  0.00021828  0.15621097  1
  O  O315  1  0.01224116  0.00601775  0.62031085  1
  O  O316  1  -0.01247814  0.51288245  0.12665952  1
  O  O317  1  0.00389836  0.50254393  0.61683851  1
  O  O318  1  0.47883824  0.01485424  0.16323989  1
  O  O319  1  0.51975720  -0.00799037  0.63703491  1
  O  O320  1  0.51305548  0.51089123  0.13288124  1
  O  O321  1  0.50382813  0.50764289  0.62698041  1
  O  O322  1  0.24849631  0.38174556  0.26344995  1
  O  O323  1  0.25109947  0.36853113  0.73453214  1
  O  O324  1  0.24676789  0.85245232  0.22924676  1
  O  O325  1  0.24606156  0.88593285  0.74107006  1
  O  O326  1  0.74075456  0.38730933  0.25344269  1
  O  O327  1  0.76099534  0.39084433  0.73687420  1
  O  O328  1  0.75333345  0.86430532  0.23928875  1
  O  O329  1  0.74543667  0.88093031  0.75582424  1
  O  O330  1  0.22663104  0.11569133  0.24614852  1
  O  O331  1  0.25840942  0.11227613  0.74432541  1
  O  O332  1  0.26024564  0.62915768  0.25827852  1
  O  O333  1  0.26445690  0.62760867  0.76312011  1
  O  O334  1  0.79094742  0.12504418  0.18283577  1
  O  O335  1  0.76960751  0.13091121  0.74211402  1
  O  O336  1  0.75902289  0.61795711  0.25619415  1
  O  O337  1  0.75993669  0.61444905  0.74432463  1
  O  O338  1  0.36059824  0.11220094  0.34462074  1
  O  O339  1  0.37266196  0.13011041  0.86254083  1
  O  O340  1  0.36924201  0.61640427  0.36545747  1
  O  O341  1  0.37736028  0.60756502  0.87292002  1
  O  O342  1  0.88105099  0.11182074  0.37898481  1
  O  O343  1  0.87720321  0.12050125  0.86299381  1
  O  O344  1  0.87093161  0.61828521  0.37132419  1
  O  O345  1  0.86808473  0.63525115  0.86450145  1
  O  O346  1  0.09687803  0.42463531  0.00215025  1
  O  O347  1  0.12707072  0.38069708  0.62911760  1
  O  O348  1  0.13283270  0.87365265  0.11653059  1
  O  O349  1  0.12989466  0.88117638  0.63430886  1
  O  O350  1  0.63216685  0.38591955  0.13021676  1
  O  O351  1  0.63523495  0.37857671  0.62624118  1
  O  O352  1  0.64956386  0.85325302  0.14128082  1
  O  O353  1  0.63622580  0.88675683  0.65369260  1
  O  O354  1  0.11359441  0.26459547  0.25034952  1
  O  O355  1  0.12460294  0.25556600  0.74191811  1
  O  O356  1  0.11486240  0.74516110  0.26107111  1
  O  O357  1  0.13695321  0.76500586  0.76326493  1
  O  O358  1  0.61645943  0.26251199  0.24061150  1
  O  O359  1  0.60713023  0.24305087  0.74851602  1
  O  O360  1  0.62078143  0.74435102  0.25085681  1
  O  O361  1  0.63404939  0.75698887  0.76469566  1
  O  O362  1  0.38325052  0.25743983  0.23412599  1
  O  O363  1  0.37643046  0.23403203  0.73623322  1
  O  O364  1  0.39046327  0.73785463  0.25628821  1
  O  O365  1  0.37368296  0.74092093  0.76233475  1
  O  O366  1  0.89281798  0.26304667  0.23658110  1
  O  O367  1  0.89002284  0.24060380  0.75358775  1
  O  O368  1  0.88634039  0.74135096  0.24535236  1
  O  O369  1  0.87707741  0.74156178  0.74510685  1
  O  O370  1  0.37306525  0.49084944  0.49105444  1
  O  O371  1  0.37178708  0.48761339  0.99514192  1
  O  O372  1  0.38090263  0.99597744  0.48065443  1
  O  O373  1  0.37953898  0.98199228  1.01035599  1
  O  O374  1  0.88520976  0.49885628  0.50079929  1
  O  O375  1  0.86361255  0.52253793  0.98079974  1
  O  O376  1  0.88726854  0.99402456  0.49834931  1
  O  O377  1  0.88575618  0.98218993  1.01537836  1
  O  O378  1  0.12814988  0.01820415  -0.00818844  1
  O  O379  1  0.11500522  0.00289281  0.50589439  1
  O  O380  1  0.02840995  0.46964612  -0.03471552  1
  O  O381  1  0.11084191  0.50369817  0.51512368  1
  O  O382  1  0.58811947  -0.05653302  0.03428762  1
  O  O383  1  0.62199401  -0.01138678  0.51274272  1
  O  O384  1  0.62770159  0.51261852  0.00560673  1
  O  O385  1  0.61320366  0.51265144  0.50248466  1
  O  O386  1  0.38260651  0.36942801  0.11031501  1
  O  O387  1  0.38274270  0.36749175  0.60916772  1
  O  O388  1  0.36811290  0.86003885  0.11369349  1
  O  O389  1  0.36025926  0.88523439  0.61496418  1
  O  O390  1  0.85706241  0.40468243  0.12373416  1
  O  O391  1  0.86910936  0.38279492  0.61438895  1
  O  O392  1  0.87499634  0.86058705  0.11927464  1
  O  O393  1  0.87547671  0.87043453  0.62533388  1
  O  O394  1  0.13378153  0.11493505  0.38518985  1
  O  O395  1  0.12825175  0.13738421  0.87787575  1
  O  O396  1  0.13733112  0.63200335  0.37193898  1
  O  O397  1  0.12274481  0.63699383  0.86699735  1
  O  O398  1  0.59450972  0.12755115  0.41334372  1
  O  O399  1  0.61823300  0.14193039  0.87763946  1
  O  O400  1  0.63809556  0.62697344  0.37511511  1
  O  O401  1  0.61303327  0.63500454  0.88288047  1
