# generated using pymatgen
data_V73Zn73O256
_symmetry_space_group_name_H-M   'P 1'
_cell_length_a   16.84690962
_cell_length_b   16.88500157
_cell_length_c   16.88864797
_cell_angle_alpha   90.23340043
_cell_angle_beta   90.15490176
_cell_angle_gamma   89.86427010
_symmetry_Int_Tables_number   1
_chemical_formula_structural   V73Zn73O256
_chemical_formula_sum   'V73 Zn73 O256'
_cell_volume   4804.07564314
_cell_formula_units_Z   1
loop_
 _symmetry_equiv_pos_site_id
 _symmetry_equiv_pos_as_xyz
  1  'x, y, z'
loop_
 _atom_site_type_symbol
 _atom_site_label
 _atom_site_symmetry_multiplicity
 _atom_site_fract_x
 _atom_site_fract_y
 _atom_site_fract_z
 _atom_site_occupancy
  V  V0  1  0.62767040  0.13672996  0.50191479  1
  V  V1  1  0.61186589  0.63195326  -0.00271971  1
  V  V2  1  0.25045254  0.87345055  0.12559055  1
  V  V3  1  -0.00982050  -0.01677842  -0.01121514  1
  V  V4  1  0.12937373  0.38078160  0.74979780  1
  V  V5  1  0.25612862  0.24627035  0.01557462  1
  V  V6  1  0.75182397  0.12968892  0.36805658  1
  V  V7  1  0.60134772  0.36241918  0.75311760  1
  V  V8  1  0.75345798  0.87232417  0.14236767  1
  V  V9  1  0.24819385  0.13037166  0.87377006  1
  V  V10  1  0.86576880  0.50188862  0.88598546  1
  V  V11  1  0.89689312  0.12557358  0.24579809  1
  V  V12  1  0.37359279  0.50732657  0.38325211  1
  V  V13  1  0.62066408  0.64264372  0.49800271  1
  V  V14  1  0.63569768  0.20769092  0.91180995  1
  V  V15  1  0.25175264  0.36995005  0.12825556  1
  V  V16  1  0.39975766  0.37509995  0.00775645  1
  V  V17  1  0.87748752  0.11759127  0.76315727  1
  V  V18  1  0.61203966  0.49279668  0.61498807  1
  V  V19  1  0.24588704  0.36945047  0.60648547  1
  V  V20  1  0.74556398  0.48544006  0.73905504  1
  V  V21  1  0.14220705  0.62932483  0.48820165  1
  V  V22  1  0.24412272  0.13384921  0.38616473  1
  V  V23  1  0.74149429  0.00789080  0.77298641  1
  V  V24  1  -0.00187513  0.76606253  0.25330038  1
  V  V25  1  -0.00901465  0.62501040  0.13691490  1
  V  V26  1  0.75769466  0.53692563  0.25707408  1
  V  V27  1  0.50166418  0.12559088  0.12155701  1
  V  V28  1  -0.01269030  0.86985856  0.84619448  1
  V  V29  1  0.50980341  0.24915657  0.25296443  1
  V  V30  1  0.25194804  0.86668307  0.62425975  1
  V  V31  1  0.37046119  0.25528988  0.59878161  1
  V  V32  1  0.24191772  0.73780376  -0.00788229  1
  V  V33  1  -0.00929626  0.38480407  0.88578855  1
  V  V34  1  -0.01256862  0.25601498  0.75038230  1
  V  V35  1  0.87690373  0.37489857  0.51149534  1
  V  V36  1  0.37605645  0.73993957  0.13153881  1
  V  V37  1  0.12905717  0.50228247  0.62640884  1
  V  V38  1  0.63793853  0.38605367  0.25437812  1
  V  V39  1  0.50238522  0.13568469  0.62924364  1
  V  V40  1  0.11325822  0.12064756  -0.00114597  1
  V  V41  1  0.50166753  0.61311956  0.13175971  1
  V  V42  1  0.50797663  -0.00090951  0.50401581  1
  V  V43  1  0.37564822  0.00193808  0.87420308  1
  V  V44  1  0.75635109  0.25839786  0.51188098  1
  V  V45  1  0.12250777  0.75400323  0.85925047  1
  V  V46  1  0.35189454  0.61830446  0.75708191  1
  V  V47  1  0.36999398  0.12875671  0.24715711  1
  V  V48  1  0.59561016  0.85553853  0.74781121  1
  V  V49  1  0.37463408  0.86938588  0.50390956  1
  V  V50  1  0.00557526  -0.01152303  0.49585880  1
  V  V51  1  0.12128661  0.25464130  0.87631098  1
  V  V52  1  0.61941132  -0.01528697  0.14809471  1
  V  V53  1  0.24615372  0.00023855  0.74701628  1
  V  V54  1  0.73931283  0.63482881  0.86986150  1
  V  V55  1  0.37477663  0.14540683  0.75230168  1
  V  V56  1  0.75880430  0.76076481  -0.00076510  1
  V  V57  1  0.11437479  0.61599946  -0.00306092  1
  V  V58  1  -0.00018820  0.13960391  0.61510256  1
  V  V59  1  0.49146904  0.37456861  0.38311002  1
  V  V60  1  0.51043518  0.76069689  0.26039502  1
  V  V61  1  0.38269866  0.85754441  -0.02141085  1
  V  V62  1  0.12627439  0.00942446  0.62389877  1
  V  V63  1  0.25482535  0.51376366  0.25061494  1
  V  V64  1  0.87863729  -0.00739391  0.37852143  1
  V  V65  1  -0.00257026  0.36458367  0.36615182  1
  V  V66  1  0.12057652  -0.00580706  0.12256535  1
  V  V67  1  0.14050563  0.77461669  0.36833661  1
  V  V68  1  0.38231710  -0.00410407  0.37177540  1
  V  V69  1  0.48908118  0.64392456  0.63305134  1
  V  V70  1  0.12369113  0.36325222  0.25586490  1
  V  V71  1  0.50574834  -0.00317058  -0.00436778  1
  V  V72  1  0.00236077  0.50614629  0.49569000  1
  Zn  Zn73  1  0.00030224  0.63854773  0.63296453  1
  Zn  Zn74  1  0.11958675  0.49862515  0.12575775  1
  Zn  Zn75  1  0.90257672  0.26364295  0.12897306  1
  Zn  Zn76  1  0.81135497  0.35799707  0.03014082  1
  Zn  Zn77  1  0.87395158  0.52156749  0.37315113  1
  Zn  Zn78  1  0.38573495  0.49381366  0.87281757  1
  Zn  Zn79  1  0.66664512  0.47190816  0.09545221  1
  Zn  Zn80  1  0.24003708  -0.00525837  0.25619843  1
  Zn  Zn81  1  0.87144057  0.62210340  0.73461579  1
  Zn  Zn82  1  0.07627071  0.18127445  0.18458960  1
  Zn  Zn83  1  0.18511818  0.19383464  0.68497114  1
  Zn  Zn84  1  0.17597243  0.69048538  0.18584874  1
  Zn  Zn85  1  0.19358241  0.68166064  0.68343775  1
  Zn  Zn86  1  0.68067334  0.17578985  0.18866497  1
  Zn  Zn87  1  0.69421263  0.18824318  0.68988320  1
  Zn  Zn88  1  0.68325124  0.69560831  0.18443714  1
  Zn  Zn89  1  0.67983334  0.67963065  0.68309037  1
  Zn  Zn90  1  0.31310209  0.30904318  0.31102769  1
  Zn  Zn91  1  0.31154563  0.33624095  0.82575100  1
  Zn  Zn92  1  0.32048983  0.81056526  0.31494616  1
  Zn  Zn93  1  0.41283825  0.80533783  0.80055914  1
  Zn  Zn94  1  0.82091356  0.30634169  0.31262369  1
  Zn  Zn95  1  0.80071946  0.30733227  0.82120767  1
  Zn  Zn96  1  0.81557675  0.80614237  0.31857637  1
  Zn  Zn97  1  0.79348345  0.82546135  0.80400817  1
  Zn  Zn98  1  0.18853684  0.43976177  0.43031952  1
  Zn  Zn99  1  0.19813307  0.43981830  0.93343858  1
  Zn  Zn100  1  0.19521722  0.95272356  0.44402554  1
  Zn  Zn101  1  0.18836519  0.92995712  0.93405717  1
  Zn  Zn102  1  0.68709927  0.44178661  0.42948610  1
  Zn  Zn103  1  0.66557017  0.44622507  0.92251226  1
  Zn  Zn104  1  0.71719054  0.96039990  0.48563712  1
  Zn  Zn105  1  0.68099634  0.93709701  0.92804655  1
  Zn  Zn106  1  0.31501301  0.05906648  0.05915024  1
  Zn  Zn107  1  0.31858313  0.06511767  0.56181249  1
  Zn  Zn108  1  0.31259003  0.55509486  0.06213353  1
  Zn  Zn109  1  0.31959278  0.55650077  0.56427197  1
  Zn  Zn110  1  0.81365689  0.04185590  0.07297121  1
  Zn  Zn111  1  0.82717287  0.07784526  0.56162643  1
  Zn  Zn112  1  0.81097796  0.57644124  0.06263565  1
  Zn  Zn113  1  0.83015851  0.61315842  0.52716965  1
  Zn  Zn114  1  0.43409943  0.43140514  0.18985761  1
  Zn  Zn115  1  0.43104814  0.43804958  0.68098724  1
  Zn  Zn116  1  0.43321754  0.93099536  0.17968747  1
  Zn  Zn117  1  0.43565720  0.95034610  0.68563237  1
  Zn  Zn118  1  0.92560199  0.44820413  0.18227553  1
  Zn  Zn119  1  0.93785178  0.44889722  0.68890847  1
  Zn  Zn120  1  0.93581440  0.94183397  0.18755164  1
  Zn  Zn121  1  0.92342758  0.94145782  0.67246654  1
  Zn  Zn122  1  0.06720887  0.05007423  0.31520481  1
  Zn  Zn123  1  0.05796251  0.06008483  0.81139184  1
  Zn  Zn124  1  0.06837297  0.55918383  0.30878355  1
  Zn  Zn125  1  0.05514265  0.57010782  0.80920696  1
  Zn  Zn126  1  0.56475897  0.06357280  0.31882534  1
  Zn  Zn127  1  0.56304516  0.08567107  0.82103313  1
  Zn  Zn128  1  0.55965853  0.56168968  0.31432201  1
  Zn  Zn129  1  0.55104309  0.55358599  0.80443708  1
  Zn  Zn130  1  0.43925132  0.18474074  0.43073517  1
  Zn  Zn131  1  0.43792953  0.21967347  0.92111141  1
  Zn  Zn132  1  0.44661441  0.68227825  0.44176428  1
  Zn  Zn133  1  0.42453598  0.67685264  0.93610469  1
  Zn  Zn134  1  0.93694527  0.19024056  0.43098043  1
  Zn  Zn135  1  0.92752469  0.19313343  0.94816271  1
  Zn  Zn136  1  0.95565486  0.69889635  0.43148514  1
  Zn  Zn137  1  0.93882714  0.68984319  0.93325473  1
  Zn  Zn138  1  0.06389299  0.31811522  0.06270347  1
  Zn  Zn139  1  0.06421204  0.31211070  0.55530660  1
  Zn  Zn140  1  0.05523989  0.80843853  0.06351798  1
  Zn  Zn141  1  0.07985367  0.81691459  0.55475502  1
  Zn  Zn142  1  0.60604904  0.32620634  0.05187923  1
  Zn  Zn143  1  0.56634697  0.31315717  0.56458562  1
  Zn  Zn144  1  0.56402379  0.80896061  0.05817671  1
  Zn  Zn145  1  0.56462234  0.81881077  0.57639477  1
  O  O146  1  0.12936016  0.10460055  0.11064057  1
  O  O147  1  0.11101169  0.12062416  0.63371937  1
  O  O148  1  0.11804084  0.62100537  0.11136590  1
  O  O149  1  0.12068457  0.61747975  0.61522926  1
  O  O150  1  0.60812186  0.10150594  0.13547177  1
  O  O151  1  0.61454327  0.13858610  0.61401284  1
  O  O152  1  0.61066590  0.63235279  0.11235720  1
  O  O153  1  0.60851644  0.61447684  0.62114280  1
  O  O154  1  0.38611662  0.37484836  0.36938407  1
  O  O155  1  0.39981236  0.33635623  0.90867618  1
  O  O156  1  0.37231480  0.88883005  0.38750544  1
  O  O157  1  0.35904757  0.89907038  0.86809438  1
  O  O158  1  0.89049040  0.38063023  0.37221149  1
  O  O159  1  0.88136823  0.38305367  0.87480282  1
  O  O160  1  0.86806797  0.89413598  0.37912799  1
  O  O161  1  0.88899410  0.85986815  0.86128166  1
  O  O162  1  0.26840483  0.00695426  0.37153525  1
  O  O163  1  0.25084426  0.01425916  0.86890843  1
  O  O164  1  0.26098471  0.49392909  0.36052677  1
  O  O165  1  0.28300775  0.44233391  0.86290938  1
  O  O166  1  0.77086074  0.01930800  0.39731031  1
  O  O167  1  0.75757636  0.00204243  0.87204389  1
  O  O168  1  0.75377969  0.50216441  0.36004484  1
  O  O169  1  0.75330457  0.50776978  0.86567520  1
  O  O170  1  0.24981863  0.48732697  0.13435280  1
  O  O171  1  0.24011260  0.48117352  0.61801928  1
  O  O172  1  0.24428054  0.98506811  0.11532265  1
  O  O173  1  0.24254527  1.01198256  0.63104246  1
  O  O174  1  0.75200746  0.52413256  0.14715238  1
  O  O175  1  0.73604355  0.50375155  0.64071345  1
  O  O176  1  0.72741883  0.98642990  0.12525677  1
  O  O177  1  0.77919333  0.97011996  0.58886995  1
  O  O178  1  0.01198214  0.38505106  0.25767604  1
  O  O179  1  0.00562053  0.37128159  0.75625803  1
  O  O180  1  0.00304023  0.86619583  0.24047202  1
  O  O181  1  -0.00812937  0.88052001  0.74572240  1
  O  O182  1  0.49989041  0.35755274  0.25167856  1
  O  O183  1  0.50136747  0.36722762  0.73923283  1
  O  O184  1  0.48740122  0.85893680  0.24655962  1
  O  O185  1  0.48820948  0.87219414  0.74983566  1
  O  O186  1  0.49618764  0.13120974  0.25045082  1
  O  O187  1  0.48758093  0.12253130  0.73684901  1
  O  O188  1  0.50664734  0.63552468  0.23398760  1
  O  O189  1  0.50254281  0.62931923  0.73656654  1
  O  O190  1  1.00124419  0.12597982  0.25534699  1
  O  O191  1  0.99308916  0.13574924  0.74843002  1
  O  O192  1  1.00871654  0.63171176  0.24182927  1
  O  O193  1  0.98648402  0.63417288  0.74789947  1
  O  O194  1  0.35890072  0.24146868  0.01188932  1
  O  O195  1  0.37017509  0.24854097  0.50117967  1
  O  O196  1  0.35311731  0.74257566  0.01390457  1
  O  O197  1  0.38429997  0.77216206  0.49422347  1
  O  O198  1  0.87196101  0.26196913  0.01357091  1
  O  O199  1  0.87015695  0.26348777  0.49644127  1
  O  O200  1  0.85846351  0.74812393  -0.00610117  1
  O  O201  1  0.92598140  0.75704672  0.53813194  1
  O  O202  1  0.13112743  0.24245958  0.50157747  1
  O  O203  1  0.12931902  0.24104799  0.98924202  1
  O  O204  1  0.12429839  0.73787801  0.48370987  1
  O  O205  1  0.13235393  0.74204158  1.00065561  1
  O  O206  1  0.64251654  0.24843455  0.49974598  1
  O  O207  1  0.61978309  0.22483065  1.01174219  1
  O  O208  1  0.61069999  0.74414304  0.50574412  1
  O  O209  1  0.63357945  0.73934974  0.99693023  1
  O  O210  1  0.50020396  0.22721794  0.13712729  1
  O  O211  1  0.48162271  0.24678495  0.61545479  1
  O  O212  1  0.48481028  0.74652823  0.12685825  1
  O  O213  1  0.48993858  0.74400631  0.62758854  1
  O  O214  1  1.01029328  0.23442803  0.11099338  1
  O  O215  1  1.00692190  0.24575128  0.63707947  1
  O  O216  1  1.01283976  0.74002325  0.14210876  1
  O  O217  1  0.98230173  0.75626428  0.59557898  1
  O  O218  1  0.00018149  0.26516372  0.37162264  1
  O  O219  1  0.00391259  0.26459188  0.87129144  1
  O  O220  1  0.02269052  0.75429344  0.36317710  1
  O  O221  1  0.01062793  0.76121497  0.87310107  1
  O  O222  1  0.49780921  0.25558084  0.36070406  1
  O  O223  1  0.53631488  0.21156787  0.86915534  1
  O  O224  1  0.48724351  0.74542506  0.35704263  1
  O  O225  1  0.44065782  0.78894420  0.91257262  1
  O  O226  1  0.25638120  0.12048825  0.48594051  1
  O  O227  1  0.24201753  0.13078344  0.99332275  1
  O  O228  1  0.23974285  0.62068631  0.50952723  1
  O  O229  1  0.23825568  0.63255599  1.00928543  1
  O  O230  1  0.74814809  0.13896740  0.50177524  1
  O  O231  1  0.75650397  0.14678402  1.04312138  1
  O  O232  1  0.72029132  0.63069697  0.51821007  1
  O  O233  1  0.74172096  0.63859504  0.98846381  1
  O  O234  1  0.24556600  0.35687417  0.01068357  1
  O  O235  1  0.23729792  0.36699833  0.50784522  1
  O  O236  1  0.26156471  0.86053522  -0.00053077  1
  O  O237  1  0.26462039  0.88504697  0.51144615  1
  O  O238  1  0.70386616  0.38781992  0.01515366  1
  O  O239  1  0.76512160  0.36787073  0.48968896  1
  O  O240  1  0.74138029  0.86175555  -0.00813300  1
  O  O241  1  0.75274265  0.80145064  0.47045827  1
  O  O242  1  0.14203313  0.48912674  0.24985234  1
  O  O243  1  0.11434146  0.49242009  0.73896658  1
  O  O244  1  0.12493709  0.99782449  0.22674798  1
  O  O245  1  0.13565994  1.00743271  0.74083742  1
  O  O246  1  0.64201269  0.49526621  0.25542996  1
  O  O247  1  0.62936352  0.48884954  0.74316230  1
  O  O248  1  0.61461698  0.98746080  0.24742284  1
  O  O249  1  0.64298498  1.03010207  0.75462151  1
  O  O250  1  0.38810669  0.00280934  0.26493006  1
  O  O251  1  0.36550332  0.01964116  0.75535754  1
  O  O252  1  0.35991051  0.49403748  0.25340774  1
  O  O253  1  0.38573690  0.51189292  0.75190839  1
  O  O254  1  0.88804705  0.00962669  0.27126111  1
  O  O255  1  0.87631349  0.01458858  0.75203812  1
  O  O256  1  0.86302969  0.51579800  0.25546774  1
  O  O257  1  0.85802558  0.49767817  0.75804401  1
  O  O258  1  0.11678473  0.37703230  0.36335327  1
  O  O259  1  0.11466842  0.37300038  0.86871595  1
  O  O260  1  0.13712919  0.87490570  0.38068995  1
  O  O261  1  0.12075044  0.85943961  0.87088033  1
  O  O262  1  0.60681927  0.38188878  0.36035070  1
  O  O263  1  0.61108804  0.37554827  0.85458834  1
  O  O264  1  0.70579239  0.85822252  0.43412671  1
  O  O265  1  0.62670414  0.88833617  0.84022590  1
  O  O266  1  0.38796851  0.10413913  0.14130426  1
  O  O267  1  0.37622502  0.14457305  0.63106929  1
  O  O268  1  0.38590235  0.63198139  0.11585990  1
  O  O269  1  0.38366268  0.61588882  0.63577755  1
  O  O270  1  0.88010098  0.09916016  0.14959062  1
  O  O271  1  0.89589159  0.12765514  0.63756004  1
  O  O272  1  0.89228923  0.63261309  0.11941505  1
  O  O273  1  0.88876029  0.60433372  0.62101883  1
  O  O274  1  0.23883256  0.25178363  0.11569970  1
  O  O275  1  0.25962978  0.25634371  0.62237794  1
  O  O276  1  0.25218304  0.75882576  0.12117104  1
  O  O277  1  0.24334235  0.76848606  0.62641835  1
  O  O278  1  0.75718059  0.19869493  0.10094714  1
  O  O279  1  0.75717727  0.25296417  0.61057208  1
  O  O280  1  0.74560325  0.76389956  0.11104470  1
  O  O281  1  0.77744688  0.74811979  0.64965342  1
  O  O282  1  0.25598253  0.23250551  0.36927374  1
  O  O283  1  0.23993079  0.24504712  0.88400887  1
  O  O284  1  0.24047522  0.75335349  0.37022500  1
  O  O285  1  0.23493455  0.74490170  0.89018262  1
  O  O286  1  0.76039625  0.23365066  0.38586540  1
  O  O287  1  0.72377807  0.25248644  0.87935056  1
  O  O288  1  0.78163319  0.74994409  0.41842815  1
  O  O289  1  0.75349922  0.73944426  0.87510581  1
  O  O290  1  0.01039319  0.10945920  -0.01910655  1
  O  O291  1  0.00021966  0.13883001  0.51384073  1
  O  O292  1  0.00970910  0.63276018  0.00988334  1
  O  O293  1  0.01608955  0.61032477  0.50082033  1
  O  O294  1  0.48656677  0.10806404  0.01876004  1
  O  O295  1  0.50959933  0.12594388  0.50417762  1
  O  O296  1  0.50656259  0.63520968  0.00682010  1
  O  O297  1  0.50363401  0.62462698  0.52196200  1
  O  O298  1  0.50403018  0.36505123  0.48123664  1
  O  O299  1  0.49606113  0.36850409  1.03052397  1
  O  O300  1  0.49228097  0.89450276  0.51313612  1
  O  O301  1  0.48969892  0.88942338  1.00961371  1
  O  O302  1  0.99471770  0.37839684  0.48746086  1
  O  O303  1  1.00747718  0.38202869  0.98356745  1
  O  O304  1  1.00264458  0.89048120  0.50503958  1
  O  O305  1  0.99893247  0.88062176  0.99257132  1
  O  O306  1  0.48442801  0.48398104  0.36166404  1
  O  O307  1  0.49861350  0.50011308  0.88491768  1
  O  O308  1  0.49320068  1.00763183  0.39202090  1
  O  O309  1  0.48913469  1.01418199  0.88846032  1
  O  O310  1  1.00507245  0.49349600  0.38688107  1
  O  O311  1  0.98126651  0.49272898  0.86921584  1
  O  O312  1  0.99764545  1.00017129  0.38809019  1
  O  O313  1  1.00734128  0.97905081  0.87788996  1
  O  O314  1  0.01519352  -0.01395076  0.10738885  1
  O  O315  1  0.00671435  0.01243274  0.61381471  1
  O  O316  1  0.00250926  0.51723320  0.13144360  1
  O  O317  1  0.01575885  0.48896236  0.60828735  1
  O  O318  1  0.50684565  -0.00112126  0.11981260  1
  O  O319  1  0.48640531  0.02325131  0.60983523  1
  O  O320  1  0.49519049  0.51378891  0.13342322  1
  O  O321  1  0.50961682  0.50010325  0.62265866  1
  O  O322  1  0.24112401  0.37224303  0.24289592  1
  O  O323  1  0.23077387  0.36111260  0.73696406  1
  O  O324  1  0.26541015  0.88004389  0.22879699  1
  O  O325  1  0.26169144  0.89596042  0.73023266  1
  O  O326  1  0.73526622  0.36291603  0.25902392  1
  O  O327  1  0.74351354  0.38386048  0.75178116  1
  O  O328  1  0.74918628  0.85917396  0.24093076  1
  O  O329  1  0.75478303  0.90990945  0.74003521  1
  O  O330  1  0.26910472  0.11349232  0.25192063  1
  O  O331  1  0.25392844  0.12608087  0.75823617  1
  O  O332  1  0.24600591  0.61192832  0.23967637  1
  O  O333  1  0.25244752  0.60472018  0.74147382  1
  O  O334  1  0.74957387  0.12231875  0.26641041  1
  O  O335  1  0.77055498  0.11728228  0.73599190  1
  O  O336  1  0.74503855  0.63648318  0.26210709  1
  O  O337  1  0.74778508  0.61792344  0.76189098  1
  O  O338  1  0.37260912  0.11511553  0.36515282  1
  O  O339  1  0.36459753  0.12526752  0.87195480  1
  O  O340  1  0.38322934  0.60671413  0.37845863  1
  O  O341  1  0.36550941  0.61338782  0.86589205  1
  O  O342  1  0.87182888  0.12251649  0.36350955  1
  O  O343  1  0.88057415  0.13065745  0.86232963  1
  O  O344  1  0.87279619  0.62608762  0.42146223  1
  O  O345  1  0.86381217  0.61250993  0.87653741  1
  O  O346  1  0.13223824  0.37934744  0.13483510  1
  O  O347  1  0.13093810  0.37903275  0.62867168  1
  O  O348  1  0.14173687  0.88109349  0.11008992  1
  O  O349  1  0.14354857  0.89259092  0.61625693  1
  O  O350  1  0.61416799  0.38390635  0.15113900  1
  O  O351  1  0.62126281  0.38637600  0.63353551  1
  O  O352  1  0.62798688  0.88046576  0.12496982  1
  O  O353  1  0.61451296  0.88950039  0.65151349  1
  O  O354  1  0.12455074  0.26431349  0.24854969  1
  O  O355  1  0.11376261  0.25648834  0.76184901  1
  O  O356  1  0.12440979  0.75675708  0.26236003  1
  O  O357  1  0.13035279  0.74081442  0.76139264  1
  O  O358  1  0.61431887  0.25264379  0.24608403  1
  O  O359  1  0.62627700  0.26420516  0.73680860  1
  O  O360  1  0.61065083  0.75570751  0.24927556  1
  O  O361  1  0.62256580  0.75777704  0.74557781  1
  O  O362  1  0.38375693  0.23286944  0.24802684  1
  O  O363  1  0.36650886  0.24543720  0.76221405  1
  O  O364  1  0.37190918  0.74595208  0.23305645  1
  O  O365  1  0.36089672  0.72141924  0.75139541  1
  O  O366  1  0.87287786  0.22910615  0.24130295  1
  O  O367  1  0.88308585  0.24762892  0.75724551  1
  O  O368  1  0.89823373  0.74949121  0.26535880  1
  O  O369  1  0.83020147  0.75258157  0.70760777  1
  O  O370  1  0.36546114  0.49055808  0.48237507  1
  O  O371  1  0.37382486  0.47596204  1.00017052  1
  O  O372  1  0.38638744  1.00010592  0.48990528  1
  O  O373  1  0.37833941  0.98699637  0.98975350  1
  O  O374  1  0.89221500  0.48567924  0.49596315  1
  O  O375  1  0.85624424  0.49530600  0.98626232  1
  O  O376  1  0.89883849  1.01798868  0.48905157  1
  O  O377  1  0.89279191  1.00428733  0.99927686  1
  O  O378  1  0.12010618  0.00249694  0.00009047  1
  O  O379  1  0.11478115  0.00817661  0.50861935  1
  O  O380  1  0.13227873  0.51291391  -0.00654765  1
  O  O381  1  0.12145366  0.50409898  0.50431808  1
  O  O382  1  0.60648256  -0.00886203  0.00139764  1
  O  O383  1  0.61367148  0.01283023  0.50378385  1
  O  O384  1  0.62809959  0.52739217  0.00033803  1
  O  O385  1  0.62971037  0.49452696  0.51455249  1
  O  O386  1  0.36165472  0.36885849  0.11795935  1
  O  O387  1  0.35926196  0.36399392  0.62162368  1
  O  O388  1  0.36666901  0.86008058  0.10736258  1
  O  O389  1  0.36549663  0.88599086  0.61372507  1
  O  O390  1  0.86181374  0.37106681  0.13418102  1
  O  O391  1  0.88347555  0.37846367  0.60978746  1
  O  O392  1  0.85123069  0.89395504  0.12528637  1
  O  O393  1  0.83900614  0.91252126  0.59438553  1
  O  O394  1  0.14753531  0.11041866  0.36514510  1
  O  O395  1  0.13063476  0.13362216  0.87686551  1
  O  O396  1  0.13322188  0.61677263  0.38794233  1
  O  O397  1  0.11282005  0.63740490  0.88917038  1
  O  O398  1  0.64145670  0.11964319  0.38849621  1
  O  O399  1  0.64861443  0.10825535  0.90070782  1
  O  O400  1  0.60640676  0.61822403  0.39972517  1
  O  O401  1  0.63442957  0.62445718  0.88044837  1
