# generated using pymatgen
data_V73Zn73O256
_symmetry_space_group_name_H-M   'P 1'
_cell_length_a   16.93734883
_cell_length_b   16.89990843
_cell_length_c   16.84557058
_cell_angle_alpha   89.87665007
_cell_angle_beta   89.95614412
_cell_angle_gamma   89.94574880
_symmetry_Int_Tables_number   1
_chemical_formula_structural   V73Zn73O256
_chemical_formula_sum   'V73 Zn73 O256'
_cell_volume   4821.85539040
_cell_formula_units_Z   1
loop_
 _symmetry_equiv_pos_site_id
 _symmetry_equiv_pos_as_xyz
  1  'x, y, z'
loop_
 _atom_site_type_symbol
 _atom_site_label
 _atom_site_symmetry_multiplicity
 _atom_site_fract_x
 _atom_site_fract_y
 _atom_site_fract_z
 _atom_site_occupancy
  V  V0  1  0.36571308  0.37602663  0.50166123  1
  V  V1  1  0.62742057  0.02086227  0.12106650  1
  V  V2  1  0.50828320  0.37525649  0.37867673  1
  V  V3  1  0.48595510  0.24483913  0.25236206  1
  V  V4  1  0.74012748  0.87449350  0.12741005  1
  V  V5  1  0.25705922  0.13869581  0.85121440  1
  V  V6  1  0.64297630  0.12675157  0.49478250  1
  V  V7  1  0.13215451  -0.02578126  0.62463195  1
  V  V8  1  -0.00721810  0.77417263  0.77573568  1
  V  V9  1  -0.01346086  0.50837021  -0.00627882  1
  V  V10  1  0.12400124  0.62931844  -0.01072604  1
  V  V11  1  0.62657225  0.24020404  0.88194671  1
  V  V12  1  0.25627509  0.75113962  0.51165557  1
  V  V13  1  0.26306801  0.26064304  0.00814986  1
  V  V14  1  -0.00884340  0.11904170  0.63710727  1
  V  V15  1  0.50708509  0.72506394  0.75191279  1
  V  V16  1  0.63547556  0.37158419  0.74849400  1
  V  V17  1  0.87772949  0.00677237  0.37519892  1
  V  V18  1  0.25791973  0.62587292  0.36095751  1
  V  V19  1  0.36562382  0.25000667  0.62265893  1
  V  V20  1  -0.00470313  0.62393610  0.14333258  1
  V  V21  1  0.25397281  -0.02517718  0.74575160  1
  V  V22  1  0.88304691  0.50757483  0.37423861  1
  V  V23  1  0.01599917  -0.00304223  -0.01421960  1
  V  V24  1  0.74554888  0.62895567  0.36502174  1
  V  V25  1  0.13787884  0.87592696  0.24190070  1
  V  V26  1  0.63195867  0.75459820  0.89702066  1
  V  V27  1  0.13334934  0.74795059  0.38084103  1
  V  V28  1  0.38528284  0.73485944  0.62978647  1
  V  V29  1  0.37319354  0.00367142  0.35206821  1
  V  V30  1  0.13186247  0.13881519  0.50046514  1
  V  V31  1  0.88970335  0.86555629  0.51273322  1
  V  V32  1  0.63835898  0.24451455  0.36968903  1
  V  V33  1  0.87334566  0.34838037  0.00448173  1
  V  V34  1  0.00020874  0.36326037  0.38368389  1
  V  V35  1  0.37132393  -0.00335846  0.87756602  1
  V  V36  1  0.49698219  0.49890322  0.01599661  1
  V  V37  1  0.37079985  0.50233538  0.36628785  1
  V  V38  1  0.61750823  -0.00221079  0.61486956  1
  V  V39  1  0.86298288  0.60272847  0.76267834  1
  V  V40  1  0.47404024  0.12965754  0.12395764  1
  V  V41  1  0.37684560  0.74368630  0.14206718  1
  V  V42  1  0.51390172  0.73254099  0.25451107  1
  V  V43  1  0.74399078  0.00636533  0.74945291  1
  V  V44  1  0.13284018  0.38165831  0.25204865  1
  V  V45  1  0.73963098  0.49326144  0.24693801  1
  V  V46  1  0.88150004  0.87134738  0.00252106  1
  V  V47  1  0.38902264  0.88258707  0.50691412  1
  V  V48  1  0.00824066  0.37250641  0.87284455  1
  V  V49  1  0.75263941  0.34669521  0.62220369  1
  V  V50  1  0.74585095  0.87155905  0.62056223  1
  V  V51  1  0.49540603  0.12377151  0.61511562  1
  V  V52  1  0.73954138  0.11923516  0.89990454  1
  V  V53  1  0.12935977  0.02718597  0.13742599  1
  V  V54  1  0.49948724  0.24361793  0.75052785  1
  V  V55  1  0.87818670  0.75345051  0.13444861  1
  V  V56  1  0.74539692  0.35989984  0.12888609  1
  V  V57  1  0.86925451  0.36106661  0.50024498  1
  V  V58  1  0.61863534  0.87249565  0.74668482  1
  V  V59  1  0.63026698  0.52335657  0.58527772  1
  V  V60  1  -0.00219138  0.25407925  0.23251650  1
  V  V61  1  0.11493048  0.14085242  -0.02925718  1
  V  V62  1  0.25856687  0.75854653  0.00263895  1
  V  V63  1  0.49403550  0.87762694  0.88337229  1
  V  V64  1  0.27196409  0.62585765  0.87084901  1
  V  V65  1  0.01016986  -0.00183490  0.49787262  1
  V  V66  1  0.51345430  0.88110657  0.36168706  1
  V  V67  1  0.87040594  -0.00356159  0.86833104  1
  V  V68  1  0.74877475  0.00523678  0.25390571  1
  V  V69  1  0.13358270  0.50246939  0.12988074  1
  V  V70  1  0.88355194  0.12653223  0.23226896  1
  V  V71  1  0.74313667  0.74610574  0.48984510  1
  V  V72  1  0.00483991  0.87655120  0.36842851  1
  Zn  Zn73  1  0.00271521  0.24512144  0.75405790  1
  Zn  Zn74  1  0.09669531  0.55221843  0.58023011  1
  Zn  Zn75  1  0.25511437  0.11482901  0.38952842  1
  Zn  Zn76  1  0.50045364  0.00786542  -0.00216959  1
  Zn  Zn77  1  0.89746685  0.71973466  0.62507982  1
  Zn  Zn78  1  0.74479050  0.61995597  0.89076914  1
  Zn  Zn79  1  0.19231192  0.47729190  0.70014988  1
  Zn  Zn80  1  0.00164870  0.74550012  0.25764401  1
  Zn  Zn81  1  0.26831339  0.89222366  0.12096448  1
  Zn  Zn82  1  0.19612437  0.21473908  0.19097565  1
  Zn  Zn83  1  0.17800230  0.16433960  0.68151588  1
  Zn  Zn84  1  0.18701173  0.69080785  0.18552389  1
  Zn  Zn85  1  0.15417892  0.66863726  0.72724680  1
  Zn  Zn86  1  0.69198433  0.18768400  0.19590868  1
  Zn  Zn87  1  0.68480756  0.18394345  0.68603869  1
  Zn  Zn88  1  0.69514727  0.68643736  0.18816917  1
  Zn  Zn89  1  0.70593020  0.68092997  0.68370456  1
  Zn  Zn90  1  0.31146236  0.31613238  0.31817095  1
  Zn  Zn91  1  0.20260592  0.30799884  0.75517209  1
  Zn  Zn92  1  0.31962479  0.81987039  0.31449994  1
  Zn  Zn93  1  0.31694879  0.79915412  0.81217515  1
  Zn  Zn94  1  0.81930602  0.31194414  0.30749275  1
  Zn  Zn95  1  0.82444433  0.30524702  0.81260027  1
  Zn  Zn96  1  0.81434126  0.82195592  0.31256974  1
  Zn  Zn97  1  0.80812114  0.81237373  0.81251204  1
  Zn  Zn98  1  0.19568120  0.45057855  0.48972067  1
  Zn  Zn99  1  0.21834924  0.42045076  0.88350291  1
  Zn  Zn100  1  0.19858284  0.93071040  0.43689460  1
  Zn  Zn101  1  0.19344700  0.94561139  0.94284646  1
  Zn  Zn102  1  0.69779697  0.43318272  0.43354833  1
  Zn  Zn103  1  0.71001288  0.41749701  0.93071439  1
  Zn  Zn104  1  0.69168217  0.93694479  0.43803380  1
  Zn  Zn105  1  0.68505018  0.93049816  0.94407041  1
  Zn  Zn106  1  0.29934352  0.07446458  0.05064049  1
  Zn  Zn107  1  0.31133248  0.05987950  0.56639824  1
  Zn  Zn108  1  0.30978248  0.56932798  0.06397255  1
  Zn  Zn109  1  0.31118574  0.56506938  0.55602066  1
  Zn  Zn110  1  0.82041877  0.05598570  0.06064518  1
  Zn  Zn111  1  0.81498046  0.05153183  0.56341817  1
  Zn  Zn112  1  0.81636071  0.55853154  0.08067381  1
  Zn  Zn113  1  0.81264532  0.55272757  0.56165158  1
  Zn  Zn114  1  0.43971042  0.42878145  0.19831297  1
  Zn  Zn115  1  0.46453824  0.42334483  0.66712985  1
  Zn  Zn116  1  0.44076926  0.93424111  0.18427586  1
  Zn  Zn117  1  0.43658623  0.93375934  0.68735430  1
  Zn  Zn118  1  0.92955219  0.43854458  0.18952689  1
  Zn  Zn119  1  0.93157852  0.43455547  0.68845424  1
  Zn  Zn120  1  0.94875001  0.94481519  0.17978020  1
  Zn  Zn121  1  0.94589882  0.91541121  0.68045901  1
  Zn  Zn122  1  0.06611087  0.07031232  0.31258713  1
  Zn  Zn123  1  0.07036648  0.03480019  0.81257756  1
  Zn  Zn124  1  0.09194734  0.53200184  0.35944284  1
  Zn  Zn125  1  0.04487742  0.56373091  0.80357868  1
  Zn  Zn126  1  0.55894175  0.06422470  0.31024473  1
  Zn  Zn127  1  0.55899305  0.06166447  0.80779064  1
  Zn  Zn128  1  0.55425362  0.57108882  0.40581961  1
  Zn  Zn129  1  0.59493087  0.54796903  0.83880269  1
  Zn  Zn130  1  0.43887092  0.18546677  0.43980649  1
  Zn  Zn131  1  0.43314639  0.18490656  0.93255901  1
  Zn  Zn132  1  0.43392331  0.69771245  0.42726056  1
  Zn  Zn133  1  0.44111265  0.69470295  0.94266956  1
  Zn  Zn134  1  0.94434382  0.18627461  0.43998821  1
  Zn  Zn135  1  0.93007013  0.19026296  0.90750620  1
  Zn  Zn136  1  0.94154005  0.68767018  0.43785115  1
  Zn  Zn137  1  0.93202243  0.68682668  0.93624518  1
  Zn  Zn138  1  0.06585571  0.32138263  0.05836613  1
  Zn  Zn139  1  0.07279712  0.29864458  0.60165946  1
  Zn  Zn140  1  0.06230445  0.80891556  0.06022647  1
  Zn  Zn141  1  0.06967085  0.77743525  0.59089291  1
  Zn  Zn142  1  0.56168255  0.30672917  0.07046404  1
  Zn  Zn143  1  0.56482483  0.30606704  0.55608353  1
  Zn  Zn144  1  0.55128640  0.81834498  0.07606288  1
  Zn  Zn145  1  0.56190136  0.69578806  0.55166156  1
  O  O146  1  0.13080025  0.12377371  0.15707479  1
  O  O147  1  0.11422472  0.10353101  0.60947484  1
  O  O148  1  0.11111555  0.61978206  0.12800587  1
  O  O149  1  0.05271692  0.65994080  0.56038166  1
  O  O150  1  0.62914262  0.12128754  0.12183031  1
  O  O151  1  0.62037621  0.11830629  0.61169016  1
  O  O152  1  0.67225846  0.63908555  0.07829008  1
  O  O153  1  0.63314740  0.62456709  0.61443573  1
  O  O154  1  0.38126948  0.37929519  0.38476759  1
  O  O155  1  0.38115159  0.46420363  0.80268568  1
  O  O156  1  0.38309218  0.89167045  0.37762483  1
  O  O157  1  0.38545335  0.88149258  0.86653835  1
  O  O158  1  0.87923803  0.37670916  0.38417216  1
  O  O159  1  0.87687863  0.37327881  0.89934044  1
  O  O160  1  0.88985222  0.88316232  0.37988943  1
  O  O161  1  0.85833326  0.88636544  0.89499920  1
  O  O162  1  0.26696017  -0.00099604  0.37566550  1
  O  O163  1  0.25370493  -0.00070656  0.86077765  1
  O  O164  1  0.26109346  0.51589811  0.38375455  1
  O  O165  1  0.25177454  0.52805931  0.88594363  1
  O  O166  1  0.76552045  -0.00980845  0.36476452  1
  O  O167  1  0.74266316  0.00447473  0.87111973  1
  O  O168  1  0.75967340  0.51165415  0.36940583  1
  O  O169  1  0.69135621  0.51956388  0.90123726  1
  O  O170  1  0.23165786  0.51052676  0.12378073  1
  O  O171  1  0.21714909  0.51219749  0.59253043  1
  O  O172  1  0.23208171  1.00340672  0.11750102  1
  O  O173  1  0.24295839  0.99360707  0.63421984  1
  O  O174  1  0.75093260  0.49088310  0.14052116  1
  O  O175  1  0.72405523  0.48530154  0.60911591  1
  O  O176  1  0.74180239  0.99867746  0.13180090  1
  O  O177  1  0.73315314  0.99509338  0.63048192  1
  O  O178  1  -0.01270310  0.36173074  0.25720377  1
  O  O179  1  -0.02166218  0.36938847  0.77187703  1
  O  O180  1  0.01000751  0.87746405  0.25878663  1
  O  O181  1  0.00208626  0.87609140  0.77093289  1
  O  O182  1  0.50214898  0.35999587  0.26524111  1
  O  O183  1  0.52297073  0.35312244  0.73941905  1
  O  O184  1  0.50665361  0.87319178  0.25693380  1
  O  O185  1  0.51014963  0.87516353  0.75810498  1
  O  O186  1  0.49643355  0.13503093  0.24001964  1
  O  O187  1  0.51055989  0.13457040  0.73160441  1
  O  O188  1  0.50558866  0.63738237  0.27451631  1
  O  O189  1  0.51647707  0.62910491  0.76539901  1
  O  O190  1  0.99358594  0.13903904  0.25290365  1
  O  O191  1  1.01713902  0.11038339  0.73638243  1
  O  O192  1  0.99929377  0.62453654  0.24251868  1
  O  O193  1  0.96369762  0.63561068  0.76071877  1
  O  O194  1  0.36129907  0.25368973  -0.01457072  1
  O  O195  1  0.37591909  0.25390231  0.51383721  1
  O  O196  1  0.36327884  0.74926601  0.01139194  1
  O  O197  1  0.37531284  0.75610772  0.51118688  1
  O  O198  1  0.88628808  0.25006170  0.00269210  1
  O  O199  1  0.87691529  0.26136579  0.49556419  1
  O  O200  1  0.87932333  0.76556253  0.01173019  1
  O  O201  1  0.86636394  0.76401509  0.49038351  1
  O  O202  1  0.11821796  0.23721791  0.51373250  1
  O  O203  1  0.12734950  0.23431634  1.01347839  1
  O  O204  1  0.14816295  0.76531927  0.49147124  1
  O  O205  1  0.13383666  0.73443626  1.01101555  1
  O  O206  1  0.62797806  0.23420228  0.48894357  1
  O  O207  1  0.60929051  0.25571680  0.97884780  1
  O  O208  1  0.64469921  0.75439348  0.49416725  1
  O  O209  1  0.61712162  0.76797607  0.99539718  1
  O  O210  1  0.50013899  0.23854917  0.13740926  1
  O  O211  1  0.50108104  0.23682273  0.62734662  1
  O  O212  1  0.48846912  0.74805797  0.13981516  1
  O  O213  1  0.49695402  0.73734942  0.63966750  1
  O  O214  1  0.99689393  0.25798208  0.13376895  1
  O  O215  1  0.98678432  0.22222020  0.62662878  1
  O  O216  1  0.99650704  0.73898088  0.12891740  1
  O  O217  1  0.95934246  0.81453925  0.60076045  1
  O  O218  1  -0.00108413  0.25996492  0.36736519  1
  O  O219  1  0.02014987  0.27240216  0.89129339  1
  O  O220  1  0.01387573  0.75759474  0.37837877  1
  O  O221  1  0.00427715  0.75302828  0.87369977  1
  O  O222  1  0.50365127  0.25217204  0.36725654  1
  O  O223  1  0.51015457  0.23449968  0.85882135  1
  O  O224  1  0.49433942  0.76850468  0.35951861  1
  O  O225  1  0.50554314  0.75881007  0.86673991  1
  O  O226  1  0.23614929  0.12509524  0.50875578  1
  O  O227  1  0.24284713  0.14748326  0.97406280  1
  O  O228  1  0.26200769  0.64754356  0.48465032  1
  O  O229  1  0.23979085  0.63552648  0.99528864  1
  O  O230  1  0.74198520  0.11840372  0.50271702  1
  O  O231  1  0.74250282  0.11620747  0.99908128  1
  O  O232  1  0.76176572  0.64086724  0.48761671  1
  O  O233  1  0.73417663  0.63189342  1.03177728  1
  O  O234  1  0.23301951  0.35130372  -0.02753046  1
  O  O235  1  0.26566754  0.36353729  0.49285179  1
  O  O236  1  0.23694955  0.86237650  0.00434235  1
  O  O237  1  0.27440799  0.85890491  0.48873962  1
  O  O238  1  0.76388584  0.36445460  0.01199123  1
  O  O239  1  0.75841322  0.36484194  0.50596189  1
  O  O240  1  0.76453699  0.88907756  0.02090314  1
  O  O241  1  0.76046224  0.86708623  0.50131990  1
  O  O242  1  0.11708394  0.49315567  0.24414309  1
  O  O243  1  0.11352424  0.56137496  0.71226309  1
  O  O244  1  0.11931268  0.99013488  0.24139122  1
  O  O245  1  0.13755076  0.98669377  0.73365850  1
  O  O246  1  0.64450269  0.49489318  0.26355427  1
  O  O247  1  0.62296585  0.47032300  0.75599983  1
  O  O248  1  0.63976060  1.01384443  0.24005409  1
  O  O249  1  0.62719127  0.99098481  0.74135112  1
  O  O250  1  0.37191110  0.00231229  0.25226317  1
  O  O251  1  0.35998625  -0.00750193  0.75271811  1
  O  O252  1  0.37044929  0.48701117  0.26778987  1
  O  O253  1  0.40715728  0.50152953  0.74374280  1
  O  O254  1  0.87998287  0.01126075  0.25390345  1
  O  O255  1  0.85583676  -0.01858584  0.76507686  1
  O  O256  1  0.86328502  0.49292830  0.26796992  1
  O  O257  1  0.86866019  0.50268063  0.75713280  1
  O  O258  1  0.10397187  0.38397070  0.35843981  1
  O  O259  1  0.10381724  0.40062851  0.86652182  1
  O  O260  1  0.12430693  0.87020601  0.36443001  1
  O  O261  1  0.08509208  0.95426754  0.91565797  1
  O  O262  1  0.61511387  0.35873248  0.38596019  1
  O  O263  1  0.64570789  0.35042750  0.85830229  1
  O  O264  1  0.61235813  0.88680472  0.37604232  1
  O  O265  1  0.61563621  0.87132697  0.86714659  1
  O  O266  1  0.37562560  0.12093220  0.12638970  1
  O  O267  1  0.38803930  0.13403989  0.61749738  1
  O  O268  1  0.36613161  0.64298855  0.12956324  1
  O  O269  1  0.37583498  0.63611488  0.62125545  1
  O  O270  1  0.88498966  0.11798545  0.13328494  1
  O  O271  1  0.89413207  0.09282656  0.63113297  1
  O  O272  1  0.88684414  0.63959560  0.12271182  1
  O  O273  1  0.84710446  0.62104183  0.64867851  1
  O  O274  1  0.25839234  0.25904917  0.10975800  1
  O  O275  1  0.26834449  0.24346022  0.64338002  1
  O  O276  1  0.25822173  0.75430091  0.11911387  1
  O  O277  1  0.26540055  0.74723840  0.61417341  1
  O  O278  1  0.75900809  0.26073827  0.14079061  1
  O  O279  1  0.76071085  0.24777158  0.62316013  1
  O  O280  1  0.76063968  0.77022961  0.13537558  1
  O  O281  1  0.75455022  0.76051424  0.60967758  1
  O  O282  1  0.24278698  0.22898323  0.34876121  1
  O  O283  1  0.25402688  0.23694962  0.83849770  1
  O  O284  1  0.25143137  0.74307506  0.37403926  1
  O  O285  1  0.25587973  0.74492385  0.89524230  1
  O  O286  1  0.73648500  0.25315438  0.36530813  1
  O  O287  1  0.73888838  0.22549121  0.87549309  1
  O  O288  1  0.76062487  0.74126403  0.37653576  1
  O  O289  1  0.73357471  0.76336500  0.88377826  1
  O  O290  1  0.01158236  0.11872108  -0.03087419  1
  O  O291  1  0.00798944  0.11067293  0.50721926  1
  O  O292  1  0.00724207  0.62233672  0.00552230  1
  O  O293  1  -0.02981455  0.64756149  0.54411517  1
  O  O294  1  0.48990729  0.12566277  0.01797218  1
  O  O295  1  0.51175266  0.12602838  0.51226167  1
  O  O296  1  0.49045844  0.60439613  0.00543238  1
  O  O297  1  0.50137477  0.63008534  0.48527849  1
  O  O298  1  0.49025497  0.36117793  0.48476740  1
  O  O299  1  0.49743995  0.39463150  1.01584863  1
  O  O300  1  0.48668967  0.86971999  0.47835391  1
  O  O301  1  0.50199387  0.88377160  0.98773828  1
  O  O302  1  0.98880000  0.36814170  0.48632241  1
  O  O303  1  0.99095271  0.39150484  0.99833835  1
  O  O304  1  1.00292499  0.88530877  0.48237627  1
  O  O305  1  0.98766780  0.87949980  1.00540763  1
  O  O306  1  0.48841761  0.48122677  0.37295485  1
  O  O307  1  0.50927913  0.49483735  0.91132253  1
  O  O308  1  0.48846864  0.99102829  0.36470758  1
  O  O309  1  0.48902027  0.99711866  0.87361424  1
  O  O310  1  0.98412267  0.48458316  0.36560667  1
  O  O311  1  0.99581853  0.50234032  0.89034402  1
  O  O312  1  0.99944630  0.99515956  0.37890413  1
  O  O313  1  0.96951105  1.01220606  0.86718222  1
  O  O314  1  0.02488341  -0.00163483  0.10545420  1
  O  O315  1  0.01588527  -0.00885016  0.61643715  1
  O  O316  1  -0.00491415  0.51546994  0.12142674  1
  O  O317  1  0.02415225  0.46016916  0.62053624  1
  O  O318  1  0.51181976  0.01663915  0.13137119  1
  O  O319  1  0.50756005  0.01300699  0.63284259  1
  O  O320  1  0.49088349  0.50543236  0.12236872  1
  O  O321  1  0.54256853  0.48403433  0.61560690  1
  O  O322  1  0.23136391  0.37388148  0.25719864  1
  O  O323  1  0.24397386  0.40725544  0.76921032  1
  O  O324  1  0.23910533  0.87596472  0.24750226  1
  O  O325  1  0.25063938  0.87556794  0.75443508  1
  O  O326  1  0.75652239  0.38215927  0.24118008  1
  O  O327  1  0.74992044  0.35973820  0.73520509  1
  O  O328  1  0.76196060  0.89359433  0.23644244  1
  O  O329  1  0.73490182  0.87786451  0.74152782  1
  O  O330  1  0.25197776  0.17320032  0.28245796  1
  O  O331  1  0.24509223  0.10425249  0.75255339  1
  O  O332  1  0.25003841  0.62759703  0.26152417  1
  O  O333  1  0.25363567  0.64947444  0.77136700  1
  O  O334  1  0.77175119  0.11570493  0.24743995  1
  O  O335  1  0.74355678  0.10772089  0.75093728  1
  O  O336  1  0.75582652  0.61559268  0.25692211  1
  O  O337  1  0.75703181  0.63369910  0.76966423  1
  O  O338  1  0.37857755  0.10520258  0.38614247  1
  O  O339  1  0.36146151  0.11504168  0.86701767  1
  O  O340  1  0.36981303  0.61255175  0.37204539  1
  O  O341  1  0.37203995  0.63203298  0.87696137  1
  O  O342  1  0.88430732  0.10926507  0.37664959  1
  O  O343  1  0.84823292  0.10266208  0.88649924  1
  O  O344  1  0.87784758  0.61233728  0.37881815  1
  O  O345  1  0.85855956  0.62685776  0.87556724  1
  O  O346  1  0.11586081  0.39427221  0.13545359  1
  O  O347  1  0.08705224  0.40526579  0.64040415  1
  O  O348  1  0.12481109  0.87192938  0.13907761  1
  O  O349  1  0.13077195  0.87677501  0.61539842  1
  O  O350  1  0.64483366  0.36548471  0.12011039  1
  O  O351  1  0.64271942  0.35276933  0.63123819  1
  O  O352  1  0.63835131  0.88332933  0.12637040  1
  O  O353  1  0.63114186  0.88306127  0.62950894  1
  O  O354  1  0.10780837  0.27245235  0.24164571  1
  O  O355  1  0.11416476  0.25572393  0.71302361  1
  O  O356  1  0.12439537  0.76273405  0.25896599  1
  O  O357  1  0.07555351  0.74547594  0.71150469  1
  O  O358  1  0.61467719  0.23798809  0.26672026  1
  O  O359  1  0.62089003  0.24729933  0.75771514  1
  O  O360  1  0.61349978  0.74479971  0.23666766  1
  O  O361  1  0.61447593  0.75695405  0.74962517  1
  O  O362  1  0.38763532  0.25465776  0.25341247  1
  O  O363  1  0.39828530  0.25513610  0.73280436  1
  O  O364  1  0.38108898  0.74907952  0.24682011  1
  O  O365  1  0.39460606  0.74915947  0.74009292  1
  O  O366  1  0.88425486  0.23405210  0.25204376  1
  O  O367  1  0.89982507  0.22361266  0.79874794  1
  O  O368  1  0.88356854  0.76192626  0.23936888  1
  O  O369  1  0.88859977  0.76665969  0.74628269  1
  O  O370  1  0.37352036  0.48232605  0.49543094  1
  O  O371  1  0.39051999  0.50214122  1.01139054  1
  O  O372  1  0.37602951  0.98379583  0.51160285  1
  O  O373  1  0.36565030  1.00393772  0.98160419  1
  O  O374  1  0.86786893  0.48512607  0.48370401  1
  O  O375  1  0.88670288  0.51314453  1.00351712  1
  O  O376  1  0.88885401  0.98734584  0.49293522  1
  O  O377  1  0.89274148  0.99149689  0.99578968  1
  O  O378  1  0.13072188  0.04520841  0.01844714  1
  O  O379  1  0.12424236  -0.00674654  0.50661958  1
  O  O380  1  0.10976307  0.51689261  0.01893739  1
  O  O381  1  0.10569428  0.50928318  0.47122494  1
  O  O382  1  0.62220580  -0.00260925  0.01844236  1
  O  O383  1  0.62841006  0.00927072  0.50664659  1
  O  O384  1  0.59853907  0.50695120  0.03138789  1
  O  O385  1  0.62777199  0.51084742  0.48157807  1
  O  O386  1  0.38743146  0.38618122  0.11186892  1
  O  O387  1  0.38277771  0.36341108  0.61298328  1
  O  O388  1  0.37621379  0.86057349  0.12747588  1
  O  O389  1  0.39062014  0.85909678  0.61351034  1
  O  O390  1  0.86953925  0.38027690  0.10979420  1
  O  O391  1  0.86184301  0.37938010  0.61151322  1
  O  O392  1  0.87495548  0.87492467  0.11833340  1
  O  O393  1  0.84883396  0.90234331  0.61658746  1
  O  O394  1  0.12528858  0.11878537  0.39704407  1
  O  O395  1  0.13814747  0.12410183  0.86870720  1
  O  O396  1  0.14078500  0.64037645  0.37125971  1
  O  O397  1  0.11955127  0.62424949  0.88940747  1
  O  O398  1  0.62339177  0.12936021  0.38632525  1
  O  O399  1  0.63035517  0.12579863  0.87623453  1
  O  O400  1  0.64830899  0.62888751  0.37109634  1
  O  O401  1  0.62258023  0.65354788  0.88247540  1
