# generated using pymatgen
data_V73Zn73O256
_symmetry_space_group_name_H-M   'P 1'
_cell_length_a   16.96602199
_cell_length_b   16.95049505
_cell_length_c   16.96021085
_cell_angle_alpha   90.09584045
_cell_angle_beta   90.44788464
_cell_angle_gamma   89.91728247
_symmetry_Int_Tables_number   1
_chemical_formula_structural   V73Zn73O256
_chemical_formula_sum   'V73 Zn73 O256'
_cell_volume   4877.29852014
_cell_formula_units_Z   1
loop_
 _symmetry_equiv_pos_site_id
 _symmetry_equiv_pos_as_xyz
  1  'x, y, z'
loop_
 _atom_site_type_symbol
 _atom_site_label
 _atom_site_symmetry_multiplicity
 _atom_site_fract_x
 _atom_site_fract_y
 _atom_site_fract_z
 _atom_site_occupancy
  V  V0  1  -0.00674839  0.76592794  0.26084582  1
  V  V1  1  0.00909492  0.88015800  0.88225461  1
  V  V2  1  0.50294406  0.23374694  0.74491608  1
  V  V3  1  0.62729868  0.37817090  0.74167259  1
  V  V4  1  0.62199078  0.74901677  0.87910668  1
  V  V5  1  0.62328100  0.00438525  0.13527256  1
  V  V6  1  0.74938606  0.50054753  0.74617604  1
  V  V7  1  0.76702919  0.36146852  0.62717712  1
  V  V8  1  0.25509431  0.49670980  0.72357310  1
  V  V9  1  0.38042124  0.75235476  0.61819251  1
  V  V10  1  0.74860695  0.61587789  0.88187728  1
  V  V11  1  0.12224369  0.01046344  0.10709766  1
  V  V12  1  0.50072760  0.72228668  0.22276243  1
  V  V13  1  0.02120692  0.37187424  0.86435732  1
  V  V14  1  0.73812079  0.74595854  0.49879727  1
  V  V15  1  0.49914362  0.37381292  0.87043337  1
  V  V16  1  0.00767350  0.10660034  0.63500103  1
  V  V17  1  0.51017880  0.61942136  0.62414184  1
  V  V18  1  0.65533642  0.12591437  0.49552088  1
  V  V19  1  0.75727168  0.01020376  0.76677609  1
  V  V20  1  0.88162460  0.39967198  0.48767552  1
  V  V21  1  0.36726341  0.36442825  0.00153610  1
  V  V22  1  0.14370723  0.75987834  0.37089691  1
  V  V23  1  0.38340676  0.47107475  0.36714033  1
  V  V24  1  0.87638249  0.62602941  0.75683209  1
  V  V25  1  0.21841513  0.38101029  0.16239434  1
  V  V26  1  0.22539573  -0.01531147  0.75048110  1
  V  V27  1  0.75003033  0.25162040  0.00312291  1
  V  V28  1  0.62526000  0.00825407  0.62902657  1
  V  V29  1  0.44299044  0.18260923  0.56872195  1
  V  V30  1  0.37642139  0.49846940  0.87278369  1
  V  V31  1  0.00935985  0.25332293  0.25841063  1
  V  V32  1  0.87255300  0.62520582  0.25154527  1
  V  V33  1  0.23363404  0.11955345  0.39950554  1
  V  V34  1  0.86995004  0.11261091  0.25393861  1
  V  V35  1  0.74871768  0.75056165  0.00348924  1
  V  V36  1  0.63887642  0.47766277  0.13278060  1
  V  V37  1  0.37755770  0.87395498  0.49791762  1
  V  V38  1  0.04742454  0.90210135  0.43715889  1
  V  V39  1  0.88926982  0.75073293  0.12086972  1
  V  V40  1  0.37249098  0.00272795  0.86146965  1
  V  V41  1  0.12248965  0.25418536  0.39952445  1
  V  V42  1  0.27914903  0.62503352  0.36807693  1
  V  V43  1  0.62506669  0.87484017  0.75143698  1
  V  V44  1  0.37363880  0.01378424  0.38147333  1
  V  V45  1  0.63150414  0.24628991  0.87448142  1
  V  V46  1  0.87079020  0.74414995  0.63483518  1
  V  V47  1  0.49435547  0.00648029  0.00040266  1
  V  V48  1  0.62229967  0.62208414  0.01625531  1
  V  V49  1  0.74438509  0.88085367  0.13524045  1
  V  V50  1  0.87116754  0.86584491  0.49753422  1
  V  V51  1  0.33523498  0.14345787  0.73019361  1
  V  V52  1  0.53440271  0.87739051  0.37460486  1
  V  V53  1  0.01547227  0.75072009  0.76398636  1
  V  V54  1  0.50192224  0.49794707  0.00824363  1
  V  V55  1  0.49482048  0.87587032  0.88091665  1
  V  V56  1  0.30393000  0.05369330  0.20336635  1
  V  V57  1  0.38173676  0.62503803  0.74605028  1
  V  V58  1  0.62704678  0.35607384  0.27884556  1
  V  V59  1  0.24078927  0.63128005  0.87297259  1
  V  V60  1  0.50314840  0.00412144  0.51052395  1
  V  V61  1  0.49681531  0.48137658  0.50192190  1
  V  V62  1  0.87911630  0.38157295  -0.00142982  1
  V  V63  1  0.87546065  0.89095486  -0.00658476  1
  V  V64  1  0.49332461  0.23509227  0.23966036  1
  V  V65  1  0.09379442  0.61755225  0.02892150  1
  V  V66  1  0.62267362  0.61611935  0.48765597  1
  V  V67  1  0.13006598  0.88902715  0.23845665  1
  V  V68  1  0.22965025  0.14585287  0.87476449  1
  V  V69  1  0.86972292  0.25411714  0.13544009  1
  V  V70  1  0.62331390  0.12596272  -0.00034287  1
  V  V71  1  0.23468007  0.86616862  0.62577623  1
  V  V72  1  0.26482726  0.86436858  0.11911353  1
  Zn  Zn73  1  0.02295418  0.24611399  0.74416929  1
  Zn  Zn74  1  0.74993489  0.62160232  0.36418757  1
  Zn  Zn75  1  0.13425231  0.61798874  0.49552176  1
  Zn  Zn76  1  0.87857419  -0.00251312  0.38712884  1
  Zn  Zn77  1  0.74760403  0.87107901  0.63174026  1
  Zn  Zn78  1  0.00948711  0.59856334  0.60353285  1
  Zn  Zn79  1  0.89767487  0.50844754  0.88886817  1
  Zn  Zn80  1  0.50305875  0.75054016  0.74961989  1
  Zn  Zn81  1  0.00118417  0.12430871  0.12327399  1
  Zn  Zn82  1  0.18892475  0.19399078  0.18242124  1
  Zn  Zn83  1  0.17604891  0.19243962  0.59984540  1
  Zn  Zn84  1  0.18529455  0.68730058  0.19071541  1
  Zn  Zn85  1  0.19384369  0.68335297  0.68692555  1
  Zn  Zn86  1  0.68691837  0.19036995  0.18876852  1
  Zn  Zn87  1  0.69431897  0.18720262  0.68800849  1
  Zn  Zn88  1  0.68282711  0.69904896  0.19575908  1
  Zn  Zn89  1  0.68656142  0.68539970  0.69206533  1
  Zn  Zn90  1  0.28917913  0.29133789  0.28718937  1
  Zn  Zn91  1  0.20918577  0.29268422  0.74191512  1
  Zn  Zn92  1  0.32545004  0.81903451  0.29939875  1
  Zn  Zn93  1  0.31425316  0.80976519  0.80951996  1
  Zn  Zn94  1  0.81451160  0.32808856  0.31829995  1
  Zn  Zn95  1  0.81281694  0.31683385  0.81825147  1
  Zn  Zn96  1  0.74347499  0.86566741  0.35307640  1
  Zn  Zn97  1  0.80915495  0.81392418  0.81977626  1
  Zn  Zn98  1  0.18365670  0.44766383  0.35651580  1
  Zn  Zn99  1  0.18594314  0.44534097  0.92770672  1
  Zn  Zn100  1  0.20548147  0.92792732  0.43590184  1
  Zn  Zn101  1  0.19651924  0.92631253  0.93990154  1
  Zn  Zn102  1  0.69365878  0.43944816  0.44289114  1
  Zn  Zn103  1  0.68671667  0.43188172  0.94263535  1
  Zn  Zn104  1  0.70439320  1.05070395  0.31857366  1
  Zn  Zn105  1  0.68485058  0.93800053  0.94180627  1
  Zn  Zn106  1  0.30395062  0.06734950  0.03961923  1
  Zn  Zn107  1  0.30169346  0.04788947  0.56642741  1
  Zn  Zn108  1  0.25199453  0.53337526  0.04771090  1
  Zn  Zn109  1  0.31953109  0.57043059  0.54482309  1
  Zn  Zn110  1  0.80722807  0.06933631  0.06668980  1
  Zn  Zn111  1  0.81445511  0.04474833  0.57496115  1
  Zn  Zn112  1  0.81321475  0.56272736  0.07373089  1
  Zn  Zn113  1  0.81126772  0.56187574  0.56414354  1
  Zn  Zn114  1  0.44898515  0.41838978  0.18594298  1
  Zn  Zn115  1  0.43755241  0.43192283  0.68395879  1
  Zn  Zn116  1  0.44787166  0.93651685  0.19461285  1
  Zn  Zn117  1  0.43743429  0.94091922  0.69098453  1
  Zn  Zn118  1  0.93195646  0.43022711  0.20138101  1
  Zn  Zn119  1  0.94205959  0.44370717  0.69500153  1
  Zn  Zn120  1  0.94308429  0.93850411  0.16993338  1
  Zn  Zn121  1  0.93534788  0.92646404  0.69611238  1
  Zn  Zn122  1  0.05133930  0.06052986  0.31430268  1
  Zn  Zn123  1  0.05537706  0.05718741  0.81728606  1
  Zn  Zn124  1  0.03603334  0.59009796  0.32772149  1
  Zn  Zn125  1  0.06468818  0.54481452  0.78584175  1
  Zn  Zn126  1  0.52825709  0.11806245  0.35801590  1
  Zn  Zn127  1  0.57113665  0.05798230  0.81904940  1
  Zn  Zn128  1  0.55600716  0.54861055  0.30567318  1
  Zn  Zn129  1  0.56643026  0.56072172  0.81537121  1
  Zn  Zn130  1  0.42492956  0.27973532  0.40033724  1
  Zn  Zn131  1  0.42866846  0.18235809  0.92423966  1
  Zn  Zn132  1  0.45246510  0.69724019  0.43246424  1
  Zn  Zn133  1  0.44241872  0.67945692  0.93454189  1
  Zn  Zn134  1  0.93311171  0.18817401  0.43622616  1
  Zn  Zn135  1  0.94323073  0.20824969  0.93534522  1
  Zn  Zn136  1  0.93247079  0.69342588  0.43779506  1
  Zn  Zn137  1  0.94388791  0.68766856  0.94177970  1
  Zn  Zn138  1  0.05159689  0.31209324  0.06570896  1
  Zn  Zn139  1  0.04467503  0.30211835  0.58065738  1
  Zn  Zn140  1  0.07586557  0.80919225  0.04814245  1
  Zn  Zn141  1  0.06467812  0.75575122  0.56671522  1
  Zn  Zn142  1  0.55243083  0.30757731  0.06376052  1
  Zn  Zn143  1  0.58267550  0.30744640  0.55775658  1
  Zn  Zn144  1  0.55926539  0.81716658  0.06591339  1
  Zn  Zn145  1  0.56194126  0.81406995  0.56181311  1
  O  O146  1  0.13053950  0.11201636  0.12951374  1
  O  O147  1  0.10245685  0.10673833  0.60225462  1
  O  O148  1  0.11706213  0.62168899  0.12877388  1
  O  O149  1  0.12453548  0.65547393  0.60408310  1
  O  O150  1  0.63240784  0.11234395  0.11269084  1
  O  O151  1  0.63557705  0.11365232  0.61764175  1
  O  O152  1  0.63363953  0.61641451  0.11699513  1
  O  O153  1  0.61299038  0.62333340  0.62624956  1
  O  O154  1  0.36305181  0.37399963  0.38633428  1
  O  O155  1  0.39180979  0.38378599  0.87240132  1
  O  O156  1  0.36391421  0.89067332  0.39058468  1
  O  O157  1  0.38843050  0.88485874  0.86012293  1
  O  O158  1  0.87355649  0.39923967  0.38660748  1
  O  O159  1  0.87564520  0.37972127  0.89007644  1
  O  O160  1  0.86190641  0.85137506  0.39942411  1
  O  O161  1  0.87495265  0.87350060  0.89122694  1
  O  O162  1  0.25539995  0.01278267  0.38360438  1
  O  O163  1  0.26160216  -0.02239818  0.85994988  1
  O  O164  1  0.27994792  0.51319500  0.37317311  1
  O  O165  1  0.26849862  0.50343542  0.85842382  1
  O  O166  1  0.77270353  -0.02452945  0.36005935  1
  O  O167  1  0.73973127  -0.00020337  0.86632705  1
  O  O168  1  0.74837347  0.51290900  0.38310041  1
  O  O169  1  0.74618531  0.50934722  0.87526252  1
  O  O170  1  0.26250639  0.46942064  0.13520545  1
  O  O171  1  0.25867940  0.51881991  0.62607714  1
  O  O172  1  0.24410077  0.99542004  0.13277730  1
  O  O173  1  0.24345898  0.98223091  0.63994142  1
  O  O174  1  0.73687344  0.49761103  0.12619893  1
  O  O175  1  0.75227595  0.49731347  0.64437860  1
  O  O176  1  0.73947237  0.98917878  0.11954341  1
  O  O177  1  0.73808515  0.98999613  0.64004746  1
  O  O178  1  -0.01396213  0.35153747  0.26387696  1
  O  O179  1  -0.00526887  0.36492387  0.76170869  1
  O  O180  1  0.01360592  0.86915046  0.23164334  1
  O  O181  1  -0.00360799  0.85989988  0.76929611  1
  O  O182  1  0.52000454  0.35735259  0.25115243  1
  O  O183  1  0.51096264  0.36715014  0.75058525  1
  O  O184  1  0.51106720  0.89785773  0.27859326  1
  O  O185  1  0.51086803  0.87592051  0.76056154  1
  O  O186  1  0.50023231  0.13273702  0.24683597  1
  O  O187  1  0.51964658  0.13592370  0.74910123  1
  O  O188  1  0.49987848  0.62187093  0.24041460  1
  O  O189  1  0.49639802  0.62144582  0.74246432  1
  O  O190  1  0.98787528  0.13441923  0.24700065  1
  O  O191  1  1.01688975  0.12801326  0.74126340  1
  O  O192  1  0.98763124  0.65540569  0.24902937  1
  O  O193  1  0.98185461  0.64224740  0.77436595  1
  O  O194  1  0.38222648  0.26661672  -0.01818521  1
  O  O195  1  0.39210793  0.24205721  0.50824862  1
  O  O196  1  0.37281180  0.72806529  0.02445884  1
  O  O197  1  0.38618614  0.76200819  0.50739606  1
  O  O198  1  0.86837641  0.25556907  0.01114805  1
  O  O199  1  0.84840184  0.26535162  0.46602276  1
  O  O200  1  0.86506733  0.75402489  0.00965790  1
  O  O201  1  0.85948895  0.74203252  0.51708301  1
  O  O202  1  0.12026219  0.24384660  0.50062854  1
  O  O203  1  0.08621121  0.21216139  1.00917956  1
  O  O204  1  0.11435159  0.79675784  0.46520036  1
  O  O205  1  0.11667025  0.71370304  0.99992484  1
  O  O206  1  0.63613785  0.22478220  0.50657467  1
  O  O207  1  0.62831507  0.24529063  0.99478523  1
  O  O208  1  0.63225028  0.73554731  0.51150804  1
  O  O209  1  0.63113761  0.74252505  0.99926491  1
  O  O210  1  0.49679280  0.24663172  0.13751148  1
  O  O211  1  0.50613076  0.24519609  0.63058181  1
  O  O212  1  0.49919914  0.74309783  0.12110363  1
  O  O213  1  0.49536093  0.74061347  0.62717616  1
  O  O214  1  0.98869202  0.24699667  0.14269447  1
  O  O215  1  0.98291676  0.22372203  0.63584341  1
  O  O216  1  0.98897560  0.75951331  0.11931711  1
  O  O217  1  0.98299721  0.74971568  0.65539896  1
  O  O218  1  0.01588113  0.23310467  0.37143498  1
  O  O219  1  0.01002856  0.26325695  0.86443538  1
  O  O220  1  -0.00502010  0.77365622  0.36118755  1
  O  O221  1  -0.00730569  0.76001705  0.87049490  1
  O  O222  1  0.51576465  0.23188065  0.36511254  1
  O  O223  1  0.51105938  0.25457146  0.86098889  1
  O  O224  1  0.51463164  0.77860282  0.38721740  1
  O  O225  1  0.50286254  0.75876583  0.87799989  1
  O  O226  1  0.24075629  0.12394163  0.50231449  1
  O  O227  1  0.25559539  0.14245841  0.97367436  1
  O  O228  1  0.24915575  0.62821152  0.47261633  1
  O  O229  1  0.26277129  0.61607796  0.97254537  1
  O  O230  1  0.75307862  0.11304225  0.50350142  1
  O  O231  1  0.73924853  0.14029738  1.00297341  1
  O  O232  1  0.73225611  0.62713875  0.50907643  1
  O  O233  1  0.74349338  0.63105603  0.99889776  1
  O  O234  1  0.26804903  0.38575831  -0.01124256  1
  O  O235  1  0.19963443  0.39592538  0.54219277  1
  O  O236  1  0.25881016  0.87463438  0.01866925  1
  O  O237  1  0.26527583  0.88014688  0.52049064  1
  O  O238  1  0.76302427  0.36227259  -0.00205052  1
  O  O239  1  0.76687691  0.38811090  0.52208862  1
  O  O240  1  0.75795062  0.86702329  0.00234035  1
  O  O241  1  0.75404759  0.85076217  0.51148602  1
  O  O242  1  0.07887401  0.50105836  0.25325889  1
  O  O243  1  0.16098474  0.48182773  0.74611640  1
  O  O244  1  0.11567302  0.99043754  0.23925905  1
  O  O245  1  0.12911235  0.97811279  0.75929491  1
  O  O246  1  0.61837423  0.47591760  0.23819800  1
  O  O247  1  0.63517005  0.48699568  0.75911877  1
  O  O248  1  0.62852288  1.01062150  0.23258474  1
  O  O249  1  0.62929147  0.99217371  0.74605393  1
  O  O250  1  0.37163743  0.00117231  0.26461507  1
  O  O251  1  0.37496369  0.01667020  0.75216234  1
  O  O252  1  0.39513366  0.47687087  0.26858631  1
  O  O253  1  0.37733121  0.50923051  0.75174627  1
  O  O254  1  0.88438696  0.01484164  0.23259797  1
  O  O255  1  0.85357516  -0.01309324  0.75184905  1
  O  O256  1  0.88547860  0.52699636  0.23335117  1
  O  O257  1  0.86355069  0.51263205  0.76417751  1
  O  O258  1  0.12717375  0.35172957  0.38972900  1
  O  O259  1  0.12194408  0.37383241  0.86881508  1
  O  O260  1  0.12688702  0.88019684  0.35372308  1
  O  O261  1  0.10767732  0.86810618  0.89925950  1
  O  O262  1  0.62853928  0.36843292  0.37884027  1
  O  O263  1  0.61763212  0.36680872  0.86754403  1
  O  O264  1  0.63269139  0.88553895  0.38460737  1
  O  O265  1  0.61526285  0.86898435  0.87190683  1
  O  O266  1  0.35589261  0.10676500  0.13750004  1
  O  O267  1  0.38199777  0.11807984  0.62499741  1
  O  O268  1  0.35965121  0.68013222  0.07863782  1
  O  O269  1  0.38665197  0.63385837  0.62615853  1
  O  O270  1  0.87805549  0.13869658  0.12957080  1
  O  O271  1  0.89679015  0.12640214  0.58672894  1
  O  O272  1  0.86944073  0.64732316  0.13105570  1
  O  O273  1  0.87332605  0.62939290  0.64294120  1
  O  O274  1  0.25722698  0.28232141  0.15983142  1
  O  O275  1  0.26964713  0.20408181  0.67491282  1
  O  O276  1  0.24630655  0.76594465  0.13549124  1
  O  O277  1  0.26998925  0.76031812  0.63298797  1
  O  O278  1  0.76331761  0.24926266  0.11954677  1
  O  O279  1  0.76020002  0.26197974  0.63296778  1
  O  O280  1  0.74878287  0.76333613  0.11480116  1
  O  O281  1  0.75516826  0.74517481  0.62436152  1
  O  O282  1  0.23031244  0.22921376  0.37288185  1
  O  O283  1  0.23213965  0.24112533  0.84071698  1
  O  O284  1  0.24665790  0.75456421  0.36883265  1
  O  O285  1  0.25542411  0.73121985  0.86163431  1
  O  O286  1  0.79083103  0.25640548  0.41109692  1
  O  O287  1  0.73664494  0.25718245  0.88464794  1
  O  O288  1  0.74501380  0.74171631  0.39709645  1
  O  O289  1  0.74326996  0.74076365  0.88868626  1
  O  O290  1  0.02505374  0.15953574  0.00641627  1
  O  O291  1  -0.04624368  0.11546435  0.52416443  1
  O  O292  1  -0.00706550  0.61007713  0.00851440  1
  O  O293  1  0.01243718  0.65640555  0.50720595  1
  O  O294  1  0.50675593  0.11679820  -0.00902410  1
  O  O295  1  0.49930115  0.12135801  0.50903036  1
  O  O296  1  0.51293815  0.60982235  -0.00700951  1
  O  O297  1  0.51216098  0.62450860  0.50599815  1
  O  O298  1  0.50725636  0.38229081  0.51081528  1
  O  O299  1  0.50085460  0.38056280  0.98510207  1
  O  O300  1  0.49795971  0.88848671  0.49323508  1
  O  O301  1  0.50519301  0.88928156  0.98818851  1
  O  O302  1  0.96972145  0.35642846  0.51413209  1
  O  O303  1  0.98614171  0.36610885  0.98625339  1
  O  O304  1  0.98108611  0.85496521  0.50640798  1
  O  O305  1  0.98297960  0.86898455  0.99502890  1
  O  O306  1  0.49240990  0.49385640  0.38920465  1
  O  O307  1  0.49834894  0.49125779  0.87783585  1
  O  O308  1  0.49093015  1.00582460  0.39497963  1
  O  O309  1  0.49330564  0.99589330  0.87874418  1
  O  O310  1  1.03797709  0.50895881  0.40871317  1
  O  O311  1  1.00588444  0.48086196  0.86659504  1
  O  O312  1  0.99463136  0.97320216  0.37835364  1
  O  O313  1  0.99662763  0.97943059  0.87274872  1
  O  O314  1  0.01679579  0.00562078  0.11121124  1
  O  O315  1  -0.01298991  0.00713895  0.64086070  1
  O  O316  1  0.04364824  0.48964241  0.18633216  1
  O  O317  1  0.01922153  0.52069516  0.67854975  1
  O  O318  1  0.51436455  -0.00928944  0.11351039  1
  O  O319  1  0.51034050  -0.00308152  0.62020877  1
  O  O320  1  0.51360872  0.48981884  0.11118374  1
  O  O321  1  0.49087831  0.50684840  0.61155020  1
  O  O322  1  0.22148294  0.38726798  0.26753585  1
  O  O323  1  0.28262435  0.38607062  0.71743534  1
  O  O324  1  0.23461445  0.87671401  0.24308803  1
  O  O325  1  0.25516108  0.87674089  0.73670458  1
  O  O326  1  0.72773306  0.35834050  0.25428192  1
  O  O327  1  0.74727236  0.38072615  0.74705411  1
  O  O328  1  0.74916347  0.86632276  0.23176273  1
  O  O329  1  0.73365522  0.87744122  0.75711977  1
  O  O330  1  0.24799451  0.11833433  0.25796262  1
  O  O331  1  0.23871878  0.09162887  0.76502945  1
  O  O332  1  0.24221269  0.63128786  0.27365461  1
  O  O333  1  0.26591536  0.61431891  0.75025755  1
  O  O334  1  0.76437397  0.12478594  0.24752397  1
  O  O335  1  0.74670661  0.10961673  0.75026106  1
  O  O336  1  0.76767529  0.64373628  0.24879327  1
  O  O337  1  0.75158877  0.61792596  0.76405616  1
  O  O338  1  0.35689132  0.11451522  0.38714647  1
  O  O339  1  0.35521615  0.12215976  0.85296802  1
  O  O340  1  0.37907768  0.63397090  0.37192124  1
  O  O341  1  0.37922178  0.61617904  0.86095048  1
  O  O342  1  0.88380737  0.11414423  0.35837034  1
  O  O343  1  0.87275966  0.16479786  0.84554200  1
  O  O344  1  0.87895926  0.63399242  0.35639025  1
  O  O345  1  0.86176492  0.62427600  0.87818497  1
  O  O346  1  0.12655887  0.37469828  0.12073696  1
  O  O347  1  0.13379962  0.41247519  0.56834036  1
  O  O348  1  0.13410907  0.88599478  0.12478861  1
  O  O349  1  0.13970506  0.84771285  0.61930879  1
  O  O350  1  0.63117588  0.37947019  0.11315754  1
  O  O351  1  0.64289736  0.36935853  0.63660409  1
  O  O352  1  0.63698155  0.88881731  0.11597577  1
  O  O353  1  0.62232762  0.88118294  0.63738780  1
  O  O354  1  0.11040191  0.24536009  0.25551596  1
  O  O355  1  0.12188343  0.27715498  0.67125454  1
  O  O356  1  0.11390389  0.76512081  0.25856171  1
  O  O357  1  0.11253588  0.74145933  0.75370084  1
  O  O358  1  0.61606651  0.24964921  0.25209389  1
  O  O359  1  0.62370075  0.25794588  0.75565035  1
  O  O360  1  0.59852416  0.75093410  0.24700306  1
  O  O361  1  0.62310044  0.75635077  0.76047469  1
  O  O362  1  0.39468839  0.25879550  0.27198840  1
  O  O363  1  0.40145457  0.23402984  0.75050791  1
  O  O364  1  0.41299852  0.76295645  0.26025423  1
  O  O365  1  0.38329395  0.73836868  0.74055146  1
  O  O366  1  0.87405110  0.24464677  0.24347156  1
  O  O367  1  0.87002538  0.21516896  0.78661089  1
  O  O368  1  0.88691922  0.76210778  0.23159867  1
  O  O369  1  0.86021659  0.73862834  0.74969849  1
  O  O370  1  0.39208146  0.49924073  0.49019529  1
  O  O371  1  0.38856725  0.49103090  0.98469135  1
  O  O372  1  0.38283651  0.99370338  0.50215364  1
  O  O373  1  0.38377577  1.01233801  0.97667386  1
  O  O374  1  0.89073077  0.49772760  0.51721190  1
  O  O375  1  0.87005913  0.48465883  1.00812603  1
  O  O376  1  0.86682698  0.96846561  0.50599934  1
  O  O377  1  0.86866215  0.98939946  1.00714014  1
  O  O378  1  0.14244055  0.00273795  0.01050360  1
  O  O379  1  0.10527498  -0.04023198  0.49184379  1
  O  O380  1  0.14086170  0.52528827  -0.00082044  1
  O  O381  1  0.11727942  0.51193957  0.43216315  1
  O  O382  1  0.61546870  0.01096035  0.00058395  1
  O  O383  1  0.61446507  0.01305262  0.51373307  1
  O  O384  1  0.62195961  0.50359124  0.00845195  1
  O  O385  1  0.61031752  0.50986834  0.50065891  1
  O  O386  1  0.38760244  0.37468088  0.09977104  1
  O  O387  1  0.34153969  0.36968828  0.66105268  1
  O  O388  1  0.36233903  0.88283091  0.14176501  1
  O  O389  1  0.38483601  0.86736588  0.61686274  1
  O  O390  1  0.88521088  0.36246401  0.11659285  1
  O  O391  1  0.86595108  0.37828795  0.64019655  1
  O  O392  1  0.86327858  0.86886873  0.11313688  1
  O  O393  1  0.86864700  0.85647774  0.62490648  1
  O  O394  1  0.13202308  0.11532608  0.38068170  1
  O  O395  1  0.13503523  0.11373349  0.87552322  1
  O  O396  1  0.11797935  0.66047895  0.37839029  1
  O  O397  1  0.14443927  0.61033740  0.85326012  1
  O  O398  1  0.63819965  0.10776410  0.39254665  1
  O  O399  1  0.62247111  0.13671619  0.88632057  1
  O  O400  1  0.61894085  0.62090261  0.38724329  1
  O  O401  1  0.63268275  0.62943048  0.88540422  1
