# generated using pymatgen
data_V73Zn73O256
_symmetry_space_group_name_H-M   'P 1'
_cell_length_a   16.87038584
_cell_length_b   16.88338066
_cell_length_c   16.93001408
_cell_angle_alpha   90.33027661
_cell_angle_beta   90.03173707
_cell_angle_gamma   89.97809542
_symmetry_Int_Tables_number   1
_chemical_formula_structural   V73Zn73O256
_chemical_formula_sum   'V73 Zn73 O256'
_cell_volume   4822.08024983
_cell_formula_units_Z   1
loop_
 _symmetry_equiv_pos_site_id
 _symmetry_equiv_pos_as_xyz
  1  'x, y, z'
loop_
 _atom_site_type_symbol
 _atom_site_label
 _atom_site_symmetry_multiplicity
 _atom_site_fract_x
 _atom_site_fract_y
 _atom_site_fract_z
 _atom_site_occupancy
  V  V0  1  0.89026509  0.47719516  0.35250519  1
  V  V1  1  0.76195873  -0.00451331  0.26213420  1
  V  V2  1  0.01775587  0.75870865  0.25098231  1
  V  V3  1  0.75736695  0.27205748  0.48291056  1
  V  V4  1  0.13284684  0.12224412  0.49266652  1
  V  V5  1  0.24707786  0.51287802  0.25138759  1
  V  V6  1  0.12271436  0.22819602  0.87226859  1
  V  V7  1  0.37315168  0.86873334  0.00402076  1
  V  V8  1  0.60122709  0.36667576  0.24845981  1
  V  V9  1  -0.00087061  0.87593411  0.89708816  1
  V  V10  1  0.63424396  0.27005083  0.90237889  1
  V  V11  1  0.82316328  0.79916025  0.55427633  1
  V  V12  1  0.00520686  0.36847244  0.88103690  1
  V  V13  1  0.76737205  0.12231152  0.37465326  1
  V  V14  1  0.61781751  0.86879600  0.25425808  1
  V  V15  1  0.62751251  0.74919381  0.87469102  1
  V  V16  1  0.49586572  0.86667502  0.37671159  1
  V  V17  1  -0.01512899  0.88138561  0.37533768  1
  V  V18  1  0.26169315  0.22958978  -0.02071561  1
  V  V19  1  0.86005524  0.25774078  0.62318244  1
  V  V20  1  0.25323018  0.24963983  0.49933018  1
  V  V21  1  -0.00079486  0.11556355  0.10166098  1
  V  V22  1  0.63111016  -0.00213164  0.13869558  1
  V  V23  1  0.75872305  0.74803729  0.01550826  1
  V  V24  1  0.62940813  -0.03568804  0.64678106  1
  V  V25  1  0.13204064  0.75306817  0.39569047  1
  V  V26  1  0.36949013  0.86951763  0.50483947  1
  V  V27  1  0.36064439  0.00477661  0.36714617  1
  V  V28  1  0.12361797  0.00163854  0.62788455  1
  V  V29  1  0.50144625  0.86848924  0.87225466  1
  V  V30  1  0.87197476  0.89630874  0.01222510  1
  V  V31  1  0.24320484  0.73843718  -0.00913908  1
  V  V32  1  0.62171286  0.49463873  0.12624606  1
  V  V33  1  0.14151883  -0.00385333  0.09728107  1
  V  V34  1  0.37468429  0.49873915  0.37633862  1
  V  V35  1  0.48952033  0.12028299  0.13735726  1
  V  V36  1  0.06560310  0.57953973  0.08834941  1
  V  V37  1  0.63803617  0.50957812  0.63184188  1
  V  V38  1  0.13011035  0.37384039  0.24845547  1
  V  V39  1  0.00476453  0.23845831  0.23935853  1
  V  V40  1  0.63651517  0.12192812  0.00486968  1
  V  V41  1  0.49933909  0.73768689  0.75204830  1
  V  V42  1  0.13129588  0.25073547  0.36984542  1
  V  V43  1  0.86249336  0.35892583  0.01492043  1
  V  V44  1  0.74469774  0.48656882  0.25629934  1
  V  V45  1  0.90483185  0.63483836  0.75738124  1
  V  V46  1  0.37007698  0.74221006  0.62898506  1
  V  V47  1  0.93107333  0.42050594  0.53809208  1
  V  V48  1  -0.01941925  0.00432795  0.49681316  1
  V  V49  1  0.62067451  0.12556141  0.49926996  1
  V  V50  1  0.38008352  0.37481400  0.50399318  1
  V  V51  1  0.88676865  0.49920388  0.89749136  1
  V  V52  1  0.62967879  0.73824697  0.38350497  1
  V  V53  1  0.39489122  0.62767292  0.25180701  1
  V  V54  1  0.63310114  0.37386006  0.73512893  1
  V  V55  1  0.85114782  0.63785572  0.25121786  1
  V  V56  1  0.51705400  0.50083962  0.49519847  1
  V  V57  1  0.60138362  0.25640557  0.37215181  1
  V  V58  1  0.61363543  0.62517801  0.00965108  1
  V  V59  1  0.24370777  0.38593921  0.62425185  1
  V  V60  1  0.11196126  0.61168688  0.49700464  1
  V  V61  1  0.11234211  0.85743156  0.75049036  1
  V  V62  1  0.25185529  0.38367146  0.10865919  1
  V  V63  1  0.49909864  0.62201628  0.62010506  1
  V  V64  1  0.24690972  0.87000572  0.62860440  1
  V  V65  1  -0.00676447  0.13295878  0.62957895  1
  V  V66  1  0.50159830  0.00296996  0.50519351  1
  V  V67  1  0.37901380  0.01036150  0.86606575  1
  V  V68  1  0.48824785  0.48031276  -0.00566328  1
  V  V69  1  0.38702802  0.74281150  0.13020872  1
  V  V70  1  0.84512409  0.12079453  0.74833022  1
  V  V71  1  0.37192401  0.24719118  0.14327185  1
  V  V72  1  0.75189808  0.61878824  0.87750296  1
  Zn  Zn73  1  0.45129316  0.18262699  0.69702511  1
  Zn  Zn74  1  0.10662270  0.49993165  0.61608407  1
  Zn  Zn75  1  0.26681263  0.61831155  0.84638103  1
  Zn  Zn76  1  0.77406689  0.49994311  0.73438588  1
  Zn  Zn77  1  0.12877432  0.37564015  0.75360357  1
  Zn  Zn78  1  0.50122604  0.00142313  0.00199412  1
  Zn  Zn79  1  0.89127282  0.74846030  0.12680289  1
  Zn  Zn80  1  0.69910057  0.66754717  0.52820780  1
  Zn  Zn81  1  0.25718249  0.01561275  0.74955581  1
  Zn  Zn82  1  0.16715279  0.20089208  0.15246793  1
  Zn  Zn83  1  0.17974909  0.19489278  0.67833418  1
  Zn  Zn84  1  0.20180803  0.71727910  0.18734106  1
  Zn  Zn85  1  0.17682372  0.68206784  0.66543803  1
  Zn  Zn86  1  0.68009595  0.18099907  0.19936444  1
  Zn  Zn87  1  0.63962025  0.16153097  0.71252527  1
  Zn  Zn88  1  0.67836471  0.68651291  0.19106397  1
  Zn  Zn89  1  0.69579022  0.69029124  0.69493939  1
  Zn  Zn90  1  0.30946970  0.31975303  0.31637298  1
  Zn  Zn91  1  0.29215283  0.26412791  0.77641335  1
  Zn  Zn92  1  0.30641787  0.81451090  0.31410760  1
  Zn  Zn93  1  0.30996605  0.81061136  0.81119841  1
  Zn  Zn94  1  0.80343641  0.29607586  0.27001464  1
  Zn  Zn95  1  0.80250124  0.31562533  0.81761798  1
  Zn  Zn96  1  0.80441870  0.81787128  0.32570609  1
  Zn  Zn97  1  0.82762471  0.80463250  0.83531692  1
  Zn  Zn98  1  0.18638761  0.44041956  0.43280188  1
  Zn  Zn99  1  0.16684674  0.46596823  0.94602708  1
  Zn  Zn100  1  0.18137904  0.93040964  0.44100591  1
  Zn  Zn101  1  0.19723359  0.93218000  0.92161546  1
  Zn  Zn102  1  0.74639356  0.49037624  0.47627522  1
  Zn  Zn103  1  0.69089530  0.44110079  0.94637181  1
  Zn  Zn104  1  0.69332615  0.93256291  0.44532022  1
  Zn  Zn105  1  0.68713906  0.93209020  0.95045336  1
  Zn  Zn106  1  0.31645646  0.05733777  0.05511954  1
  Zn  Zn107  1  0.31198445  0.06039184  0.56768935  1
  Zn  Zn108  1  0.31213645  0.56689154  0.06486131  1
  Zn  Zn109  1  0.30195915  0.56701283  0.55587364  1
  Zn  Zn110  1  0.81513084  0.19299901  0.08902594  1
  Zn  Zn111  1  0.79682252  0.06865983  0.56890438  1
  Zn  Zn112  1  0.81037101  0.56260457  0.07433424  1
  Zn  Zn113  1  0.88706107  0.61375718  0.54463517  1
  Zn  Zn114  1  0.43170906  0.44161323  0.17566291  1
  Zn  Zn115  1  0.44370360  0.34944909  0.70641134  1
  Zn  Zn116  1  0.43318897  0.93569363  0.19076932  1
  Zn  Zn117  1  0.44758201  0.93131440  0.68912680  1
  Zn  Zn118  1  0.94866786  0.44013362  0.17946927  1
  Zn  Zn119  1  0.97075335  0.46629687  0.72224740  1
  Zn  Zn120  1  0.94572953  0.93990633  0.18112444  1
  Zn  Zn121  1  0.93641311  0.94762248  0.69446749  1
  Zn  Zn122  1  0.05803845  0.06484133  0.31659715  1
  Zn  Zn123  1  0.04770352  0.05585522  0.81176486  1
  Zn  Zn124  1  0.05507180  0.57063360  0.28401923  1
  Zn  Zn125  1  0.10808863  0.57554724  0.79316053  1
  Zn  Zn126  1  0.55349794  0.06109811  0.32139771  1
  Zn  Zn127  1  0.56741370  0.05626332  0.82084976  1
  Zn  Zn128  1  0.56378119  0.55600838  0.31554058  1
  Zn  Zn129  1  0.50071017  0.51624453  0.78562933  1
  Zn  Zn130  1  0.42990272  0.18223395  0.43787458  1
  Zn  Zn131  1  0.43622684  0.22531574  0.88461064  1
  Zn  Zn132  1  0.43616691  0.68504302  0.43847195  1
  Zn  Zn133  1  0.42964325  0.67664622  0.93027121  1
  Zn  Zn134  1  0.94568000  0.19844267  0.43259575  1
  Zn  Zn135  1  0.92985792  0.18401173  0.93200871  1
  Zn  Zn136  1  0.94253563  0.67697439  0.41016120  1
  Zn  Zn137  1  0.95665083  0.68850769  0.94071320  1
  Zn  Zn138  1  0.06626310  0.31015585  0.05125901  1
  Zn  Zn139  1  0.06451498  0.30373358  0.56155486  1
  Zn  Zn140  1  0.07430834  0.82633050  0.07106141  1
  Zn  Zn141  1  0.04278029  0.81567665  0.56274103  1
  Zn  Zn142  1  0.55397765  0.30724618  0.06775563  1
  Zn  Zn143  1  0.56765496  0.30968937  0.56611639  1
  Zn  Zn144  1  0.56222354  0.81295385  0.06182822  1
  Zn  Zn145  1  0.55917271  0.80906280  0.56097877  1
  O  O146  1  0.12164800  0.10567806  0.11557722  1
  O  O147  1  0.11342648  0.12365852  0.61437583  1
  O  O148  1  0.13205370  0.64033172  0.13761616  1
  O  O149  1  0.10241467  0.61923607  0.60496929  1
  O  O150  1  0.61466364  0.10934723  0.13640350  1
  O  O151  1  0.62937849  0.14213069  0.59646070  1
  O  O152  1  0.62378514  0.61851466  0.11471762  1
  O  O153  1  0.62252608  0.62234961  0.61806866  1
  O  O154  1  0.37346659  0.38789479  0.38630227  1
  O  O155  1  0.35920066  0.43012498  0.83120387  1
  O  O156  1  0.37717024  0.87309032  0.38682523  1
  O  O157  1  0.38783969  0.87197427  0.88116875  1
  O  O158  1  0.87205941  0.37997879  0.33748205  1
  O  O159  1  0.87220437  0.38503205  0.89122376  1
  O  O160  1  0.88504644  0.87849783  0.38001818  1
  O  O161  1  0.88740187  0.87517659  0.89970570  1
  O  O162  1  0.26267541  -0.01223537  0.38853369  1
  O  O163  1  0.27157602  -0.00025484  0.86526801  1
  O  O164  1  0.26212212  0.49836754  0.36044099  1
  O  O165  1  0.30334851  0.47262986  0.85827347  1
  O  O166  1  0.74953324  0.00874234  0.37287307  1
  O  O167  1  0.74880269  -0.03845351  0.84688685  1
  O  O168  1  0.75434054  0.49732651  0.35717823  1
  O  O169  1  0.75827522  0.51464086  0.88627522  1
  O  O170  1  0.26310619  0.48845739  0.13871877  1
  O  O171  1  0.24079765  0.48832777  0.61756916  1
  O  O172  1  0.24250269  0.99983571  0.11517843  1
  O  O173  1  0.24138763  0.99015215  0.63129772  1
  O  O174  1  0.73052170  0.50318690  0.13660331  1
  O  O175  1  0.73934067  0.50612225  0.62169470  1
  O  O176  1  0.73209575  0.99934811  0.15048855  1
  O  O177  1  0.71866529  1.00218486  0.61470870  1
  O  O178  1  0.02613109  0.35990121  0.22906557  1
  O  O179  1  -0.01964785  0.36448439  0.78188601  1
  O  O180  1  -0.00584172  0.87267812  0.26630819  1
  O  O181  1  0.01122968  0.87880000  0.74351767  1
  O  O182  1  0.50244168  0.38192957  0.24933118  1
  O  O183  1  0.53472043  0.40069752  0.76185257  1
  O  O184  1  0.50755900  0.87902104  0.26474660  1
  O  O185  1  0.49951620  0.85266484  0.76154981  1
  O  O186  1  0.49780666  0.12057360  0.23758826  1
  O  O187  1  0.53645047  0.11984868  0.73551218  1
  O  O188  1  0.49326175  0.61927971  0.24774290  1
  O  O189  1  0.49950414  0.62573275  0.73311835  1
  O  O190  1  1.01489231  0.13424198  0.24225705  1
  O  O191  1  0.99342015  0.12228646  0.73042363  1
  O  O192  1  0.98302075  0.66047904  0.26170196  1
  O  O193  1  1.00234454  0.62574817  0.78267789  1
  O  O194  1  0.36107314  0.25493332  -0.02967055  1
  O  O195  1  0.36892482  0.26701053  0.49016849  1
  O  O196  1  0.38012257  0.75577419  0.00373311  1
  O  O197  1  0.38338985  0.76122872  0.51281189  1
  O  O198  1  0.86544647  0.25357342  0.00142634  1
  O  O199  1  0.86200457  0.25240269  0.49166042  1
  O  O200  1  0.86331042  0.74106433  0.00827077  1
  O  O201  1  0.86247064  0.73617457  0.48419675  1
  O  O202  1  0.13158280  0.24141917  0.48870385  1
  O  O203  1  0.14539367  0.25318273  0.98136486  1
  O  O204  1  0.10937743  0.74557345  0.49980622  1
  O  O205  1  0.14670875  0.76300724  1.00831031  1
  O  O206  1  0.63323486  0.25241554  0.48351817  1
  O  O207  1  0.62696991  0.23805617  1.00660356  1
  O  O208  1  0.62086906  0.74262923  0.49007718  1
  O  O209  1  0.63373437  0.74067545  0.99936681  1
  O  O210  1  0.47960267  0.23978982  0.12767036  1
  O  O211  1  0.48499267  0.27081104  0.62995612  1
  O  O212  1  0.48731677  0.75117686  0.12231154  1
  O  O213  1  0.49437007  0.74023248  0.63235233  1
  O  O214  1  1.03064180  0.23154373  0.13058972  1
  O  O215  1  0.97878057  0.24097165  0.60930086  1
  O  O216  1  1.00728815  0.76697717  0.14784826  1
  O  O217  1  0.93160585  0.79476756  0.61081857  1
  O  O218  1  0.02158845  0.24342923  0.35717473  1
  O  O219  1  0.01699626  0.25501026  0.88437368  1
  O  O220  1  -0.00029144  0.76983886  0.37059926  1
  O  O221  1  0.00391722  0.77282871  0.88149517  1
  O  O222  1  0.50292282  0.25160432  0.38229100  1
  O  O223  1  0.54964859  0.22595372  0.86557172  1
  O  O224  1  0.50587471  0.76067429  0.38217367  1
  O  O225  1  0.50807546  0.74753840  0.86942135  1
  O  O226  1  0.24206689  0.13413042  0.50965373  1
  O  O227  1  0.25971764  0.13139521  0.98656854  1
  O  O228  1  0.21698749  0.62032650  0.50071850  1
  O  O229  1  0.25444606  0.63613625  0.99842219  1
  O  O230  1  0.74059391  0.12820547  0.48138958  1
  O  O231  1  0.73296578  0.12676480  1.03345616  1
  O  O232  1  0.77924113  0.59576683  0.50449468  1
  O  O233  1  0.74526084  0.63307214  0.99957840  1
  O  O234  1  0.24532640  0.39416853  0.00998272  1
  O  O235  1  0.25731713  0.37224070  0.50164979  1
  O  O236  1  0.27084063  0.86334982  -0.01354552  1
  O  O237  1  0.25847504  0.87868870  0.51786314  1
  O  O238  1  0.76255677  0.37682418  0.00785168  1
  O  O239  1  0.74810103  0.37013314  0.47971641  1
  O  O240  1  0.76295950  0.85876341  -0.00209845  1
  O  O241  1  0.76683354  0.86659179  0.50350374  1
  O  O242  1  0.14324955  0.49450177  0.25758106  1
  O  O243  1  0.08631104  0.48000928  0.72969784  1
  O  O244  1  0.17318443  1.02972157  0.25966472  1
  O  O245  1  0.12537982  1.00503360  0.73376506  1
  O  O246  1  0.62532548  0.48862242  0.24684672  1
  O  O247  1  0.62891397  0.51172857  0.73254855  1
  O  O248  1  0.62035652  0.99029445  0.25134952  1
  O  O249  1  0.62211763  0.97930820  0.74538173  1
  O  O250  1  0.36814636  -0.01349545  0.26795753  1
  O  O251  1  0.38398808  -0.00748650  0.76195157  1
  O  O252  1  0.37274138  0.50951310  0.25485986  1
  O  O253  1  0.39122787  0.45687840  0.75757419  1
  O  O254  1  0.85907888  -0.01297344  0.24894898  1
  O  O255  1  0.86348866  0.02100217  0.73441438  1
  O  O256  1  0.85539339  0.50010263  0.24183669  1
  O  O257  1  0.88014130  0.51365072  0.77679478  1
  O  O258  1  0.13474926  0.36352683  0.36076097  1
  O  O259  1  0.10981216  0.38267227  0.87895895  1
  O  O260  1  0.10888148  0.86200169  0.38773859  1
  O  O261  1  0.12008543  0.87428192  0.85552033  1
  O  O262  1  0.61796828  0.36024687  0.35993798  1
  O  O263  1  0.62795293  0.37057563  0.88243681  1
  O  O264  1  0.61431345  0.86848184  0.37278376  1
  O  O265  1  0.61611388  0.85761093  0.89048845  1
  O  O266  1  0.38118902  0.13240852  0.11947914  1
  O  O267  1  0.34444291  0.13275434  0.65854323  1
  O  O268  1  0.37891173  0.63287681  0.13846484  1
  O  O269  1  0.38070679  0.63390605  0.61336271  1
  O  O270  1  0.90188164  0.12766951  0.12535315  1
  O  O271  1  0.87173981  0.13907538  0.62800752  1
  O  O272  1  0.87080825  0.62973653  0.14645229  1
  O  O273  1  0.89471978  0.61724963  0.65897292  1
  O  O274  1  0.26339422  0.25269715  0.10018376  1
  O  O275  1  0.24232965  0.26410960  0.60498891  1
  O  O276  1  0.27794144  0.74755130  0.10227697  1
  O  O277  1  0.25895659  0.75685059  0.62897703  1
  O  O278  1  0.76269769  0.24834476  0.17111794  1
  O  O279  1  0.75834922  0.25326037  0.59324755  1
  O  O280  1  0.74297716  0.74835949  0.11466806  1
  O  O281  1  0.75739541  0.74044512  0.61167836  1
  O  O282  1  0.24408123  0.25182826  0.38645013  1
  O  O283  1  0.23684124  0.24560115  0.87353779  1
  O  O284  1  0.23179202  0.75854995  0.38798985  1
  O  O285  1  0.25719493  0.74177978  0.88504558  1
  O  O286  1  0.74665563  0.23774982  0.37300593  1
  O  O287  1  0.72606402  0.24318803  0.86757194  1
  O  O288  1  0.72906136  0.75127581  0.37700407  1
  O  O289  1  0.74575410  0.73947026  0.88881004  1
  O  O290  1  -0.00162008  0.12512534  0.00124488  1
  O  O291  1  0.00800317  0.11773252  0.50045564  1
  O  O292  1  0.00432989  0.63182550  0.02454944  1
  O  O293  1  -0.00703221  0.62191209  0.49500655  1
  O  O294  1  0.52260812  0.11873097  0.02528769  1
  O  O295  1  0.50185506  0.11188805  0.49820212  1
  O  O296  1  0.51449290  0.63017356  -0.00111419  1
  O  O297  1  0.49661745  0.61105196  0.50622043  1
  O  O298  1  0.48782448  0.39182912  0.50737256  1
  O  O299  1  0.49901826  0.37931990  0.99821810  1
  O  O300  1  0.49098814  0.88099419  0.49550477  1
  O  O301  1  0.49324120  0.87312885  0.98984768  1
  O  O302  1  0.99573387  0.36265881  0.48894931  1
  O  O303  1  0.98357221  0.36357478  0.99031540  1
  O  O304  1  0.99579057  0.89747638  0.49291456  1
  O  O305  1  0.99135801  0.87895225  1.00268692  1
  O  O306  1  0.49405366  0.50258499  0.39051982  1
  O  O307  1  0.50123683  0.50646310  0.89807216  1
  O  O308  1  0.48513273  0.98778270  0.38668881  1
  O  O309  1  0.49693324  0.98329272  0.87876869  1
  O  O310  1  0.98861107  0.49057347  0.34022509  1
  O  O311  1  0.98746623  0.48701439  0.89010017  1
  O  O312  1  1.00320896  0.99465037  0.38535411  1
  O  O313  1  0.99975722  0.97625796  0.86961131  1
  O  O314  1  0.01140057  0.01180180  0.12407266  1
  O  O315  1  0.00344659  0.01018818  0.61081380  1
  O  O316  1  0.01296422  0.53096719  0.16655690  1
  O  O317  1  -0.01923550  0.48095817  0.60392685  1
  O  O318  1  0.49914436  0.00770964  0.12770334  1
  O  O319  1  0.52087416  -0.01466946  0.61488694  1
  O  O320  1  0.51286606  0.49662789  0.11331468  1
  O  O321  1  0.51363837  0.51137433  0.61230587  1
  O  O322  1  0.24703441  0.38487545  0.24163918  1
  O  O323  1  0.24945962  0.36314990  0.72620201  1
  O  O324  1  0.24120135  0.82073255  0.22492349  1
  O  O325  1  0.23615906  0.87471133  0.74037363  1
  O  O326  1  0.72982938  0.38531512  0.24938374  1
  O  O327  1  0.73589988  0.39545949  0.76305117  1
  O  O328  1  0.72987069  0.88854224  0.26680266  1
  O  O329  1  0.75799607  0.90441959  0.79737462  1
  O  O330  1  0.22124436  0.08588724  0.25645087  1
  O  O331  1  0.28005079  0.13736564  0.71933006  1
  O  O332  1  0.25842068  0.61315659  0.24447185  1
  O  O333  1  0.20856453  0.61466220  0.74757352  1
  O  O334  1  0.74341756  0.10710602  0.26818031  1
  O  O335  1  0.74545985  0.12786619  0.74056542  1
  O  O336  1  0.74771550  0.61495515  0.24987886  1
  O  O337  1  0.75662893  0.62271786  0.77155821  1
  O  O338  1  0.37229182  0.10482276  0.37971259  1
  O  O339  1  0.39715736  0.10711666  0.87761645  1
  O  O340  1  0.38035146  0.61754175  0.36177210  1
  O  O341  1  0.37816239  0.61785260  0.85356366  1
  O  O342  1  0.86599614  0.12854450  0.37585456  1
  O  O343  1  0.87447182  0.14459197  0.84254561  1
  O  O344  1  0.87413736  0.60288323  0.34954707  1
  O  O345  1  0.87003944  0.61687137  0.88626650  1
  O  O346  1  0.14910323  0.35990603  0.12996599  1
  O  O347  1  0.13389914  0.37537220  0.61635088  1
  O  O348  1  0.11769237  0.90488406  0.14094685  1
  O  O349  1  0.12615504  0.88219181  0.62856003  1
  O  O350  1  0.61657763  0.37689623  0.13971034  1
  O  O351  1  0.62706541  0.39488955  0.62760088  1
  O  O352  1  0.61252475  0.88389748  0.14453530  1
  O  O353  1  0.63144352  0.86413514  0.62988062  1
  O  O354  1  0.13642234  0.25416244  0.25396222  1
  O  O355  1  0.13060877  0.25583243  0.76518770  1
  O  O356  1  0.11654486  0.74824956  0.27104432  1
  O  O357  1  0.11516431  0.76050775  0.73249014  1
  O  O358  1  0.61135908  0.25631647  0.25870944  1
  O  O359  1  0.63550357  0.27540542  0.72961096  1
  O  O360  1  0.62455805  0.76417647  0.25849968  1
  O  O361  1  0.61711721  0.73731947  0.76569686  1
  O  O362  1  0.35660428  0.24231540  0.24027047  1
  O  O363  1  0.40331105  0.26120815  0.77748908  1
  O  O364  1  0.37822263  0.73712575  0.24295747  1
  O  O365  1  0.38410836  0.75010945  0.73819643  1
  O  O366  1  0.90804027  0.25229641  0.24545586  1
  O  O367  1  0.85167231  0.25346863  0.72520617  1
  O  O368  1  0.85390566  0.74356133  0.25183595  1
  O  O369  1  0.87715065  0.73309689  0.76677789  1
  O  O370  1  0.37465437  0.49459289  0.49156468  1
  O  O371  1  0.39101862  0.50071142  1.01517875  1
  O  O372  1  0.38354606  0.98933104  0.50646194  1
  O  O373  1  0.37948386  0.98376397  0.98721699  1
  O  O374  1  0.87805478  0.47714273  0.46649896  1
  O  O375  1  0.87099694  0.49572657  0.99973352  1
  O  O376  1  0.88299957  1.01473297  0.50457836  1
  O  O377  1  0.85944304  0.99085379  1.01264979  1
  O  O378  1  0.13146793  -0.01735453  -0.00241600  1
  O  O379  1  0.12421998  0.00796043  0.51209757  1
  O  O380  1  0.11318469  0.50472532  0.03842388  1
  O  O381  1  0.11121226  0.50560764  0.48926578  1
  O  O382  1  0.62791209  -0.00398671  0.02691290  1
  O  O383  1  0.61346810  0.00798020  0.48942117  1
  O  O384  1  0.61960597  0.51113706  0.00771810  1
  O  O385  1  0.61860058  0.49681405  0.50069634  1
  O  O386  1  0.36334569  0.35709897  0.12823294  1
  O  O387  1  0.35957388  0.38120142  0.60734747  1
  O  O388  1  0.38312707  0.86716469  0.11004845  1
  O  O389  1  0.36836999  0.86636341  0.62366506  1
  O  O390  1  0.88415883  0.37623379  0.11256050  1
  O  O391  1  0.87381692  0.36427799  0.60728095  1
  O  O392  1  0.88095262  0.86881411  0.11451756  1
  O  O393  1  0.88443265  0.86722131  0.62130152  1
  O  O394  1  0.12716811  0.12887641  0.38735574  1
  O  O395  1  0.11875252  0.12953950  0.86558130  1
  O  O396  1  0.10655422  0.64428918  0.38491451  1
  O  O397  1  0.17337311  0.55925246  0.88493374  1
  O  O398  1  0.62020240  0.13938329  0.37965097  1
  O  O399  1  0.63813738  0.09286356  0.90782506  1
  O  O400  1  0.61804477  0.63948208  0.36795772  1
  O  O401  1  0.64141141  0.63148874  0.89335193  1
