# generated using pymatgen
data_V73Zn73O256
_symmetry_space_group_name_H-M   'P 1'
_cell_length_a   16.84187279
_cell_length_b   16.86333566
_cell_length_c   16.85977708
_cell_angle_alpha   89.98634235
_cell_angle_beta   90.01235072
_cell_angle_gamma   89.95779864
_symmetry_Int_Tables_number   1
_chemical_formula_structural   V73Zn73O256
_chemical_formula_sum   'V73 Zn73 O256'
_cell_volume   4788.34633628
_cell_formula_units_Z   1
loop_
 _symmetry_equiv_pos_site_id
 _symmetry_equiv_pos_as_xyz
  1  'x, y, z'
loop_
 _atom_site_type_symbol
 _atom_site_label
 _atom_site_symmetry_multiplicity
 _atom_site_fract_x
 _atom_site_fract_y
 _atom_site_fract_z
 _atom_site_occupancy
  V  V0  1  0.75033545  0.88263997  0.11857856  1
  V  V1  1  -0.00901098  0.39199129  0.37869515  1
  V  V2  1  0.12276479  0.75382410  0.37123611  1
  V  V3  1  0.37487713  0.87222091  0.49578773  1
  V  V4  1  0.12239185  0.84915847  0.76048453  1
  V  V5  1  0.50345910  0.01039438  0.51242265  1
  V  V6  1  0.11617156  0.62240663  0.49612419  1
  V  V7  1  0.62585053  0.52128167  0.12329281  1
  V  V8  1  0.74456221  0.13344059  0.87614838  1
  V  V9  1  0.50938456  0.75101384  0.75222096  1
  V  V10  1  -0.00000241  0.00907559  0.52052427  1
  V  V11  1  0.24178634  0.01132062  0.24540476  1
  V  V12  1  0.87585132  0.61263661  0.25626697  1
  V  V13  1  0.74145423  0.86737463  0.62974961  1
  V  V14  1  0.25328922  0.87164490  0.12301426  1
  V  V15  1  0.72831944  0.00451196  0.73939132  1
  V  V16  1  0.76104330  -0.00192384  0.26298118  1
  V  V17  1  0.24697537  0.74898834  0.49829112  1
  V  V18  1  0.08918506  0.29235177  0.80727658  1
  V  V19  1  0.62512197  0.63446782  0.49419796  1
  V  V20  1  0.50978905  0.36483530  0.36682417  1
  V  V21  1  0.74719272  0.38194071  0.63385509  1
  V  V22  1  0.51935476  0.86940179  0.87342860  1
  V  V23  1  0.24029651  0.49834700  0.74567045  1
  V  V24  1  0.86878062  0.39292418  0.49068538  1
  V  V25  1  -0.00486294  0.75116486  0.25207354  1
  V  V26  1  0.23999762  0.87447759  0.62962740  1
  V  V27  1  0.72361123  0.12590112  0.37876132  1
  V  V28  1  0.25248246  0.37364794  0.13414380  1
  V  V29  1  0.37624959  0.35999276  0.49398218  1
  V  V30  1  0.61711409  0.50448574  0.62940968  1
  V  V31  1  0.73677685  0.73923537  -0.00608920  1
  V  V32  1  0.89639325  0.37745299  -0.00330038  1
  V  V33  1  0.37916179  0.86431152  -0.00396001  1
  V  V34  1  0.48000690  0.73519826  0.25163941  1
  V  V35  1  0.26077324  0.36740730  0.61940827  1
  V  V36  1  0.37460180  0.74443128  0.62760417  1
  V  V37  1  0.39502040  0.23589952  0.13026184  1
  V  V38  1  0.38434200  0.36930962  -0.00067244  1
  V  V39  1  0.87939205  0.12719853  0.27422110  1
  V  V40  1  0.61549918  0.25441033  0.88717465  1
  V  V41  1  0.74092483  0.37011028  0.11521858  1
  V  V42  1  0.37511545  0.62404248  0.75161377  1
  V  V43  1  0.25755694  0.61415826  0.35985806  1
  V  V44  1  0.87933674  0.24341522  0.62264986  1
  V  V45  1  0.36653304  -0.00474291  0.37714764  1
  V  V46  1  0.00108727  0.25282477  0.26133805  1
  V  V47  1  0.13132120  0.37596000  0.26030665  1
  V  V48  1  0.23544514  0.74218175  -0.00479654  1
  V  V49  1  -0.00608572  0.12736960  0.12368828  1
  V  V50  1  0.49003652  0.24562305  0.73818295  1
  V  V51  1  0.48995508  0.50896912  0.49299633  1
  V  V52  1  0.50234883  0.51672084  0.00080446  1
  V  V53  1  0.86873948  0.86023087  0.50292663  1
  V  V54  1  0.12734476  0.11034153  0.00697002  1
  V  V55  1  0.51005835  0.00773605  0.00278319  1
  V  V56  1  0.73923072  0.24883739  0.49348250  1
  V  V57  1  0.87068141  0.75258311  0.11896812  1
  V  V58  1  0.12290293  0.87544433  0.23999951  1
  V  V59  1  0.24614167  0.24438101  0.00749688  1
  V  V60  1  -0.00670001  0.86355674  0.87372309  1
  V  V61  1  -0.01670555  -0.00190359  0.00163909  1
  V  V62  1  0.37718875  0.49246279  0.87153236  1
  V  V63  1  0.62443907  0.87400912  0.26642908  1
  V  V64  1  0.88098300  0.01207431  0.85301476  1
  V  V65  1  0.25686937  0.12253576  0.88024382  1
  V  V66  1  0.24454110  0.00628598  0.75321652  1
  V  V67  1  0.74539325  0.61326075  0.85048425  1
  V  V68  1  0.00373646  0.61950335  0.11092433  1
  V  V69  1  0.11395873  0.49053022  0.61551716  1
  V  V70  1  0.74308625  0.49569300  0.25658722  1
  V  V71  1  0.39584194  0.11857964  0.25504102  1
  V  V72  1  -0.00979732  0.65934925  0.62502337  1
  Zn  Zn73  1  0.38132715  -0.00091818  0.87002187  1
  Zn  Zn74  1  0.21510242  0.63215665  0.86948693  1
  Zn  Zn75  1  0.86693161  0.49796146  0.88047840  1
  Zn  Zn76  1  -0.03102407  0.90787279  0.36750713  1
  Zn  Zn77  1  0.86840533  0.25230369  0.12365954  1
  Zn  Zn78  1  0.11719971  0.49911726  0.11629875  1
  Zn  Zn79  1  0.61602290  0.01659642  0.13127193  1
  Zn  Zn80  1  0.75212098  0.63412556  0.38792685  1
  Zn  Zn81  1  0.61378869  0.37860818  0.76179687  1
  Zn  Zn82  1  0.18003935  0.19298973  0.18331607  1
  Zn  Zn83  1  0.32256579  0.18492697  0.68957789  1
  Zn  Zn84  1  0.19009672  0.68876037  0.17988756  1
  Zn  Zn85  1  0.18089282  0.67958376  0.68184326  1
  Zn  Zn86  1  0.66963475  0.19239913  0.19340450  1
  Zn  Zn87  1  0.67893922  0.18853957  0.69385779  1
  Zn  Zn88  1  0.69372840  0.69938660  0.21656141  1
  Zn  Zn89  1  0.68904251  0.68540521  0.67999150  1
  Zn  Zn90  1  0.33593925  0.31562181  0.30657975  1
  Zn  Zn91  1  0.29622932  0.31181173  0.81335312  1
  Zn  Zn92  1  0.31046929  0.80751679  0.30937259  1
  Zn  Zn93  1  0.31056864  0.81139741  0.81641441  1
  Zn  Zn94  1  0.80664211  0.31031164  0.30931117  1
  Zn  Zn95  1  0.81965084  0.31238999  0.81220782  1
  Zn  Zn96  1  0.80569539  0.80918805  0.32240262  1
  Zn  Zn97  1  0.80891052  0.81569455  0.81172212  1
  Zn  Zn98  1  0.19069361  0.43587255  0.43908330  1
  Zn  Zn99  1  0.13152307  0.46961228  0.91818710  1
  Zn  Zn100  1  0.15566856  0.96343789  0.42169595  1
  Zn  Zn101  1  0.18402801  0.93306325  0.93595238  1
  Zn  Zn102  1  0.67955072  0.44284867  0.43936616  1
  Zn  Zn103  1  0.68748692  0.44086717  0.93848240  1
  Zn  Zn104  1  0.69103424  0.94036017  0.44673654  1
  Zn  Zn105  1  0.69743488  0.94138927  0.93526106  1
  Zn  Zn106  1  0.32533249  0.05171771  0.06626011  1
  Zn  Zn107  1  0.29759298  0.05468340  0.56049420  1
  Zn  Zn108  1  0.27611994  0.53437445  0.03453182  1
  Zn  Zn109  1  0.30993633  0.56404376  0.55938029  1
  Zn  Zn110  1  0.77859656  0.09341075  0.08349796  1
  Zn  Zn111  1  0.81572018  0.05926545  0.55950532  1
  Zn  Zn112  1  0.81549001  0.55991027  0.06306139  1
  Zn  Zn113  1  0.80869031  0.56912230  0.57003598  1
  Zn  Zn114  1  0.44799449  0.43214884  0.17624881  1
  Zn  Zn115  1  0.44062861  0.43073017  0.68631852  1
  Zn  Zn116  1  0.45557360  0.90601507  0.17409038  1
  Zn  Zn117  1  0.43160899  0.93579289  0.68925674  1
  Zn  Zn118  1  0.93623795  0.43414632  0.18207547  1
  Zn  Zn119  1  0.94816770  0.39103199  0.69388181  1
  Zn  Zn120  1  0.93286813  0.94010075  0.18522475  1
  Zn  Zn121  1  0.93970329  0.92223703  0.68388551  1
  Zn  Zn122  1  0.05231971  0.05691669  0.30280316  1
  Zn  Zn123  1  0.07353930  0.07003068  0.81877312  1
  Zn  Zn124  1  0.07097736  0.56265283  0.30330363  1
  Zn  Zn125  1  0.04484590  0.57517225  0.79858090  1
  Zn  Zn126  1  0.55751566  0.03110892  0.31981941  1
  Zn  Zn127  1  0.55856760  0.06816218  0.81378251  1
  Zn  Zn128  1  0.55758990  0.56149993  0.31354660  1
  Zn  Zn129  1  0.56300449  0.56789589  0.81725032  1
  Zn  Zn130  1  0.44044930  0.18278466  0.43709545  1
  Zn  Zn131  1  0.43986701  0.18733203  0.93441797  1
  Zn  Zn132  1  0.43990373  0.69164110  0.42743743  1
  Zn  Zn133  1  0.43054196  0.68668444  0.93163292  1
  Zn  Zn134  1  0.95484241  0.20183933  0.46367749  1
  Zn  Zn135  1  0.92799806  0.18738960  0.93918729  1
  Zn  Zn136  1  0.93386251  0.68807100  0.43868148  1
  Zn  Zn137  1  0.92405965  0.68156139  0.93329348  1
  Zn  Zn138  1  0.06374434  0.30911115  0.06657609  1
  Zn  Zn139  1  0.08238106  0.28839210  0.61621013  1
  Zn  Zn140  1  0.05773738  0.81267082  0.05835971  1
  Zn  Zn141  1  0.06768178  0.83964280  0.54915872  1
  Zn  Zn142  1  0.56854260  0.31394140  0.06616068  1
  Zn  Zn143  1  0.55717725  0.31387758  0.56262285  1
  Zn  Zn144  1  0.56714871  0.80681537  0.07729132  1
  Zn  Zn145  1  0.55906411  0.82027733  0.56618481  1
  O  O146  1  0.10675982  0.12674824  0.11895334  1
  O  O147  1  0.16225602  0.14669517  0.56303817  1
  O  O148  1  0.10731462  0.62589987  0.12991501  1
  O  O149  1  0.11000176  0.61426157  0.61507163  1
  O  O150  1  0.67121868  0.11338911  0.11903353  1
  O  O151  1  0.64661815  0.13000206  0.60498147  1
  O  O152  1  0.63344627  0.61883967  0.13030498  1
  O  O153  1  0.62587326  0.60979841  0.61763461  1
  O  O154  1  0.37725112  0.37897361  0.38922702  1
  O  O155  1  0.36475333  0.38313361  0.88752115  1
  O  O156  1  0.35746542  0.88086302  0.38572546  1
  O  O157  1  0.37656533  0.87501191  0.88802260  1
  O  O158  1  0.88101183  0.37677063  0.37660995  1
  O  O159  1  0.87357808  0.37384900  0.89220371  1
  O  O160  1  0.85980835  0.88104380  0.38764170  1
  O  O161  1  0.88982804  0.89254885  0.86660384  1
  O  O162  1  0.24916249  -0.00164710  0.35906954  1
  O  O163  1  0.25015170  0.00381695  0.86965213  1
  O  O164  1  0.24088762  0.51518519  0.37429072  1
  O  O165  1  0.25872624  0.49556747  0.85223622  1
  O  O166  1  0.74874758  0.01798839  0.37510986  1
  O  O167  1  0.76399254  0.00179576  0.85980878  1
  O  O168  1  0.74062277  0.50652389  0.35831132  1
  O  O169  1  0.74681678  0.50703215  0.86678750  1
  O  O170  1  0.27115970  0.47123090  0.13912382  1
  O  O171  1  0.24631417  0.49913099  0.63121981  1
  O  O172  1  0.25289455  0.98908513  0.13755239  1
  O  O173  1  0.24826209  0.98330736  0.64128578  1
  O  O174  1  0.73743812  0.49418507  0.12642638  1
  O  O175  1  0.73643834  0.49012375  0.61836913  1
  O  O176  1  0.77093805  0.98438912  0.13531079  1
  O  O177  1  0.74999177  1.00136373  0.63681361  1
  O  O178  1  0.00649892  0.37043737  0.25569989  1
  O  O179  1  0.04648697  0.33259130  0.71959509  1
  O  O180  1  0.00353437  0.87105406  0.25227689  1
  O  O181  1  0.01317308  0.87134232  0.76087960  1
  O  O182  1  0.48215451  0.38409492  0.26907165  1
  O  O183  1  0.49850862  0.35993131  0.75175194  1
  O  O184  1  0.52785991  0.91642907  0.26316644  1
  O  O185  1  0.49353519  0.86480992  0.76545182  1
  O  O186  1  0.49389883  0.10812115  0.25341645  1
  O  O187  1  0.49589136  0.14310094  0.75859509  1
  O  O188  1  0.50689653  0.63678989  0.24468586  1
  O  O189  1  0.48740621  0.64063920  0.75929942  1
  O  O190  1  0.99671790  0.13215512  0.24443414  1
  O  O191  1  1.03017050  0.18255279  0.79360799  1
  O  O192  1  0.99079685  0.63091385  0.24284506  1
  O  O193  1  1.00257338  0.64413755  0.72481811  1
  O  O194  1  0.37701802  0.24784961  0.01682967  1
  O  O195  1  0.37639839  0.26093314  0.49811609  1
  O  O196  1  0.36905733  0.76103308  -0.00140910  1
  O  O197  1  0.36650671  0.75143826  0.50674827  1
  O  O198  1  0.88382706  0.26637261  0.00572749  1
  O  O199  1  0.85904922  0.26211770  0.50329672  1
  O  O200  1  0.86473154  0.74905196  0.01655373  1
  O  O201  1  0.86281608  0.75954250  0.49145386  1
  O  O202  1  0.13548452  0.21506542  0.53403499  1
  O  O203  1  0.14212637  0.23985769  1.01048904  1
  O  O204  1  0.12963140  0.74719996  0.48900608  1
  O  O205  1  0.13527309  0.75304971  0.99934600  1
  O  O206  1  0.64027050  0.25683632  0.50387151  1
  O  O207  1  0.62114889  0.24989879  0.98783454  1
  O  O208  1  0.60737871  0.73194884  0.51198702  1
  O  O209  1  0.63767016  0.75358589  1.00892406  1
  O  O210  1  0.49394086  0.24705752  0.12715927  1
  O  O211  1  0.50072587  0.24900240  0.63709001  1
  O  O212  1  0.48852734  0.79225381  0.15480644  1
  O  O213  1  0.48335502  0.76335197  0.64256643  1
  O  O214  1  0.99736100  0.24218489  0.13717620  1
  O  O215  1  0.97857208  0.24934580  0.58931587  1
  O  O216  1  0.98937404  0.74706800  0.13074758  1
  O  O217  1  1.00529317  0.75709623  0.60887653  1
  O  O218  1  -0.00122223  0.26303037  0.36710960  1
  O  O219  1  0.01740759  0.22658577  0.86723497  1
  O  O220  1  0.00714245  0.74649088  0.36264695  1
  O  O221  1  -0.01367977  0.76580856  0.88559877  1
  O  O222  1  0.49481069  0.26467390  0.37894103  1
  O  O223  1  0.51160254  0.25172151  0.87378492  1
  O  O224  1  0.49212448  0.75912023  0.35228082  1
  O  O225  1  0.49727285  0.75854588  0.86584762  1
  O  O226  1  0.20013564  0.10211647  0.50744309  1
  O  O227  1  0.24831847  0.12625435  1.00786140  1
  O  O228  1  0.23698368  0.63504671  0.49789039  1
  O  O229  1  0.25537733  0.64173489  1.00438521  1
  O  O230  1  0.75170737  0.13521223  0.48590524  1
  O  O231  1  0.76110958  0.11657981  0.97390479  1
  O  O232  1  0.73256766  0.62477841  0.50177127  1
  O  O233  1  0.74984551  0.63891152  1.00741576  1
  O  O234  1  0.26534784  0.35443513  0.01951474  1
  O  O235  1  0.26530008  0.37950293  0.50585242  1
  O  O236  1  0.25672248  0.86801325  0.00208984  1
  O  O237  1  0.25072028  0.85911787  0.51122268  1
  O  O238  1  0.75064772  0.37607709  0.01344783  1
  O  O239  1  0.75585947  0.36834078  0.49068161  1
  O  O240  1  0.75079632  0.86872064  0.01466085  1
  O  O241  1  0.75970706  0.88709996  0.51719587  1
  O  O242  1  0.12294702  0.47904421  0.23812317  1
  O  O243  1  0.13618724  0.50094136  0.73120973  1
  O  O244  1  0.13392629  0.99023652  0.25071452  1
  O  O245  1  0.13884183  0.99552795  0.75756038  1
  O  O246  1  0.63500679  0.50571822  0.23760476  1
  O  O247  1  0.60884211  0.49704521  0.73427486  1
  O  O248  1  0.65031523  0.99902070  0.24892617  1
  O  O249  1  0.62934208  1.00011791  0.75112515  1
  O  O250  1  0.36106102  0.00909480  0.25625733  1
  O  O251  1  0.35269389  -0.01631508  0.75653151  1
  O  O252  1  0.38328783  0.55047938  0.20630560  1
  O  O253  1  0.37684920  0.50795723  0.75244592  1
  O  O254  1  0.87218798  0.01086995  0.25575220  1
  O  O255  1  0.88521131  0.00401886  0.75379353  1
  O  O256  1  0.87148732  0.50849047  0.24670416  1
  O  O257  1  0.91112899  0.47962538  0.75820544  1
  O  O258  1  0.11578133  0.37839183  0.36572213  1
  O  O259  1  0.10406869  0.36972416  0.87236057  1
  O  O260  1  0.13256214  0.85918532  0.35794809  1
  O  O261  1  0.11144816  0.87403960  0.86729767  1
  O  O262  1  0.60995742  0.37860132  0.37574047  1
  O  O263  1  0.63752597  0.35926356  0.87528308  1
  O  O264  1  0.64337914  0.87442270  0.36492855  1
  O  O265  1  0.61789643  0.87160989  0.87685269  1
  O  O266  1  0.37933252  0.12821945  0.13746249  1
  O  O267  1  0.36158454  0.13107952  0.60396862  1
  O  O268  1  0.37011121  0.59607935  0.15004668  1
  O  O269  1  0.36865620  0.63556964  0.63484247  1
  O  O270  1  0.88238448  0.12954784  0.13211914  1
  O  O271  1  0.85943100  0.14593048  0.62586622  1
  O  O272  1  0.88400075  0.63472504  0.13302482  1
  O  O273  1  0.89476916  0.62943533  0.60594143  1
  O  O274  1  0.26330169  0.24710963  0.12146866  1
  O  O275  1  0.25110842  0.27014786  0.63407017  1
  O  O276  1  0.24726432  0.76252886  0.11214547  1
  O  O277  1  0.25258315  0.75064642  0.61856459  1
  O  O278  1  0.74785590  0.26823666  0.13835286  1
  O  O279  1  0.75612809  0.26790618  0.61246726  1
  O  O280  1  0.75852067  0.75881632  0.12690570  1
  O  O281  1  0.75352213  0.76705977  0.63660861  1
  O  O282  1  0.24676447  0.25011734  0.39510278  1
  O  O283  1  0.26717631  0.24010384  0.90460471  1
  O  O284  1  0.24070641  0.74072603  0.38171915  1
  O  O285  1  0.25006939  0.74366784  0.88813758  1
  O  O286  1  0.74771332  0.23937957  0.38188566  1
  O  O287  1  0.74831053  0.23677846  0.86384154  1
  O  O288  1  0.73614758  0.72492588  0.32420295  1
  O  O289  1  0.75516945  0.74709943  0.89013657  1
  O  O290  1  0.00421187  0.11596936  0.00486886  1
  O  O291  1  0.01063216  0.10874821  0.50085532  1
  O  O292  1  -0.00635968  0.63328619  0.01254481  1
  O  O293  1  0.01169273  0.63188478  0.50229479  1
  O  O294  1  0.49915536  0.10626346  -0.00727545  1
  O  O295  1  0.49372768  0.11046416  0.50316706  1
  O  O296  1  0.48903309  0.61525954  0.00298779  1
  O  O297  1  0.50189340  0.61471528  0.49545520  1
  O  O298  1  0.48996235  0.38177786  0.49245112  1
  O  O299  1  0.48701354  0.38297870  1.01132583  1
  O  O300  1  0.47736744  0.87507863  0.50425362  1
  O  O301  1  0.49301495  0.86880837  0.98900065  1
  O  O302  1  0.98236463  0.38055398  0.48323331  1
  O  O303  1  0.99796065  0.38143485  1.00834388  1
  O  O304  1  0.97608094  0.87679793  0.48822832  1
  O  O305  1  1.00512328  0.89098037  0.98746118  1
  O  O306  1  0.50137020  0.49191323  0.38903231  1
  O  O307  1  0.49149278  0.50313012  0.88902757  1
  O  O308  1  0.47244366  0.99814214  0.39294110  1
  O  O309  1  0.50233862  0.98323209  0.88095470  1
  O  O310  1  1.00153480  0.49057426  0.36582363  1
  O  O311  1  0.97179379  0.48512906  0.81903186  1
  O  O312  1  1.03771551  0.99567533  0.39089990  1
  O  O313  1  0.99273658  1.00588758  0.88023414  1
  O  O314  1  -0.01096756  0.00774875  0.11002753  1
  O  O315  1  -0.00171671  0.00007941  0.62198623  1
  O  O316  1  -0.00235776  0.51513339  0.12476787  1
  O  O317  1  0.01725458  0.47653547  0.62687122  1
  O  O318  1  0.50368388  -0.00859015  0.10853348  1
  O  O319  1  0.49050154  -0.01001343  0.61203491  1
  O  O320  1  0.51386199  0.50159818  0.11466193  1
  O  O321  1  0.51075006  0.49019123  0.61018643  1
  O  O322  1  0.24152566  0.35697085  0.24812276  1
  O  O323  1  0.26365322  0.39307734  0.73237811  1
  O  O324  1  0.24210314  0.87574920  0.23894231  1
  O  O325  1  0.23576112  0.87456909  0.75130638  1
  O  O326  1  0.76079834  0.39275498  0.23957869  1
  O  O327  1  0.74938349  0.37519334  0.73425374  1
  O  O328  1  0.74739847  0.88296874  0.24530988  1
  O  O329  1  0.75415885  0.89368707  0.74043470  1
  O  O330  1  0.24053529  0.11182683  0.24100448  1
  O  O331  1  0.25215768  0.11205529  0.76068162  1
  O  O332  1  0.24199949  0.62901991  0.26040743  1
  O  O333  1  0.25484731  0.61397840  0.74941031  1
  O  O334  1  0.76180123  0.12137832  0.27043718  1
  O  O335  1  0.74620119  0.11108386  0.75945650  1
  O  O336  1  0.76721735  0.60597476  0.23380368  1
  O  O337  1  0.75321550  0.62366461  0.75050708  1
  O  O338  1  0.37291472  0.11825991  0.36025844  1
  O  O339  1  0.36217715  0.11687720  0.88609895  1
  O  O340  1  0.35590165  0.62723201  0.38018317  1
  O  O341  1  0.36789836  0.61078497  0.86557627  1
  O  O342  1  0.89100094  0.13300579  0.37195709  1
  O  O343  1  0.87049793  0.11728539  0.86586388  1
  O  O344  1  0.87379892  0.62577728  0.35936657  1
  O  O345  1  0.85407949  0.61699613  0.87829365  1
  O  O346  1  0.14229519  0.36781797  0.13517978  1
  O  O347  1  0.14648093  0.38695820  0.60345333  1
  O  O348  1  0.12907354  0.87110210  0.13409446  1
  O  O349  1  0.13308927  0.85870886  0.64775610  1
  O  O350  1  0.63575734  0.38561245  0.12475349  1
  O  O351  1  0.63671113  0.38439410  0.61967730  1
  O  O352  1  0.64423856  0.88582125  0.13465831  1
  O  O353  1  0.64070813  0.87596866  0.62066160  1
  O  O354  1  0.11316038  0.26238203  0.24747575  1
  O  O355  1  0.18039377  0.26077415  0.78163578  1
  O  O356  1  0.11352654  0.75510044  0.25071897  1
  O  O357  1  0.13134376  0.74966198  0.76280687  1
  O  O358  1  0.62059377  0.25194047  0.26884327  1
  O  O359  1  0.61331235  0.25496543  0.75913865  1
  O  O360  1  0.60719881  0.77450204  0.24097663  1
  O  O361  1  0.60685785  0.74521759  0.74108711  1
  O  O362  1  0.37563587  0.23011595  0.24233288  1
  O  O363  1  0.38112061  0.25408938  0.75796879  1
  O  O364  1  0.37643095  0.74221460  0.24635232  1
  O  O365  1  0.37174951  0.74122591  0.74561453  1
  O  O366  1  0.88336706  0.24261539  0.24933100  1
  O  O367  1  0.88587903  0.28058453  0.72145592  1
  O  O368  1  0.88351383  0.73979636  0.24238991  1
  O  O369  1  0.87520330  0.76443341  0.73661370  1
  O  O370  1  0.38758774  0.50008056  0.50518848  1
  O  O371  1  0.37985294  0.49092283  0.99384285  1
  O  O372  1  0.36266693  0.98732245  0.49327046  1
  O  O373  1  0.38969613  0.98584093  0.99559680  1
  O  O374  1  0.85904488  0.49122052  0.49132994  1
  O  O375  1  0.87375256  0.48452863  1.00006066  1
  O  O376  1  0.89255109  0.99767190  0.50086958  1
  O  O377  1  0.88514012  1.00206253  0.98542788  1
  O  O378  1  0.11587938  0.00662870  -0.00124732  1
  O  O379  1  0.10301057  -0.04628738  0.52030774  1
  O  O380  1  0.17208821  0.48883827  0.02012445  1
  O  O381  1  0.12864636  0.51038462  0.50722686  1
  O  O382  1  0.61358084  -0.00843916  -0.00254888  1
  O  O383  1  0.60035409  -0.00839738  0.49081455  1
  O  O384  1  0.61136291  0.50414424  0.00676029  1
  O  O385  1  0.61288422  0.50924746  0.50822446  1
  O  O386  1  0.37198919  0.35461656  0.12815286  1
  O  O387  1  0.36841699  0.38038136  0.60988772  1
  O  O388  1  0.36291259  0.88147667  0.10776531  1
  O  O389  1  0.35836113  0.86194471  0.62048652  1
  O  O390  1  0.86492677  0.37597140  0.11380281  1
  O  O391  1  0.86117287  0.38152620  0.60525060  1
  O  O392  1  0.86805692  0.85951776  0.13389782  1
  O  O393  1  0.86625656  0.87384884  0.61193579  1
  O  O394  1  0.20014449  0.19743261  0.37363166  1
  O  O395  1  0.14588920  0.12407834  0.89583224  1
  O  O396  1  0.12889098  0.63416806  0.37783909  1
  O  O397  1  0.11661706  0.57799463  0.88190366  1
  O  O398  1  0.62550570  0.12045912  0.37230180  1
  O  O399  1  0.63631254  0.13653122  0.87382384  1
  O  O400  1  0.62195144  0.62109923  0.39125349  1
  O  O401  1  0.64417513  0.62730407  0.86986198  1
