# generated using pymatgen
data_V73Zn73O256
_symmetry_space_group_name_H-M   'P 1'
_cell_length_a   16.84262054
_cell_length_b   16.86146336
_cell_length_c   16.91210945
_cell_angle_alpha   89.94451510
_cell_angle_beta   89.96832424
_cell_angle_gamma   90.10688264
_symmetry_Int_Tables_number   1
_chemical_formula_structural   V73Zn73O256
_chemical_formula_sum   'V73 Zn73 O256'
_cell_volume   4802.87940364
_cell_formula_units_Z   1
loop_
 _symmetry_equiv_pos_site_id
 _symmetry_equiv_pos_as_xyz
  1  'x, y, z'
loop_
 _atom_site_type_symbol
 _atom_site_label
 _atom_site_symmetry_multiplicity
 _atom_site_fract_x
 _atom_site_fract_y
 _atom_site_fract_z
 _atom_site_occupancy
  V  V0  1  0.23582971  -0.00495148  0.74835340  1
  V  V1  1  0.87684062  0.37240488  0.48469291  1
  V  V2  1  0.35609378  0.26035047  0.61743351  1
  V  V3  1  0.76159281  0.49786855  0.24104496  1
  V  V4  1  0.25860886  0.87548693  0.11888879  1
  V  V5  1  0.62030237  0.00747506  0.61279212  1
  V  V6  1  0.61883643  0.49593666  0.63604869  1
  V  V7  1  0.75701362  0.37196421  0.63235566  1
  V  V8  1  0.12726745  0.49744941  0.62173295  1
  V  V9  1  0.74593726  0.23519097  0.01183180  1
  V  V10  1  0.86119214  0.00177495  0.88301163  1
  V  V11  1  0.50803357  0.24948918  0.74313750  1
  V  V12  1  0.14489223  0.62698293  0.00032755  1
  V  V13  1  0.61463766  0.61541997  0.50684556  1
  V  V14  1  0.88496189  0.00319687  0.36781889  1
  V  V15  1  0.12290184  0.49991829  0.13693891  1
  V  V16  1  0.62804608  0.74174049  0.87856295  1
  V  V17  1  0.12160983  0.63260121  0.49001155  1
  V  V18  1  0.26308307  0.63003873  0.36869661  1
  V  V19  1  0.51277140  0.37704080  0.87570975  1
  V  V20  1  0.76390227  0.50894343  0.75077145  1
  V  V21  1  -0.00486352  -0.00553000  0.00149158  1
  V  V22  1  0.49467509  0.01800791  0.50293324  1
  V  V23  1  0.37826871  0.37844439  -0.00041752  1
  V  V24  1  0.62316818  0.87735064  0.24161339  1
  V  V25  1  0.74984891  0.24124020  0.50103041  1
  V  V26  1  0.62127602  0.37921998  0.24416166  1
  V  V27  1  0.49005637  0.87631754  0.38691570  1
  V  V28  1  -0.00655430  0.49831203  0.48495029  1
  V  V29  1  0.11383395  0.25542800  0.87233826  1
  V  V30  1  0.25311279  0.49374575  0.74621489  1
  V  V31  1  0.24653160  0.87797773  0.62188134  1
  V  V32  1  0.76324248  0.62575142  0.88073445  1
  V  V33  1  0.49205488  0.74161424  0.24630833  1
  V  V34  1  0.49442672  0.13608099  0.11474160  1
  V  V35  1  0.61188399  0.00360889  0.11385646  1
  V  V36  1  -0.00704861  0.62337533  0.63553260  1
  V  V37  1  0.88232944  0.13574215  0.74344376  1
  V  V38  1  0.62300550  0.74915127  0.38040822  1
  V  V39  1  0.37676369  0.13819144  0.25055022  1
  V  V40  1  0.86986598  0.73910289  0.64623675  1
  V  V41  1  0.25574036  0.00087595  0.25305970  1
  V  V42  1  0.11549151  0.12846353  0.00494783  1
  V  V43  1  0.74644051  0.00242703  0.73397940  1
  V  V44  1  0.11894125  0.85900085  0.24786644  1
  V  V45  1  0.50004142  0.87847019  0.87996934  1
  V  V46  1  0.11786403  0.00405862  0.12815346  1
  V  V47  1  0.88316721  0.88823402  0.52657457  1
  V  V48  1  0.24887842  0.12890502  0.87496317  1
  V  V49  1  0.25445675  0.25371314  0.00545597  1
  V  V50  1  0.37799943  0.49886334  0.87146073  1
  V  V51  1  0.86357105  0.36906226  0.00153448  1
  V  V52  1  0.49357097  0.38648435  0.38775237  1
  V  V53  1  -0.01160516  0.63996456  0.13028620  1
  V  V54  1  0.61815478  0.24582399  0.37445545  1
  V  V55  1  0.38013560  0.74019101  0.62497432  1
  V  V56  1  -0.00266900  0.50045103  -0.01120516  1
  V  V57  1  0.25059506  0.75398463  0.49723734  1
  V  V58  1  0.37811121  -0.00427145  0.88429557  1
  V  V59  1  0.88277229  0.13877506  0.23300315  1
  V  V60  1  0.00910183  0.87000617  0.87037522  1
  V  V61  1  0.25650218  0.62991780  0.86583865  1
  V  V62  1  0.62997472  0.23115482  0.87985181  1
  V  V63  1  0.11900103  0.37486033  0.74753825  1
  V  V64  1  0.27045514  0.50350646  0.25061408  1
  V  V65  1  0.37479479  0.73726429  0.11893598  1
  V  V66  1  0.74566126  0.00208899  0.24590785  1
  V  V67  1  0.37840905  0.12376663  0.74207837  1
  V  V68  1  0.25551983  0.38057230  0.12879000  1
  V  V69  1  0.75508645  0.75409660  0.50837703  1
  V  V70  1  -0.00560757  0.85368118  0.36590524  1
  V  V71  1  0.49804412  0.73826302  0.74413931  1
  V  V72  1  0.76251754  0.61347200  0.37666121  1
  Zn  Zn73  1  0.06583661  0.79508577  0.71616535  1
  Zn  Zn74  1  0.61680455  0.52163483  0.11395265  1
  Zn  Zn75  1  0.36583448  0.00390954  0.38749758  1
  Zn  Zn76  1  0.74771796  0.12164417  0.37639469  1
  Zn  Zn77  1  0.25289997  0.76338971  -0.01558273  1
  Zn  Zn78  1  0.12167878  0.07694843  0.52088182  1
  Zn  Zn79  1  -0.00966113  0.38874998  0.86351415  1
  Zn  Zn80  1  0.62550654  0.87434413  0.74135267  1
  Zn  Zn81  1  0.23438988  0.14404415  0.40059816  1
  Zn  Zn82  1  0.18985465  0.18932200  0.18780876  1
  Zn  Zn83  1  0.18070604  0.19062305  0.68652351  1
  Zn  Zn84  1  0.19231666  0.68358113  0.18318535  1
  Zn  Zn85  1  0.18978064  0.68463941  0.68243949  1
  Zn  Zn86  1  0.68309990  0.18466721  0.19250487  1
  Zn  Zn87  1  0.69325588  0.18156559  0.68765960  1
  Zn  Zn88  1  0.69796034  0.68881634  0.19686310  1
  Zn  Zn89  1  0.68086700  0.68133824  0.69295615  1
  Zn  Zn90  1  0.30805847  0.31655619  0.31551567  1
  Zn  Zn91  1  0.31253467  0.31337107  0.80974599  1
  Zn  Zn92  1  0.30970131  0.81539408  0.30976801  1
  Zn  Zn93  1  0.31692992  0.81565881  0.80245349  1
  Zn  Zn94  1  0.80604986  0.31302875  0.30897459  1
  Zn  Zn95  1  0.81322770  0.31504257  0.82024190  1
  Zn  Zn96  1  0.79561540  0.82369137  0.32981250  1
  Zn  Zn97  1  0.81270634  0.82099127  0.81848438  1
  Zn  Zn98  1  0.20209495  0.44593365  0.43539184  1
  Zn  Zn99  1  0.18649733  0.44209909  0.93683749  1
  Zn  Zn100  1  0.15224838  0.96928953  0.41247855  1
  Zn  Zn101  1  0.18364795  0.94206683  0.93585122  1
  Zn  Zn102  1  0.68430030  0.43141651  0.43912595  1
  Zn  Zn103  1  0.69367403  0.44011253  0.93578880  1
  Zn  Zn104  1  0.69093242  0.93744023  0.43980074  1
  Zn  Zn105  1  0.67759551  0.93177085  0.93767662  1
  Zn  Zn106  1  0.31225434  0.06525921  0.06587422  1
  Zn  Zn107  1  0.31004721  0.06432332  0.56243777  1
  Zn  Zn108  1  0.43275829  0.55977731  0.06565723  1
  Zn  Zn109  1  0.30821841  0.57402395  0.56602168  1
  Zn  Zn110  1  0.80518164  0.05913870  0.06543693  1
  Zn  Zn111  1  0.83555737  0.05826065  0.56625651  1
  Zn  Zn112  1  0.81088622  0.56354816  0.06046486  1
  Zn  Zn113  1  0.80847108  0.55959718  0.55744857  1
  Zn  Zn114  1  0.44605335  0.43010424  0.19324415  1
  Zn  Zn115  1  0.43831372  0.43241674  0.69052173  1
  Zn  Zn116  1  0.44095194  0.93470878  0.18899872  1
  Zn  Zn117  1  0.43566978  0.93153144  0.68660294  1
  Zn  Zn118  1  0.93593589  0.43803963  0.17650697  1
  Zn  Zn119  1  0.93875800  0.43632681  0.67682920  1
  Zn  Zn120  1  0.93507019  0.93663966  0.19012990  1
  Zn  Zn121  1  0.92818944  0.93583896  0.69816444  1
  Zn  Zn122  1  0.06085729  0.07773584  0.30745209  1
  Zn  Zn123  1  0.05479057  0.06446243  0.81660733  1
  Zn  Zn124  1  0.05877238  0.57471411  0.31033244  1
  Zn  Zn125  1  0.07850145  0.59518019  0.79984261  1
  Zn  Zn126  1  0.55760139  0.06437783  0.31420555  1
  Zn  Zn127  1  0.56283340  0.06169971  0.80923151  1
  Zn  Zn128  1  0.56318144  0.55789562  0.31284539  1
  Zn  Zn129  1  0.56558545  0.56105905  0.93355714  1
  Zn  Zn130  1  0.42822632  0.19387951  0.43273102  1
  Zn  Zn131  1  0.43903054  0.18938512  0.93424800  1
  Zn  Zn132  1  0.43612032  0.68920940  0.44145482  1
  Zn  Zn133  1  0.43012644  0.69751464  0.93154956  1
  Zn  Zn134  1  0.93031897  0.18250766  0.44475939  1
  Zn  Zn135  1  0.92723967  0.18624474  0.93410819  1
  Zn  Zn136  1  0.93514402  0.69014602  0.44613393  1
  Zn  Zn137  1  0.95456956  0.67504100  0.93121417  1
  Zn  Zn138  1  0.06885149  0.32237145  0.05800109  1
  Zn  Zn139  1  0.09793882  0.33926030  0.52332581  1
  Zn  Zn140  1  0.06616958  0.81213467  0.05653325  1
  Zn  Zn141  1  0.08680239  0.85583606  0.53808826  1
  Zn  Zn142  1  0.56523347  0.31339776  0.06116816  1
  Zn  Zn143  1  0.56780203  0.31471031  0.56049038  1
  Zn  Zn144  1  0.56629470  0.69774612  0.06123308  1
  Zn  Zn145  1  0.56858894  0.81877697  0.56605657  1
  O  O146  1  0.13221743  0.11745125  0.11609547  1
  O  O147  1  0.09466740  0.13773207  0.62249895  1
  O  O148  1  0.12820331  0.61452845  0.11577953  1
  O  O149  1  0.11201768  0.61732577  0.61288153  1
  O  O150  1  0.60684199  0.11250978  0.13587005  1
  O  O151  1  0.62699408  0.10822224  0.62532495  1
  O  O152  1  0.63413093  0.63670970  0.12403712  1
  O  O153  1  0.62923398  0.61175774  0.61461350  1
  O  O154  1  0.39393046  0.36006188  0.37082600  1
  O  O155  1  0.37882723  0.37989256  0.88114661  1
  O  O156  1  0.38772667  0.87808704  0.37116780  1
  O  O157  1  0.37939666  0.88910575  0.86863278  1
  O  O158  1  0.87447919  0.37351277  0.38578598  1
  O  O159  1  0.88072577  0.37452386  0.89104915  1
  O  O160  1  0.88744135  0.88195124  0.35261496  1
  O  O161  1  0.88679667  0.89487494  0.86977640  1
  O  O162  1  0.25235153  -0.01631661  0.35621733  1
  O  O163  1  0.25670255  0.00724929  0.86606675  1
  O  O164  1  0.24540487  0.51486604  0.35965191  1
  O  O165  1  0.25875131  0.50493088  0.86686831  1
  O  O166  1  0.75196386  -0.00039072  0.36043275  1
  O  O167  1  0.75944139  -0.00513343  0.88656984  1
  O  O168  1  0.74815994  0.51081676  0.37788613  1
  O  O169  1  0.74699881  0.51172920  0.85970202  1
  O  O170  1  0.24179553  0.50002263  0.14186267  1
  O  O171  1  0.23910466  0.51243540  0.63363312  1
  O  O172  1  0.24254459  0.98947140  0.13025239  1
  O  O173  1  0.25110748  0.98850599  0.63768302  1
  O  O174  1  0.74586215  0.50820336  0.13985657  1
  O  O175  1  0.74990433  0.49234329  0.63152694  1
  O  O176  1  0.72951327  1.00490658  0.13713321  1
  O  O177  1  0.74344929  1.00171028  0.62938645  1
  O  O178  1  0.00822027  0.34062948  0.21623593  1
  O  O179  1  0.01298830  0.38554051  0.74947937  1
  O  O180  1  0.01064136  0.87142366  0.25071763  1
  O  O181  1  0.00333357  0.87908762  0.76163759  1
  O  O182  1  0.51603017  0.37346745  0.26474508  1
  O  O183  1  0.49328273  0.35710311  0.76683650  1
  O  O184  1  0.50975455  0.87057813  0.26338119  1
  O  O185  1  0.50029655  0.86964027  0.75697509  1
  O  O186  1  0.48032811  0.12039682  0.25002243  1
  O  O187  1  0.48561241  0.13533402  0.75748315  1
  O  O188  1  0.50343246  0.64437690  0.26146058  1
  O  O189  1  0.50127923  0.64234289  0.74863196  1
  O  O190  1  0.98456029  0.12735629  0.24609848  1
  O  O191  1  0.98348165  0.11578400  0.74857764  1
  O  O192  1  1.00330779  0.62811437  0.23003517  1
  O  O193  1  0.98674958  0.60033612  0.73179154  1
  O  O194  1  0.36111603  0.25918040  -0.00860221  1
  O  O195  1  0.37621918  0.24134238  0.52027305  1
  O  O196  1  0.36950420  0.75336649  0.01478016  1
  O  O197  1  0.36467187  0.74972688  0.51167547  1
  O  O198  1  0.85837270  0.25589442  -0.00573340  1
  O  O199  1  0.86647971  0.26262387  0.49844036  1
  O  O200  1  0.80293303  0.81922377  -0.01154812  1
  O  O201  1  0.86781688  0.75745116  0.51096599  1
  O  O202  1  0.08003854  0.24757394  0.43534113  1
  O  O203  1  0.13261776  0.24674544  0.99452114  1
  O  O204  1  0.13761587  0.74480452  0.50611560  1
  O  O205  1  0.13674427  0.73275268  1.00595906  1
  O  O206  1  0.64028504  0.25285698  0.48934011  1
  O  O207  1  0.63417877  0.25372602  0.98815967  1
  O  O208  1  0.63399759  0.74407888  0.49929855  1
  O  O209  1  0.62009609  0.75722656  0.97669394  1
  O  O210  1  0.50480485  0.23541606  0.12529031  1
  O  O211  1  0.50467308  0.25648980  0.64217344  1
  O  O212  1  0.48782372  0.75198483  0.13660083  1
  O  O213  1  0.48912481  0.76005053  0.63060200  1
  O  O214  1  1.02060523  0.28483092  0.16500040  1
  O  O215  1  1.02636290  0.17753044  0.59265578  1
  O  O216  1  1.00196299  0.73922032  0.11415894  1
  O  O217  1  0.98832640  0.73182815  0.63554519  1
  O  O218  1  0.01981659  0.24545674  0.38846735  1
  O  O219  1  0.01289787  0.25065249  0.88408699  1
  O  O220  1  -0.01033020  0.75461528  0.36442759  1
  O  O221  1  -0.01225582  0.77162056  0.88736181  1
  O  O222  1  0.51549828  0.25202501  0.38029464  1
  O  O223  1  0.51066773  0.25471104  0.87025434  1
  O  O224  1  0.50167513  0.76001518  0.36968785  1
  O  O225  1  0.50165559  0.75922450  0.86055215  1
  O  O226  1  0.23040020  0.12050616  0.51116382  1
  O  O227  1  0.24278396  0.13302594  0.99405083  1
  O  O228  1  0.24259151  0.63129981  0.48827533  1
  O  O229  1  0.24732396  0.62294613  0.99254552  1
  O  O230  1  0.76511406  0.13928342  0.50239040  1
  O  O231  1  0.75094268  0.13621613  0.99888515  1
  O  O232  1  0.74190683  0.63237025  0.49115987  1
  O  O233  1  0.74902275  0.61724978  0.97961435  1
  O  O234  1  0.25706372  0.37219469  0.00499193  1
  O  O235  1  0.33444550  0.43497435  0.48880275  1
  O  O236  1  0.23914843  0.87646731  0.01519214  1
  O  O237  1  0.24567850  0.86579061  0.51754609  1
  O  O238  1  0.76013177  0.37029543  -0.00214694  1
  O  O239  1  0.76338203  0.37046658  0.50335195  1
  O  O240  1  0.75002610  0.86290843  0.01685574  1
  O  O241  1  0.76680814  0.86487763  0.49527747  1
  O  O242  1  0.12160410  0.50364889  0.23825410  1
  O  O243  1  0.13285191  0.49737246  0.74106807  1
  O  O244  1  0.13444667  0.99732399  0.24026312  1
  O  O245  1  0.13797887  1.01166798  0.75333225  1
  O  O246  1  0.63271311  0.49037450  0.24965731  1
  O  O247  1  0.64356976  0.49640336  0.73397677  1
  O  O248  1  0.62502225  0.99007515  0.25216094  1
  O  O249  1  0.63347997  1.00399048  0.74036877  1
  O  O250  1  0.36237624  -0.00199150  0.25037250  1
  O  O251  1  0.36753064  0.01348850  0.75508046  1
  O  O252  1  0.36834688  0.50544888  0.24818692  1
  O  O253  1  0.36674857  0.49126444  0.76009610  1
  O  O254  1  0.86480032  0.00603838  0.25226696  1
  O  O255  1  0.85994194  0.00730761  0.75981586  1
  O  O256  1  0.86264758  0.48920910  0.24612616  1
  O  O257  1  0.86279875  0.49326769  0.74515685  1
  O  O258  1  0.19282881  0.34316619  0.46627832  1
  O  O259  1  0.12211309  0.37124373  0.86729535  1
  O  O260  1  0.10728339  0.87322132  0.35897142  1
  O  O261  1  0.11115779  0.87661964  0.87831656  1
  O  O262  1  0.61631801  0.36677828  0.37258027  1
  O  O263  1  0.61367218  0.36949297  0.87485060  1
  O  O264  1  0.61709568  0.86266357  0.37663362  1
  O  O265  1  0.61333007  0.86897057  0.86686930  1
  O  O266  1  0.38333616  0.11901414  0.13757242  1
  O  O267  1  0.37041278  0.13263080  0.64016479  1
  O  O268  1  0.36689506  0.63897483  0.12566501  1
  O  O269  1  0.37967852  0.63943342  0.62390341  1
  O  O270  1  0.87175928  0.12234624  0.13418374  1
  O  O271  1  0.86728441  0.13463727  0.64264051  1
  O  O272  1  0.88941642  0.62548691  0.11485895  1
  O  O273  1  0.88496833  0.62845943  0.61398987  1
  O  O274  1  0.24098742  0.26476477  0.11483736  1
  O  O275  1  0.25577095  0.25208208  0.62856994  1
  O  O276  1  0.26167576  0.76256027  0.13097372  1
  O  O277  1  0.26163963  0.74949699  0.61991648  1
  O  O278  1  0.73604165  0.24655135  0.11033012  1
  O  O279  1  0.73914087  0.26304507  0.61380948  1
  O  O280  1  0.78332720  0.75353348  0.14282817  1
  O  O281  1  0.75960031  0.73350610  0.61823375  1
  O  O282  1  0.21597623  0.24448566  0.33950249  1
  O  O283  1  0.24198987  0.24413326  0.88206008  1
  O  O284  1  0.25564512  0.74140447  0.38156500  1
  O  O285  1  0.26637406  0.73502544  0.87080345  1
  O  O286  1  0.74541327  0.24858800  0.38958483  1
  O  O287  1  0.73146762  0.25212206  0.87624708  1
  O  O288  1  0.74174748  0.74078184  0.38362258  1
  O  O289  1  0.73718498  0.73976972  0.86196463  1
  O  O290  1  0.01097862  0.11883002  -0.00496767  1
  O  O291  1  0.00323451  0.13155919  0.52681075  1
  O  O292  1  0.01375161  0.61599468  0.00793515  1
  O  O293  1  0.00440114  0.61624803  0.50229987  1
  O  O294  1  0.48759022  0.12524204  0.01490395  1
  O  O295  1  0.50030757  0.11548705  0.49082042  1
  O  O296  1  0.49547732  0.62974688  -0.00410577  1
  O  O297  1  0.51566864  0.63004542  0.49783390  1
  O  O298  1  0.50411142  0.37277715  0.48802470  1
  O  O299  1  0.48956218  0.36131139  0.98526415  1
  O  O300  1  0.49968067  0.87413983  0.48819319  1
  O  O301  1  0.49588285  0.86992426  0.97549855  1
  O  O302  1  0.99102121  0.38699815  0.50253132  1
  O  O303  1  1.00339303  0.39083742  0.99367509  1
  O  O304  1  0.98319626  0.86377232  0.47780991  1
  O  O305  1  1.00471383  0.88852502  0.99446899  1
  O  O306  1  0.49955049  0.48765437  0.37563425  1
  O  O307  1  0.49424480  0.48322152  0.87012215  1
  O  O308  1  0.50088946  0.98969853  0.38754109  1
  O  O309  1  0.48744230  0.99360616  0.86896073  1
  O  O310  1  1.00655134  0.50389609  0.38648114  1
  O  O311  1  1.01056413  0.51289208  0.88866709  1
  O  O312  1  0.98634146  0.99196422  0.36565604  1
  O  O313  1  0.99563284  0.99183294  0.88618277  1
  O  O314  1  0.00954030  -0.00707199  0.11870876  1
  O  O315  1  -0.08196701  -0.02923478  0.58964045  1
  O  O316  1  0.01328523  0.50601872  0.11727553  1
  O  O317  1  0.00670300  0.50782064  0.60983909  1
  O  O318  1  0.50712845  0.00376759  0.12721106  1
  O  O319  1  0.50572104  -0.00076706  0.61206465  1
  O  O320  1  0.50302816  0.50394396  0.13166953  1
  O  O321  1  0.51880026  0.48754927  0.63484339  1
  O  O322  1  0.25638143  0.39296042  0.24382450  1
  O  O323  1  0.23803004  0.38618432  0.75482667  1
  O  O324  1  0.23852132  0.88125842  0.23954994  1
  O  O325  1  0.24617686  0.89045610  0.75101731  1
  O  O326  1  0.73881838  0.39196392  0.26107429  1
  O  O327  1  0.75508400  0.37835609  0.73613411  1
  O  O328  1  0.73066714  0.88221391  0.25641654  1
  O  O329  1  0.74718337  0.89764548  0.75895300  1
  O  O330  1  0.25889800  0.10781315  0.24084008  1
  O  O331  1  0.25546177  0.11999868  0.75718626  1
  O  O332  1  0.24949921  0.62060693  0.26093689  1
  O  O333  1  0.25059333  0.61256602  0.76197787  1
  O  O334  1  0.75793878  0.11629775  0.25286381  1
  O  O335  1  0.75582235  0.10905832  0.75411625  1
  O  O336  1  0.74732152  0.61189707  0.26837486  1
  O  O337  1  0.75397991  0.61362205  0.75263196  1
  O  O338  1  0.35926132  0.12488077  0.36394823  1
  O  O339  1  0.36533203  0.11899435  0.86802667  1
  O  O340  1  0.36204467  0.62413850  0.38069651  1
  O  O341  1  0.36471255  0.61198720  0.88045926  1
  O  O342  1  0.87596964  0.11292655  0.36752089  1
  O  O343  1  0.87877623  0.10623428  0.86830680  1
  O  O344  1  0.86127055  0.62784905  0.38240166  1
  O  O345  1  0.86330285  0.63719994  0.87676969  1
  O  O346  1  0.14055198  0.39371722  0.11753501  1
  O  O347  1  0.11864274  0.38892904  0.62971275  1
  O  O348  1  0.13056396  0.88160861  0.13437139  1
  O  O349  1  0.14294004  0.84958856  0.64170009  1
  O  O350  1  0.62020035  0.37014916  0.14370047  1
  O  O351  1  0.64447524  0.38943488  0.61087995  1
  O  O352  1  0.61658742  0.88616565  0.14155431  1
  O  O353  1  0.62571207  0.89543505  0.62650701  1
  O  O354  1  0.15486697  0.24214919  0.28406491  1
  O  O355  1  0.12945489  0.26279857  0.76038517  1
  O  O356  1  0.13020380  0.76106706  0.24412349  1
  O  O357  1  0.11286229  0.70466408  0.76081426  1
  O  O358  1  0.64109743  0.26526647  0.26728920  1
  O  O359  1  0.61349440  0.23844588  0.76044806  1
  O  O360  1  0.61666707  0.76156666  0.25846332  1
  O  O361  1  0.61326088  0.75391909  0.75149391  1
  O  O362  1  0.36312368  0.23629262  0.24737221  1
  O  O363  1  0.38054986  0.23995300  0.74641009  1
  O  O364  1  0.38614379  0.75801048  0.24139290  1
  O  O365  1  0.38439441  0.74976497  0.73729303  1
  O  O366  1  0.86569356  0.23715153  0.25121346  1
  O  O367  1  0.87156136  0.23383534  0.76741790  1
  O  O368  1  0.83996860  0.79516329  0.18188002  1
  O  O369  1  0.86205473  0.74213679  0.74455770  1
  O  O370  1  0.37786212  0.49271012  0.51044008  1
  O  O371  1  0.37693895  0.48747038  0.98664051  1
  O  O372  1  0.38887369  1.00312755  0.50305410  1
  O  O373  1  0.36588980  1.00457273  0.98237857  1
  O  O374  1  0.88623816  0.49184020  0.49847132  1
  O  O375  1  0.89123719  0.49364600  1.00218048  1
  O  O376  1  0.85685928  0.98895329  0.46701639  1
  O  O377  1  0.88213794  1.00617073  0.99399294  1
  O  O378  1  0.11872329  0.00993554  0.00831326  1
  O  O379  1  0.11393160  -0.03606171  0.51676233  1
  O  O380  1  0.12214220  0.50945320  0.00926517  1
  O  O381  1  0.11823067  0.50851285  0.50359386  1
  O  O382  1  0.62511092  -0.00541837  0.01587383  1
  O  O383  1  0.61599124  -0.00135857  0.50519979  1
  O  O384  1  0.62132462  0.49184335  0.00222991  1
  O  O385  1  0.62976064  0.51242640  0.50539695  1
  O  O386  1  0.36479200  0.38395965  0.11508784  1
  O  O387  1  0.37462954  0.35885917  0.63260923  1
  O  O388  1  0.36091880  0.87626679  0.12720773  1
  O  O389  1  0.35360492  0.86418722  0.63465140  1
  O  O390  1  0.88451562  0.37135369  0.10079744  1
  O  O391  1  0.86220778  0.37642876  0.61293792  1
  O  O392  1  0.86908584  0.85455203  0.13562228  1
  O  O393  1  0.87790247  0.84373446  0.63183912  1
  O  O394  1  0.13020235  0.08608103  0.39252770  1
  O  O395  1  0.13263475  0.13227372  0.88294547  1
  O  O396  1  0.13105166  0.62731982  0.38542219  1
  O  O397  1  0.14634485  0.61540360  0.89004804  1
  O  O398  1  0.62789677  0.14019679  0.36619621  1
  O  O399  1  0.61856538  0.13197256  0.88109062  1
  O  O400  1  0.62887702  0.63542081  0.38588691  1
  O  O401  1  0.62791810  0.63793356  0.86971053  1
