# generated using pymatgen
data_V73Zn73O256
_symmetry_space_group_name_H-M   'P 1'
_cell_length_a   16.88636048
_cell_length_b   16.86731293
_cell_length_c   16.86739692
_cell_angle_alpha   89.85832805
_cell_angle_beta   90.11569278
_cell_angle_gamma   89.92398069
_symmetry_Int_Tables_number   1
_chemical_formula_structural   V73Zn73O256
_chemical_formula_sum   'V73 Zn73 O256'
_cell_volume   4804.27020106
_cell_formula_units_Z   1
loop_
 _symmetry_equiv_pos_site_id
 _symmetry_equiv_pos_as_xyz
  1  'x, y, z'
loop_
 _atom_site_type_symbol
 _atom_site_label
 _atom_site_symmetry_multiplicity
 _atom_site_fract_x
 _atom_site_fract_y
 _atom_site_fract_z
 _atom_site_occupancy
  V  V0  1  0.49814850  0.25518572  0.76885841  1
  V  V1  1  0.51688566  0.11863700  0.63905799  1
  V  V2  1  0.89969394  0.73806013  0.13379619  1
  V  V3  1  -0.02700992  0.25356575  0.24674621  1
  V  V4  1  0.23583153  0.37106943  0.12580157  1
  V  V5  1  0.64127418  0.00135761  0.13395677  1
  V  V6  1  0.74255513  0.14277680  0.35855410  1
  V  V7  1  0.24147280  0.49613827  0.25369626  1
  V  V8  1  0.80055493  0.45478096  0.76618673  1
  V  V9  1  0.87010350  0.86678779  0.00328236  1
  V  V10  1  0.02000290  0.22821881  0.75648267  1
  V  V11  1  0.74546515  0.72564134  0.50381971  1
  V  V12  1  -0.00203808  0.00114629  0.00293777  1
  V  V13  1  0.12579848  0.24959731  0.35644459  1
  V  V14  1  0.13265782  0.63265453  0.50517937  1
  V  V15  1  0.62789029  0.49550961  0.62901780  1
  V  V16  1  0.16927119  0.47850306  0.63270817  1
  V  V17  1  0.24631403  0.12148922  0.37736321  1
  V  V18  1  0.74734684  0.35692217  0.61812791  1
  V  V19  1  0.12114190  0.51811576  0.12229011  1
  V  V20  1  0.50406290  0.87514701  0.37451986  1
  V  V21  1  0.00991007  0.11150312  0.61866619  1
  V  V22  1  0.36346708  0.50311518  0.37923859  1
  V  V23  1  0.74581542  0.85348030  0.12902070  1
  V  V24  1  0.62148903  0.36795999  0.76663158  1
  V  V25  1  0.63155802  0.73036973  0.37268868  1
  V  V26  1  0.49899639  0.60640154  0.11518327  1
  V  V27  1  0.51157057  0.00472424  0.50138027  1
  V  V28  1  0.36872205  0.11244429  0.76135344  1
  V  V29  1  0.75340314  0.12126222  0.86891913  1
  V  V30  1  0.50690836  0.62396237  0.63083214  1
  V  V31  1  0.36789126  0.37416298  0.50350938  1
  V  V32  1  0.51627294  0.76563990  0.75260115  1
  V  V33  1  0.85838914  -0.00197316  0.35736289  1
  V  V34  1  0.11750673  0.88114296  0.26533837  1
  V  V35  1  0.00347459  0.77119948  0.75389079  1
  V  V36  1  0.50978252  0.25821871  0.25192744  1
  V  V37  1  0.86668876  0.22771079  0.63629293  1
  V  V38  1  0.37023076  0.12241692  0.24809282  1
  V  V39  1  0.25429472  0.64350394  0.84768586  1
  V  V40  1  0.25885560  0.74880819  0.48493923  1
  V  V41  1  0.37428548  0.24981010  0.62762620  1
  V  V42  1  0.36481900  0.63107561  0.25505975  1
  V  V43  1  0.22162717  0.24501554  -0.00239517  1
  V  V44  1  0.36887244  0.00094411  0.37242068  1
  V  V45  1  0.86292754  -0.00532171  0.87290016  1
  V  V46  1  0.89576620  0.36870231  0.51440074  1
  V  V47  1  0.37972343  0.74678113  0.62798349  1
  V  V48  1  -0.02529660  0.12432536  0.13320901  1
  V  V49  1  0.01120482  0.48872698  -0.02616134  1
  V  V50  1  0.68370652  0.66038621  -0.06142236  1
  V  V51  1  0.50335673  0.11544283  0.12491178  1
  V  V52  1  0.63153767  0.12561170  -0.00183807  1
  V  V53  1  0.12988116  0.64778769  -0.00782711  1
  V  V54  1  0.37716805  0.87534401  0.50234836  1
  V  V55  1  0.50510239  0.50170467  0.49882302  1
  V  V56  1  0.85637120  0.88093164  0.49680972  1
  V  V57  1  0.86786744  0.75480703  0.62404021  1
  V  V58  1  0.37256055  0.24918997  0.11590317  1
  V  V59  1  0.25149855  0.86720730  0.12734473  1
  V  V60  1  0.87680221  0.61255666  0.26685668  1
  V  V61  1  0.45802758  0.94004168  -0.05954270  1
  V  V62  1  0.49892017  0.74774206  0.24319545  1
  V  V63  1  0.23907978  0.11363900  0.88323853  1
  V  V64  1  0.63193621  0.87871128  0.25184105  1
  V  V65  1  0.87905512  0.62307633  0.76005003  1
  V  V66  1  0.76561826  0.26194126  0.00664401  1
  V  V67  1  0.00433744  0.62417783  0.62291415  1
  V  V68  1  0.13174394  0.00922736  0.13577237  1
  V  V69  1  -0.00239620  -0.00284711  0.48960001  1
  V  V70  1  0.10567721  0.75251418  0.37615753  1
  V  V71  1  0.23808530  0.24728320  0.50687428  1
  V  V72  1  0.62292826  0.16342682  0.48562484  1
  Zn  Zn73  1  0.12739092  0.77854341  0.86949183  1
  Zn  Zn74  1  0.50143572  0.37439674  0.37177615  1
  Zn  Zn75  1  0.36472210  0.75148630  0.09643805  1
  Zn  Zn76  1  -0.00790337  0.50610669  0.49765992  1
  Zn  Zn77  1  0.20214325  0.93768818  0.67873168  1
  Zn  Zn78  1  0.39213826  0.39341691  -0.00527030  1
  Zn  Zn79  1  0.74344925  0.50031474  0.26957173  1
  Zn  Zn80  1  0.35731143  0.50925888  0.87408523  1
  Zn  Zn81  1  0.00553937  0.38465096  0.36302391  1
  Zn  Zn82  1  0.18949183  0.18151641  0.18569567  1
  Zn  Zn83  1  0.19473656  0.14291021  0.67484683  1
  Zn  Zn84  1  0.18185225  0.69144092  0.19503288  1
  Zn  Zn85  1  0.21204542  0.75918648  0.70228689  1
  Zn  Zn86  1  0.69528423  0.19965214  0.18304749  1
  Zn  Zn87  1  0.67671128  0.17180221  0.69260496  1
  Zn  Zn88  1  0.70942683  0.63753524  0.13519157  1
  Zn  Zn89  1  0.67537521  0.66356362  0.73009953  1
  Zn  Zn90  1  0.31394377  0.31205467  0.31259451  1
  Zn  Zn91  1  0.31746599  0.30035248  0.82990535  1
  Zn  Zn92  1  0.30832415  0.82140156  0.30618159  1
  Zn  Zn93  1  0.30963641  0.83841767  0.83334466  1
  Zn  Zn94  1  0.81028687  0.33648280  0.33534499  1
  Zn  Zn95  1  0.81539689  0.28840297  0.81407921  1
  Zn  Zn96  1  0.81483120  0.80083439  0.31285246  1
  Zn  Zn97  1  0.81391337  0.79076479  0.83013932  1
  Zn  Zn98  1  0.16385719  0.44581905  0.43611668  1
  Zn  Zn99  1  0.22622423  0.46013539  0.95194434  1
  Zn  Zn100  1  0.17072286  0.92005167  0.48507155  1
  Zn  Zn101  1  0.18928772  0.94715139  0.94950540  1
  Zn  Zn102  1  0.68999366  0.43437369  0.43794735  1
  Zn  Zn103  1  0.66719830  0.44515679  0.97790055  1
  Zn  Zn104  1  0.68921638  0.94184384  0.43432382  1
  Zn  Zn105  1  0.66553440  0.92327871  0.95381683  1
  Zn  Zn106  1  0.31823916  0.05398137  0.05195003  1
  Zn  Zn107  1  0.31816414  0.06151247  0.56566306  1
  Zn  Zn108  1  0.31152635  0.57404071  0.06790814  1
  Zn  Zn109  1  0.31422650  0.56823422  0.56731413  1
  Zn  Zn110  1  0.80647547  0.05624340  0.06200392  1
  Zn  Zn111  1  0.82737373  0.09576924  0.51617162  1
  Zn  Zn112  1  0.83580480  0.56142309  0.03837036  1
  Zn  Zn113  1  0.81635118  0.55108781  0.58007327  1
  Zn  Zn114  1  0.42038480  0.43323717  0.18737693  1
  Zn  Zn115  1  0.43655181  0.43581850  0.68851907  1
  Zn  Zn116  1  0.43899901  0.93678455  0.18424309  1
  Zn  Zn117  1  0.43658977  0.93738697  0.68910213  1
  Zn  Zn118  1  0.95810448  0.45623111  0.20007943  1
  Zn  Zn119  1  0.97360868  0.42317928  0.79437385  1
  Zn  Zn120  1  0.93700025  0.92963494  0.18729682  1
  Zn  Zn121  1  0.92358797  0.94401774  0.67988136  1
  Zn  Zn122  1  0.05225336  0.06672685  0.31590753  1
  Zn  Zn123  1  0.05689252  0.04689139  0.81241164  1
  Zn  Zn124  1  0.06075158  0.56830093  0.31879848  1
  Zn  Zn125  1  0.08377396  0.57455281  0.80309883  1
  Zn  Zn126  1  0.55984291  0.06578332  0.31184225  1
  Zn  Zn127  1  0.56450026  0.06350999  0.81072923  1
  Zn  Zn128  1  0.55026975  0.55701558  0.30573072  1
  Zn  Zn129  1  0.57844887  0.54427286  0.84191628  1
  Zn  Zn130  1  0.43687897  0.18902003  0.43626220  1
  Zn  Zn131  1  0.44063673  0.17380043  0.94099416  1
  Zn  Zn132  1  0.44259894  0.68281165  0.43631075  1
  Zn  Zn133  1  0.43385838  0.69528805  0.92976730  1
  Zn  Zn134  1  0.93447555  0.19450716  0.43493029  1
  Zn  Zn135  1  0.93707339  0.18264702  0.94022902  1
  Zn  Zn136  1  0.93231309  0.68691312  0.43841843  1
  Zn  Zn137  1  0.95344567  0.68797671  0.93904687  1
  Zn  Zn138  1  0.05072457  0.31168111  0.06700903  1
  Zn  Zn139  1  0.05197048  0.32685682  0.62426147  1
  Zn  Zn140  1  0.06376840  0.82346044  0.07149379  1
  Zn  Zn141  1  0.05388152  0.82436686  0.57081867  1
  Zn  Zn142  1  0.56243732  0.29468082  0.05982233  1
  Zn  Zn143  1  0.55393742  0.31285146  0.56816077  1
  Zn  Zn144  1  0.53540323  0.78775685  0.02415312  1
  Zn  Zn145  1  0.56726345  0.80894301  0.55660239  1
  O  O146  1  0.11432479  0.11116238  0.13545074  1
  O  O147  1  0.10537213  0.11806037  0.60044307  1
  O  O148  1  0.12266770  0.62243820  0.11817827  1
  O  O149  1  0.11024041  0.65024107  0.61017216  1
  O  O150  1  0.62268664  0.11909694  0.12567736  1
  O  O151  1  0.61543514  0.15785138  0.59314462  1
  O  O152  1  0.59849880  0.61060027  0.13791557  1
  O  O153  1  0.62708604  0.60158943  0.63488543  1
  O  O154  1  0.37429247  0.38437931  0.38405628  1
  O  O155  1  0.35135357  0.38931451  0.88429588  1
  O  O156  1  0.38786896  0.88243561  0.37681404  1
  O  O157  1  0.39769148  0.88542756  0.87982541  1
  O  O158  1  0.90369157  0.35171602  0.40923131  1
  O  O159  1  0.86519696  0.39089877  0.82279784  1
  O  O160  1  0.86184910  0.88592403  0.38144030  1
  O  O161  1  0.86578457  0.87740826  0.89652454  1
  O  O162  1  0.26518760  0.00798852  0.38519482  1
  O  O163  1  0.26453139  0.01586329  0.89802158  1
  O  O164  1  0.25102427  0.49241462  0.36835576  1
  O  O165  1  0.23709337  0.53564598  0.86074700  1
  O  O166  1  0.75369646  0.01025283  0.37060971  1
  O  O167  1  0.75805455  0.00376806  0.89004484  1
  O  O168  1  0.76956725  0.43799100  0.36059550  1
  O  O169  1  0.75304369  0.50136281  0.83415634  1
  O  O170  1  0.23643077  0.49283613  0.13230318  1
  O  O171  1  0.27011668  0.49328696  0.64068068  1
  O  O172  1  0.23417874  1.00261930  0.12406342  1
  O  O173  1  0.23693178  1.03721727  0.63831451  1
  O  O174  1  0.75586594  0.48282241  0.08990140  1
  O  O175  1  0.75006484  0.47524485  0.64580653  1
  O  O176  1  0.74469272  0.98889022  0.13499371  1
  O  O177  1  0.69151504  0.93406583  0.64028491  1
  O  O178  1  -0.00229608  0.35832551  0.24716786  1
  O  O179  1  0.01534831  0.33559411  0.73745424  1
  O  O180  1  0.01752376  0.87650081  0.25132653  1
  O  O181  1  -0.01195051  0.86893822  0.73946708  1
  O  O182  1  0.48588020  0.35985188  0.24467146  1
  O  O183  1  0.50814135  0.36005666  0.74469596  1
  O  O184  1  0.50647205  0.86769307  0.25820460  1
  O  O185  1  0.50563429  0.86719134  0.74192740  1
  O  O186  1  0.49186543  0.13591163  0.24343301  1
  O  O187  1  0.48047380  0.14200921  0.75454075  1
  O  O188  1  0.48381702  0.62936158  0.24564877  1
  O  O189  1  0.50631054  0.63950955  0.72969018  1
  O  O190  1  0.99302551  0.13747924  0.24149771  1
  O  O191  1  1.00318009  0.10820659  0.72949211  1
  O  O192  1  0.98056984  0.61481629  0.25359062  1
  O  O193  1  0.99663068  0.64059675  0.73598002  1
  O  O194  1  0.37924987  0.24417386  0.01290385  1
  O  O195  1  0.37568929  0.25661985  0.50853379  1
  O  O196  1  0.42083401  0.77997859  0.00497976  1
  O  O197  1  0.37776729  0.75785693  0.49636294  1
  O  O198  1  0.86729602  0.25578097  -0.00881279  1
  O  O199  1  0.88056186  0.25433797  0.52426343  1
  O  O200  1  0.89163972  0.76242971  0.01248319  1
  O  O201  1  0.86066050  0.75792080  0.49988156  1
  O  O202  1  0.14038765  0.24404844  0.50024031  1
  O  O203  1  0.12344023  0.23813822  1.00842946  1
  O  O204  1  0.13668582  0.75266875  0.48783619  1
  O  O205  1  0.10934705  0.75058533  0.99520293  1
  O  O206  1  0.61089398  0.26274396  0.47619882  1
  O  O207  1  0.63874276  0.23158430  1.00491747  1
  O  O208  1  0.63682285  0.74700086  0.48904960  1
  O  O209  1  0.62126204  0.72248998  0.98730136  1
  O  O210  1  0.49139552  0.23960884  0.13301576  1
  O  O211  1  0.49089573  0.23778820  0.63433255  1
  O  O212  1  0.50569693  0.74818036  0.14177379  1
  O  O213  1  0.49774613  0.74277834  0.61638503  1
  O  O214  1  0.99129062  0.23922750  0.13615350  1
  O  O215  1  0.98741439  0.22323727  0.63275729  1
  O  O216  1  0.99778225  0.75251088  0.13651155  1
  O  O217  1  0.98486525  0.75238089  0.62806926  1
  O  O218  1  0.01182321  0.23705361  0.35739845  1
  O  O219  1  0.00433776  0.21751813  0.85585048  1
  O  O220  1  0.00726711  0.75827260  0.38440935  1
  O  O221  1  0.00144794  0.75931813  0.85866911  1
  O  O222  1  0.49226327  0.25286943  0.35675347  1
  O  O223  1  0.49108631  0.25226872  0.86797221  1
  O  O224  1  0.51251065  0.75695668  0.37483028  1
  O  O225  1  0.50444109  0.74380245  0.84967044  1
  O  O226  1  0.26464993  0.13812129  0.48559135  1
  O  O227  1  0.25236571  0.13529146  0.99700072  1
  O  O228  1  0.24347815  0.63629425  0.50404357  1
  O  O229  1  0.23090880  0.63824559  1.00808277  1
  O  O230  1  0.72496386  0.13763079  0.48763767  1
  O  O231  1  0.74500276  0.13165352  1.00004397  1
  O  O232  1  0.75679893  0.62680141  0.50545629  1
  O  O233  1  0.74356190  0.62314186  1.02203502  1
  O  O234  1  0.23751492  0.35351820  0.00894602  1
  O  O235  1  0.25999625  0.35748794  0.49469152  1
  O  O236  1  0.23881918  0.88003986  0.02667418  1
  O  O237  1  0.27185214  0.86798788  0.48930566  1
  O  O238  1  0.73910666  0.35765136  -0.01578928  1
  O  O239  1  0.75193299  0.36606581  0.51734539  1
  O  O240  1  0.76104170  0.87671496  0.01543881  1
  O  O241  1  0.75380952  0.86716029  0.49706025  1
  O  O242  1  0.13142401  0.51261723  0.23755888  1
  O  O243  1  0.12627769  0.51268145  0.71752771  1
  O  O244  1  0.11829850  0.99449481  0.24737321  1
  O  O245  1  0.12160990  0.94921499  0.79165053  1
  O  O246  1  0.62049856  0.46780682  0.28429862  1
  O  O247  1  0.61415176  0.47528665  0.73890165  1
  O  O248  1  0.61954409  0.98762834  0.24849276  1
  O  O249  1  0.59679917  1.07670606  0.70486149  1
  O  O250  1  0.38541640  0.01164176  0.26043888  1
  O  O251  1  0.37736411  0.01400767  0.75029998  1
  O  O252  1  0.36155997  0.50820825  0.26003337  1
  O  O253  1  0.42405886  0.51321728  0.77319773  1
  O  O254  1  0.87140087  -0.00656195  0.25935696  1
  O  O255  1  0.87104988  -0.01663896  0.77421593  1
  O  O256  1  0.87423844  0.50446188  0.25108370  1
  O  O257  1  0.89068783  0.51492229  0.74084842  1
  O  O258  1  0.12200565  0.34936402  0.38441966  1
  O  O259  1  0.15648017  0.37863900  0.84148535  1
  O  O260  1  0.12961354  0.86739368  0.37273609  1
  O  O261  1  0.12611431  0.90235376  0.86183882  1
  O  O262  1  0.61365732  0.40954747  0.34603283  1
  O  O263  1  0.62435342  0.37920039  0.86270684  1
  O  O264  1  0.61603925  0.87520189  0.37031519  1
  O  O265  1  0.66199418  0.87982828  0.83722599  1
  O  O266  1  0.38221749  0.12540807  0.13011948  1
  O  O267  1  0.38442700  0.13380381  0.64055603  1
  O  O268  1  0.37751126  0.63888377  0.13732720  1
  O  O269  1  0.39142809  0.63871966  0.61523888  1
  O  O270  1  0.87640933  0.11802923  0.13322189  1
  O  O271  1  0.85908553  0.12636427  0.62274775  1
  O  O272  1  0.88564814  0.63887918  0.11460525  1
  O  O273  1  0.88917522  0.63739758  0.62151627  1
  O  O274  1  0.25241047  0.24999652  0.11587337  1
  O  O275  1  0.26043845  0.23250631  0.61216087  1
  O  O276  1  0.24852858  0.76157280  0.13082430  1
  O  O277  1  0.27541382  0.74960768  0.60484949  1
  O  O278  1  0.75750308  0.25377147  0.10856158  1
  O  O279  1  0.75409848  0.24854842  0.63841013  1
  O  O280  1  0.74483660  0.75399111  0.12621088  1
  O  O281  1  0.75711055  0.74401515  0.60845476  1
  O  O282  1  0.24164543  0.24320935  0.37985309  1
  O  O283  1  0.24260028  0.23817725  0.89352623  1
  O  O284  1  0.25348980  0.75031725  0.38256408  1
  O  O285  1  0.24280738  0.75247129  0.87433233  1
  O  O286  1  0.75016554  0.24237784  0.36498320  1
  O  O287  1  0.75412521  0.22676367  0.88589442  1
  O  O288  1  0.73811773  0.74478363  0.38433082  1
  O  O289  1  0.75372646  0.72297010  0.89578915  1
  O  O290  1  -0.01159337  0.11221378  0.02026594  1
  O  O291  1  -0.02681620  0.10987973  0.50937542  1
  O  O292  1  0.02495224  0.60968753  -0.01312231  1
  O  O293  1  0.00708852  0.62898674  0.50637488  1
  O  O294  1  0.51912719  0.13128289  0.01315244  1
  O  O295  1  0.51156483  0.12239584  0.49770614  1
  O  O296  1  0.48543914  0.62646632  0.01715767  1
  O  O297  1  0.50237324  0.60862618  0.50516761  1
  O  O298  1  0.48731350  0.38418565  0.49835362  1
  O  O299  1  0.50985768  0.37647755  0.98411468  1
  O  O300  1  0.49885797  0.88164221  0.49104543  1
  O  O301  1  0.54966878  0.89092744  0.97339414  1
  O  O302  1  0.99618677  0.37400374  0.53428010  1
  O  O303  1  1.02398868  0.38870699  0.98845003  1
  O  O304  1  0.97915269  0.88978064  0.49811300  1
  O  O305  1  0.98310513  0.89112227  1.01818136  1
  O  O306  1  0.48233864  0.49868077  0.38389126  1
  O  O307  1  0.47679392  0.49346643  0.83920396  1
  O  O308  1  0.49316034  0.99432989  0.38164863  1
  O  O309  1  0.49842337  1.01272710  0.88210096  1
  O  O310  1  1.04560397  0.48617628  0.39833559  1
  O  O311  1  1.02585749  0.49374571  0.86710981  1
  O  O312  1  0.97042742  1.01429244  0.38283392  1
  O  O313  1  0.98388765  1.00665611  0.89758636  1
  O  O314  1  -0.00066138  0.01132477  0.12810493  1
  O  O315  1  -0.01173156  0.00393823  0.60714312  1
  O  O316  1  0.02087604  0.49214029  0.11375307  1
  O  O317  1  0.00309123  0.52500157  0.62077049  1
  O  O318  1  0.51341843  0.01120114  0.13549932  1
  O  O319  1  0.48715296  0.01488377  0.61222493  1
  O  O320  1  0.47445482  0.50877898  0.12497753  1
  O  O321  1  0.50711244  0.50345066  0.61800332  1
  O  O322  1  0.25611358  0.38628644  0.24087970  1
  O  O323  1  0.20043026  0.35813815  0.78603497  1
  O  O324  1  0.23235490  0.87891904  0.24317267  1
  O  O325  1  0.25869775  0.85904099  0.73597288  1
  O  O326  1  0.74843539  0.39928785  0.19386393  1
  O  O327  1  0.73487107  0.36129912  0.74600889  1
  O  O328  1  0.73802833  0.86352578  0.24687610  1
  O  O329  1  0.72336360  0.87117662  0.79305488  1
  O  O330  1  0.26167891  0.12730215  0.26057896  1
  O  O331  1  0.26260349  0.13274020  0.77059194  1
  O  O332  1  0.25725371  0.61523881  0.24459265  1
  O  O333  1  0.24615343  0.65300801  0.74834632  1
  O  O334  1  0.74017381  0.12655104  0.25933435  1
  O  O335  1  0.74547334  0.12020933  0.76976194  1
  O  O336  1  0.76525782  0.60673427  0.23182594  1
  O  O337  1  0.78163163  0.62701687  0.73326571  1
  O  O338  1  0.37023429  0.12004495  0.36711924  1
  O  O339  1  0.36884161  0.12940076  0.86613456  1
  O  O340  1  0.37469192  0.61353281  0.37003400  1
  O  O341  1  0.35582025  0.63524091  0.87431396  1
  O  O342  1  0.85098732  0.11680592  0.38947784  1
  O  O343  1  0.86307320  0.10582239  0.88405753  1
  O  O344  1  0.86799171  0.62510061  0.36712568  1
  O  O345  1  0.88803355  0.62979721  0.85947783  1
  O  O346  1  0.13298026  0.37677890  0.12739503  1
  O  O347  1  0.15210671  0.37881054  0.62533193  1
  O  O348  1  0.13032884  0.88651674  0.14229175  1
  O  O349  1  0.14159624  0.88742679  0.59350556  1
  O  O350  1  0.56729702  0.40934438  0.04179093  1
  O  O351  1  0.63473474  0.37090857  0.63015659  1
  O  O352  1  0.63273052  0.88329085  0.13601534  1
  O  O353  1  0.63199462  0.89135956  0.64646682  1
  O  O354  1  0.12969552  0.25303891  0.25596076  1
  O  O355  1  0.11789182  0.21508493  0.73592908  1
  O  O356  1  0.12572158  0.75895512  0.26962208  1
  O  O357  1  0.10576664  0.76114423  0.74402438  1
  O  O358  1  0.60874237  0.25531978  0.23862738  1
  O  O359  1  0.60771791  0.25321751  0.75388285  1
  O  O360  1  0.61613153  0.75911121  0.26748755  1
  O  O361  1  0.61561588  0.75814107  0.72639108  1
  O  O362  1  0.37487529  0.23963934  0.23691684  1
  O  O363  1  0.38017094  0.25490720  0.74437592  1
  O  O364  1  0.38517439  0.74285178  0.26287557  1
  O  O365  1  0.39127962  0.75516354  0.72698684  1
  O  O366  1  0.87606486  0.26146995  0.26046617  1
  O  O367  1  0.88525905  0.23437563  0.73942623  1
  O  O368  1  0.87022015  0.73228107  0.23882290  1
  O  O369  1  0.88128643  0.74674503  0.74348725  1
  O  O370  1  0.37655521  0.49358468  0.49645460  1
  O  O371  1  0.33531655  0.49566927  0.99283101  1
  O  O372  1  0.38534471  0.99447509  0.49216782  1
  O  O373  1  0.40142670  0.98714865  1.01312153  1
  O  O374  1  0.87689890  0.47471640  0.51552007  1
  O  O375  1  0.91176333  0.50033184  0.98596007  1
  O  O376  1  0.86328461  0.98694492  0.49449482  1
  O  O377  1  0.87883428  0.98675922  1.00279910  1
  O  O378  1  0.10451573  -0.00672663  0.02118426  1
  O  O379  1  0.09550799  0.00431752  0.47335112  1
  O  O380  1  0.13052660  0.51039751  0.01043632  1
  O  O381  1  0.14339463  0.51561064  0.52945103  1
  O  O382  1  0.63769300  0.01607008  0.02086138  1
  O  O383  1  0.61221825  -0.00331204  0.50001027  1
  O  O384  1  0.63458801  0.54670457  -0.05472823  1
  O  O385  1  0.61723243  0.48379102  0.51272674  1
  O  O386  1  0.35913639  0.36416827  0.11540843  1
  O  O387  1  0.38050798  0.36282664  0.61754807  1
  O  O388  1  0.35567271  0.87395041  0.14238026  1
  O  O389  1  0.39034194  0.86468954  0.60821120  1
  O  O390  1  0.78890120  0.41786520  0.12927925  1
  O  O391  1  0.85768531  0.35513310  0.62781689  1
  O  O392  1  0.86592732  0.85754511  0.12687651  1
  O  O393  1  0.86729913  0.86718755  0.60939191  1
  O  O394  1  0.13611043  0.13404617  0.36738420  1
  O  O395  1  0.14005481  0.10614832  0.87044099  1
  O  O396  1  0.11975065  0.64297291  0.38921427  1
  O  O397  1  0.13548766  0.64492807  0.88086464  1
  O  O398  1  0.62918260  0.12749072  0.37876436  1
  O  O399  1  0.63781491  0.11089570  0.89206930  1
  O  O400  1  0.61934884  0.63249840  0.36743005  1
  O  O401  1  0.64224061  0.63679550  0.83731452  1
