# generated using pymatgen
data_V73Zn73O256
_symmetry_space_group_name_H-M   'P 1'
_cell_length_a   16.87430135
_cell_length_b   16.85931313
_cell_length_c   16.87994295
_cell_angle_alpha   90.01706768
_cell_angle_beta   89.92060433
_cell_angle_gamma   89.95252521
_symmetry_Int_Tables_number   1
_chemical_formula_structural   V73Zn73O256
_chemical_formula_sum   'V73 Zn73 O256'
_cell_volume   4802.15381833
_cell_formula_units_Z   1
loop_
 _symmetry_equiv_pos_site_id
 _symmetry_equiv_pos_as_xyz
  1  'x, y, z'
loop_
 _atom_site_type_symbol
 _atom_site_label
 _atom_site_symmetry_multiplicity
 _atom_site_fract_x
 _atom_site_fract_y
 _atom_site_fract_z
 _atom_site_occupancy
  V  V0  1  0.11870397  0.87208263  0.22683847  1
  V  V1  1  0.11887307  0.85916218  0.75513389  1
  V  V2  1  0.37570892  0.37544896  0.49812959  1
  V  V3  1  0.63218516  0.00484313  0.62921317  1
  V  V4  1  0.76846363  0.75829437  0.00032800  1
  V  V5  1  0.62451758  0.49765438  0.62981145  1
  V  V6  1  0.87590103  0.11317255  0.74403268  1
  V  V7  1  0.12066342  0.27426525  0.86725025  1
  V  V8  1  0.24930831  0.25295485  -0.00411704  1
  V  V9  1  0.01442846  0.35522354  0.36962772  1
  V  V10  1  0.74891906  0.01553826  0.26403081  1
  V  V11  1  0.61554085  0.64963663  0.00188983  1
  V  V12  1  0.49443547  0.49743328  -0.00277336  1
  V  V13  1  0.76606050  0.87195903  0.12955723  1
  V  V14  1  0.11418001  0.11175188  -0.00904468  1
  V  V15  1  0.37288140  0.11234902  0.75312011  1
  V  V16  1  0.50943575  0.00528119  0.49959605  1
  V  V17  1  0.13491289  -0.00073995  0.62332580  1
  V  V18  1  0.37534525  0.36826685  0.01132361  1
  V  V19  1  0.49457402  0.76039942  0.76846321  1
  V  V20  1  0.00247055  0.63538107  0.61562220  1
  V  V21  1  0.63956806  0.87471842  0.75602626  1
  V  V22  1  0.00544102  0.63424483  0.12528744  1
  V  V23  1  0.12499599  0.75759334  0.38295360  1
  V  V24  1  0.37729065  0.24472453  0.62656642  1
  V  V25  1  0.49319934  0.37570367  0.87544707  1
  V  V26  1  0.64697020  0.63011135  0.49989204  1
  V  V27  1  0.62296191  0.76887088  0.34279501  1
  V  V28  1  0.26097148  0.76029193  0.02071736  1
  V  V29  1  0.87643595  0.24379078  0.13976803  1
  V  V30  1  0.88877072  0.63213575  0.75297258  1
  V  V31  1  0.00356353  0.11324306  0.61892415  1
  V  V32  1  0.12279205  0.49769995  0.63770483  1
  V  V33  1  0.25001195  -0.01374311  0.25295081  1
  V  V34  1  0.61937888  -0.01361575  0.12587656  1
  V  V35  1  0.89280484  -0.00609111  0.88727454  1
  V  V36  1  0.26130941  0.62472016  0.37826453  1
  V  V37  1  -0.00040264  0.25805381  0.74269559  1
  V  V38  1  0.24979371  0.86191745  0.62278500  1
  V  V39  1  0.76160784  0.38015442  0.11346623  1
  V  V40  1  0.49676921  0.63241552  0.62604393  1
  V  V41  1  0.49802732  0.50251333  0.50008412  1
  V  V42  1  0.62738583  0.24493786  0.88020542  1
  V  V43  1  0.24732717  0.38132351  0.63628882  1
  V  V44  1  0.63759268  0.24045252  0.38184096  1
  V  V45  1  -0.00141036  0.84554995  0.88130598  1
  V  V46  1  0.88080482  0.90109693  0.46499753  1
  V  V47  1  0.51165124  0.13800690  0.11741290  1
  V  V48  1  0.76305448  0.25413713  -0.00920885  1
  V  V49  1  0.50451767  0.38140493  0.37619063  1
  V  V50  1  0.49993122  0.24335653  0.74751667  1
  V  V51  1  0.24752157  0.10784582  0.86807503  1
  V  V52  1  0.12918469  0.61659135  0.49576067  1
  V  V53  1  0.75639672  0.25207630  0.52777543  1
  V  V54  1  0.89766452  0.50109629  0.37682939  1
  V  V55  1  0.24353959  0.62166109  0.87991622  1
  V  V56  1  0.48755985  -0.01003982  -0.00317846  1
  V  V57  1  0.37264491  0.61204106  0.76067121  1
  V  V58  1  0.49469139  0.62381903  0.12885969  1
  V  V59  1  0.63013089  0.37323708  0.74860233  1
  V  V60  1  0.74641742  0.10862886  0.87477976  1
  V  V61  1  0.37102166  0.14158330  0.25218069  1
  V  V62  1  0.11597782  0.48322368  0.12189772  1
  V  V63  1  0.50704526  0.25350316  0.24954665  1
  V  V64  1  0.24094574  0.23668558  0.49744124  1
  V  V65  1  0.73628606  0.63495180  0.87551530  1
  V  V66  1  0.24432205  0.48421484  0.25781763  1
  V  V67  1  0.75149612  0.50417213  0.25947812  1
  V  V68  1  0.87644237  0.63411942  0.24790451  1
  V  V69  1  0.37365228  0.61784426  0.24157842  1
  V  V70  1  0.63007368  0.50035294  0.11951315  1
  V  V71  1  0.74516808  0.50786240  0.75967160  1
  V  V72  1  0.85186462  0.75838436  0.61330395  1
  Zn  Zn73  1  0.38221600  0.00866989  0.37697427  1
  Zn  Zn74  1  0.63087276  0.37941683  0.25140264  1
  Zn  Zn75  1  0.36944579  0.74519895  0.61720081  1
  Zn  Zn76  1  0.38125319  0.87263954  0.50407751  1
  Zn  Zn77  1  -0.01249521  0.76300211  0.25612705  1
  Zn  Zn78  1  -0.02060406  0.11446911  0.09706518  1
  Zn  Zn79  1  0.12851480  0.62676760  -0.00042751  1
  Zn  Zn80  1  0.87877813  0.37583321  0.51141579  1
  Zn  Zn81  1  0.24822345  0.36312039  0.13533156  1
  Zn  Zn82  1  0.19221273  0.15532825  0.17388246  1
  Zn  Zn83  1  0.18629493  0.18984927  0.68520835  1
  Zn  Zn84  1  0.18754052  0.68393255  0.18969006  1
  Zn  Zn85  1  0.18823899  0.68439006  0.69310851  1
  Zn  Zn86  1  0.68924844  0.19137470  0.18593940  1
  Zn  Zn87  1  0.68841649  0.17747062  0.68910411  1
  Zn  Zn88  1  0.68822625  0.69025587  0.18504939  1
  Zn  Zn89  1  0.67567459  0.69476363  0.68575653  1
  Zn  Zn90  1  0.31424829  0.30679664  0.31854090  1
  Zn  Zn91  1  0.31208500  0.31067663  0.81514796  1
  Zn  Zn92  1  0.30648693  0.79926458  0.28746492  1
  Zn  Zn93  1  0.30735284  0.80630447  0.81218194  1
  Zn  Zn94  1  0.81820796  0.32122109  0.31479760  1
  Zn  Zn95  1  0.81316454  0.30748408  0.79670055  1
  Zn  Zn96  1  0.79957335  0.81643986  0.32063254  1
  Zn  Zn97  1  0.81953646  0.80932081  0.81136399  1
  Zn  Zn98  1  0.18522560  0.43055785  0.44302209  1
  Zn  Zn99  1  0.19304545  0.44497726  0.93888996  1
  Zn  Zn100  1  0.19119312  0.94740503  0.44123244  1
  Zn  Zn101  1  0.18678675  0.92444644  0.93745887  1
  Zn  Zn102  1  0.68836466  0.43318425  0.44609406  1
  Zn  Zn103  1  0.68606483  0.43845543  0.93392735  1
  Zn  Zn104  1  0.68898511  0.92608683  0.44304867  1
  Zn  Zn105  1  0.66924190  0.92831130  0.94631296  1
  Zn  Zn106  1  0.30863259  0.08053455  0.06784343  1
  Zn  Zn107  1  0.31843151  0.05387712  0.56275596  1
  Zn  Zn108  1  0.30361004  0.55201058  0.06286727  1
  Zn  Zn109  1  0.31429555  0.56209775  0.56440424  1
  Zn  Zn110  1  0.80090089  0.06102376  0.05760690  1
  Zn  Zn111  1  0.80656447  0.05956213  0.54680740  1
  Zn  Zn112  1  0.81809911  0.56721827  0.05808978  1
  Zn  Zn113  1  0.82326742  0.54106079  0.57491148  1
  Zn  Zn114  1  0.43631949  0.44117159  0.19168545  1
  Zn  Zn115  1  0.43913578  0.43332792  0.68685060  1
  Zn  Zn116  1  0.40354489  0.97605740  0.15156285  1
  Zn  Zn117  1  0.44356688  0.93551647  0.67996800  1
  Zn  Zn118  1  0.94066015  0.43309177  0.19223418  1
  Zn  Zn119  1  0.93501070  0.45010589  0.69084771  1
  Zn  Zn120  1  0.93152582  0.94345991  0.19429280  1
  Zn  Zn121  1  0.93929410  0.93031026  0.69159707  1
  Zn  Zn122  1  0.05641064  0.05556724  0.25128536  1
  Zn  Zn123  1  0.06582896  0.05541663  0.80253548  1
  Zn  Zn124  1  0.06874945  0.56404652  0.30589627  1
  Zn  Zn125  1  0.06697273  0.55513717  0.81626366  1
  Zn  Zn126  1  0.56591553  0.05787463  0.31329362  1
  Zn  Zn127  1  0.55915738  0.05259870  0.81431906  1
  Zn  Zn128  1  0.54758798  0.59609705  0.33428539  1
  Zn  Zn129  1  0.55875695  0.56768256  0.81623382  1
  Zn  Zn130  1  0.44572559  0.18781585  0.43774841  1
  Zn  Zn131  1  0.43427042  0.18418706  0.93322220  1
  Zn  Zn132  1  0.45804571  0.71609492  0.44414336  1
  Zn  Zn133  1  0.42742896  0.69132909  0.94279270  1
  Zn  Zn134  1  0.94085571  0.20229749  0.45131698  1
  Zn  Zn135  1  0.93697912  0.19108540  0.92003880  1
  Zn  Zn136  1  0.93700849  0.68970822  0.43458089  1
  Zn  Zn137  1  0.92911550  0.65912841  0.94464646  1
  Zn  Zn138  1  0.08511119  0.27282857  0.08676963  1
  Zn  Zn139  1  0.05931687  0.31249819  0.55770950  1
  Zn  Zn140  1  0.06775053  0.80351586  0.05387180  1
  Zn  Zn141  1  0.05834737  0.82044909  0.55454190  1
  Zn  Zn142  1  0.57164093  0.31638120  0.06116787  1
  Zn  Zn143  1  0.56610366  0.30761589  0.56233590  1
  Zn  Zn144  1  0.51228271  0.82835527  0.09790513  1
  Zn  Zn145  1  0.57276040  0.82095341  0.56152037  1
  O  O146  1  0.10935756  0.14760290  0.09423092  1
  O  O147  1  0.11595246  0.10948023  0.63791012  1
  O  O148  1  0.11373359  0.61195831  0.13647890  1
  O  O149  1  0.12374955  0.61700341  0.61959934  1
  O  O150  1  0.61554143  0.12597754  0.12038383  1
  O  O151  1  0.61444425  0.10618587  0.64458443  1
  O  O152  1  0.61777950  0.61680959  0.11713209  1
  O  O153  1  0.61231259  0.61642557  0.62084739  1
  O  O154  1  0.39123709  0.36812853  0.38905193  1
  O  O155  1  0.38875818  0.36828816  0.88292346  1
  O  O156  1  0.40328138  0.86659908  0.32195594  1
  O  O157  1  0.35085884  0.89401135  0.86794645  1
  O  O158  1  0.88421642  0.39207827  0.37641283  1
  O  O159  1  0.88662837  0.39617580  0.87720057  1
  O  O160  1  0.88426330  0.87707288  0.36326849  1
  O  O161  1  0.88959022  0.88346227  0.86816221  1
  O  O162  1  0.25901481  -0.00353358  0.35978448  1
  O  O163  1  0.24552774  0.00985056  0.87505676  1
  O  O164  1  0.23946053  0.50584309  0.36418235  1
  O  O165  1  0.25775377  0.51865607  0.88190216  1
  O  O166  1  0.72931660  -0.00007837  0.36135606  1
  O  O167  1  0.74788538  0.00858605  0.88213386  1
  O  O168  1  0.74909891  0.49489027  0.35877867  1
  O  O169  1  0.74113084  0.51769189  0.86997276  1
  O  O170  1  0.23768614  0.48779991  0.13620572  1
  O  O171  1  0.24494750  0.48764375  0.62193716  1
  O  O172  1  0.23744025  1.04070444  0.16091150  1
  O  O173  1  0.23938012  0.99354798  0.62993546  1
  O  O174  1  0.74847139  0.49655508  0.11706978  1
  O  O175  1  0.72787933  0.51009744  0.64472798  1
  O  O176  1  0.73383262  0.98508460  0.11421184  1
  O  O177  1  0.73337024  1.00600854  0.61847968  1
  O  O178  1  -0.00078420  0.37597342  0.26895726  1
  O  O179  1  -0.01238860  0.35625141  0.73154075  1
  O  O180  1  0.01504766  0.87606023  0.24378878  1
  O  O181  1  0.00747127  0.86877947  0.76306399  1
  O  O182  1  0.50404818  0.37474787  0.25944504  1
  O  O183  1  0.50573001  0.36531299  0.75884745  1
  O  O184  1  0.45999316  0.87177130  0.26593340  1
  O  O185  1  0.48709002  0.86115661  0.75494155  1
  O  O186  1  0.50326168  0.13914896  0.24071356  1
  O  O187  1  0.48447990  0.13557052  0.76495998  1
  O  O188  1  0.48226762  0.59458828  0.24137892  1
  O  O189  1  0.49384835  0.63205949  0.74506015  1
  O  O190  1  1.10277974  0.16224184  0.25783027  1
  O  O191  1  0.99019303  0.12875817  0.74643330  1
  O  O192  1  0.99144691  0.62727201  0.24352787  1
  O  O193  1  0.99148545  0.62122110  0.74720575  1
  O  O194  1  0.36068772  0.25527311  -0.00851157  1
  O  O195  1  0.37922848  0.25724822  0.51281425  1
  O  O196  1  0.36531882  0.74937621  0.01201776  1
  O  O197  1  0.37602203  0.75899974  0.50010448  1
  O  O198  1  0.86464194  0.25335433  -0.01243198  1
  O  O199  1  0.86306172  0.25508718  0.51269556  1
  O  O200  1  0.86581386  0.74782877  0.00208007  1
  O  O201  1  0.87454640  0.73880591  0.51465763  1
  O  O202  1  0.14159272  0.24628160  0.51231211  1
  O  O203  1  0.12873633  0.24729767  0.97665784  1
  O  O204  1  0.12448590  0.73619149  0.48880606  1
  O  O205  1  0.14834556  0.74034604  1.00549237  1
  O  O206  1  0.63736693  0.25748208  0.48961075  1
  O  O207  1  0.63503315  0.25373721  0.98487920  1
  O  O208  1  0.62425801  0.73081162  0.50568864  1
  O  O209  1  0.60981723  0.74702720  1.00715545  1
  O  O210  1  0.51306039  0.24749857  0.13313013  1
  O  O211  1  0.49223091  0.25506017  0.63755323  1
  O  O212  1  0.49791149  0.72238675  0.13073587  1
  O  O213  1  0.49963656  0.73723666  0.62788944  1
  O  O214  1  0.97784612  0.24631904  0.11722919  1
  O  O215  1  1.01318871  0.23290523  0.63896822  1
  O  O216  1  1.00850754  0.73795066  0.13548941  1
  O  O217  1  1.00954945  0.73454557  0.62531214  1
  O  O218  1  -0.00429012  0.25384957  0.36905292  1
  O  O219  1  0.01380002  0.25467764  0.86161267  1
  O  O220  1  0.02072481  0.74101036  0.36813038  1
  O  O221  1  -0.01489778  0.74658868  0.88108373  1
  O  O222  1  0.51464481  0.26166521  0.37127072  1
  O  O223  1  0.50791693  0.25420779  0.86948624  1
  O  O224  1  0.53003940  0.71223359  0.36235375  1
  O  O225  1  0.49502742  0.74629765  0.86700279  1
  O  O226  1  0.26084915  0.13804111  0.51066195  1
  O  O227  1  0.24199466  0.13247143  0.98524674  1
  O  O228  1  0.24841590  0.61777461  0.48509826  1
  O  O229  1  0.25395016  0.62757777  0.99331324  1
  O  O230  1  0.75166700  0.15120857  0.50672200  1
  O  O231  1  0.75119065  0.13640028  0.97879325  1
  O  O232  1  0.74279655  0.61352065  0.52166267  1
  O  O233  1  0.73517277  0.64547271  0.99855217  1
  O  O234  1  0.26089519  0.36887532  -0.00250336  1
  O  O235  1  0.26182596  0.36792926  0.51024433  1
  O  O236  1  0.25070865  0.86155657  0.00369405  1
  O  O237  1  0.24993662  0.88033881  0.51980144  1
  O  O238  1  0.74788028  0.36982296  0.00371682  1
  O  O239  1  0.75684771  0.36038749  0.49604272  1
  O  O240  1  0.74505465  0.86353135  0.00661562  1
  O  O241  1  0.78190019  0.87548262  0.48884398  1
  O  O242  1  0.13683212  0.49666223  0.23974495  1
  O  O243  1  0.13442529  0.50408847  0.73626975  1
  O  O244  1  0.13794405  0.97536604  0.26656850  1
  O  O245  1  0.11797966  0.97970612  0.73564756  1
  O  O246  1  0.64281246  0.50683673  0.23368257  1
  O  O247  1  0.62324626  0.49166414  0.75062399  1
  O  O248  1  0.63149893  1.00593071  0.23121462  1
  O  O249  1  0.61813132  0.98684495  0.74279472  1
  O  O250  1  0.36008531  0.01896606  0.25065597  1
  O  O251  1  0.38237594  0.01512450  0.74638618  1
  O  O252  1  0.35382402  0.49912652  0.24828035  1
  O  O253  1  0.38306653  0.51237808  0.74664031  1
  O  O254  1  0.84732252  -0.00257670  0.24869128  1
  O  O255  1  0.87965408  0.00870846  0.76269696  1
  O  O256  1  0.86711085  0.50666936  0.25758209  1
  O  O257  1  0.85163575  0.52827647  0.73829790  1
  O  O258  1  0.11511471  0.36863013  0.38114250  1
  O  O259  1  0.12633286  0.37365739  0.87374171  1
  O  O260  1  0.13691290  0.85743022  0.38570407  1
  O  O261  1  0.11355177  0.87066650  0.86408874  1
  O  O262  1  0.61565088  0.37370391  0.37375830  1
  O  O263  1  0.61556244  0.36553971  0.86734094  1
  O  O264  1  0.61536425  0.86494902  0.37358184  1
  O  O265  1  0.61893989  0.88370845  0.85642268  1
  O  O266  1  0.39203341  0.12964860  0.14303776  1
  O  O267  1  0.36554475  0.13534684  0.64290465  1
  O  O268  1  0.38015765  0.60570361  0.13409660  1
  O  O269  1  0.38158821  0.62410474  0.63452037  1
  O  O270  1  0.86329835  0.14125351  0.11306484  1
  O  O271  1  0.88392524  0.11357872  0.63950806  1
  O  O272  1  0.89286019  0.61706885  0.13771032  1
  O  O273  1  0.89175561  0.63096240  0.62888351  1
  O  O274  1  0.22947016  0.25074217  0.10239211  1
  O  O275  1  0.25806976  0.26093518  0.62103119  1
  O  O276  1  0.25473180  0.74604441  0.12346507  1
  O  O277  1  0.24722991  0.75702545  0.62335830  1
  O  O278  1  0.75771575  0.25943789  0.11242550  1
  O  O279  1  0.74191291  0.25799154  0.62886875  1
  O  O280  1  0.74745893  0.76221214  0.11262740  1
  O  O281  1  0.75236615  0.74899828  0.62210257  1
  O  O282  1  0.25744147  0.25398273  0.39908189  1
  O  O283  1  0.23551240  0.24895179  0.87659065  1
  O  O284  1  0.24261799  0.73174113  0.36358855  1
  O  O285  1  0.26093384  0.73006934  0.88600272  1
  O  O286  1  0.73661288  0.25734679  0.36447119  1
  O  O287  1  0.74369825  0.25060027  0.87494144  1
  O  O288  1  0.72163671  0.74411035  0.36036931  1
  O  O289  1  0.75195690  0.74693838  0.88959676  1
  O  O290  1  0.00979442  0.12572365  -0.01742385  1
  O  O291  1  -0.00377186  0.13015083  0.52102321  1
  O  O292  1  0.01137036  0.63152367  0.02093672  1
  O  O293  1  0.01051680  0.62511588  0.51121045  1
  O  O294  1  0.49116652  0.12965627  0.01635750  1
  O  O295  1  0.49360602  0.10796119  0.50290440  1
  O  O296  1  0.50065783  0.61395739  0.00688757  1
  O  O297  1  0.50032223  0.61406767  0.51005706  1
  O  O298  1  0.49704532  0.38190459  0.49805033  1
  O  O299  1  0.49564983  0.37615947  0.99470292  1
  O  O300  1  0.49827185  0.88695372  0.50541503  1
  O  O301  1  0.48971546  0.88918677  1.00453747  1
  O  O302  1  0.99231114  0.36587394  0.48475769  1
  O  O303  1  0.95742354  0.42511962  0.88228723  1
  O  O304  1  0.97433396  0.86903070  0.50008386  1
  O  O305  1  1.00894286  0.86738938  0.97980676  1
  O  O306  1  0.50618500  0.49469076  0.39046720  1
  O  O307  1  0.51041793  0.48728015  0.88720457  1
  O  O308  1  0.50289755  0.99985348  0.38809782  1
  O  O309  1  0.49096455  1.01509597  0.89922092  1
  O  O310  1  0.99939221  0.49921091  0.37406225  1
  O  O311  1  0.97435445  0.48386801  0.82515260  1
  O  O312  1  0.97502080  1.05262915  0.35546205  1
  O  O313  1  0.99266816  1.00000287  0.87794737  1
  O  O314  1  -0.00131788  0.02753506  0.16207672  1
  O  O315  1  0.00389854  0.00872469  0.62942333  1
  O  O316  1  0.01219045  0.50234408  0.13222688  1
  O  O317  1  0.01819760  0.51239242  0.63192028  1
  O  O318  1  0.51120800  0.01811697  0.12486231  1
  O  O319  1  0.50664819  -0.00069527  0.61251930  1
  O  O320  1  0.51124258  0.49771268  0.11586404  1
  O  O321  1  0.50666955  0.50606284  0.62137798  1
  O  O322  1  0.25252358  0.37884171  0.25436547  1
  O  O323  1  0.25564450  0.37228465  0.73514782  1
  O  O324  1  0.24984211  0.88422541  0.23413594  1
  O  O325  1  0.23123909  0.86645260  0.73962834  1
  O  O326  1  0.75398795  0.39280934  0.23609777  1
  O  O327  1  0.73873075  0.38907742  0.76365389  1
  O  O328  1  0.74632484  0.87982143  0.23006975  1
  O  O329  1  0.73930509  0.86715937  0.75439617  1
  O  O330  1  0.27342774  0.16583784  0.25470139  1
  O  O331  1  0.25787339  0.12832501  0.75998124  1
  O  O332  1  0.25638816  0.60991987  0.25639434  1
  O  O333  1  0.26448762  0.62871105  0.76108164  1
  O  O334  1  0.74540291  0.11626431  0.24759542  1
  O  O335  1  0.76746397  0.13065862  0.76293969  1
  O  O336  1  0.76461626  0.61324019  0.23488881  1
  O  O337  1  0.72885875  0.62381699  0.76325779  1
  O  O338  1  0.39093447  0.12769582  0.35547665  1
  O  O339  1  0.35818345  0.12911955  0.86509279  1
  O  O340  1  0.36242693  0.61704738  0.36537770  1
  O  O341  1  0.37828206  0.61986308  0.86362691  1
  O  O342  1  0.92216844  0.10497107  0.35651210  1
  O  O343  1  0.86700992  0.11013111  0.86863015  1
  O  O344  1  0.88561699  0.61670013  0.35546147  1
  O  O345  1  0.85663226  0.63770967  0.85199763  1
  O  O346  1  0.11917877  0.37873198  0.11924888  1
  O  O347  1  0.13599979  0.38646337  0.62059826  1
  O  O348  1  0.12350154  0.87597774  0.12898416  1
  O  O349  1  0.12881877  0.87726516  0.63022650  1
  O  O350  1  0.63991385  0.38499716  0.12617384  1
  O  O351  1  0.61472000  0.38260463  0.64101433  1
  O  O352  1  0.61056810  0.88627876  0.12775978  1
  O  O353  1  0.62090047  0.88621824  0.64246074  1
  O  O354  1  0.13029071  0.17006385  0.34341371  1
  O  O355  1  0.11669629  0.25036750  0.75934974  1
  O  O356  1  0.13297305  0.76687645  0.25798729  1
  O  O357  1  0.11852405  0.75797564  0.74612169  1
  O  O358  1  0.62057106  0.25843391  0.25797905  1
  O  O359  1  0.61843305  0.25545862  0.75725653  1
  O  O360  1  0.61868982  0.75989544  0.24016692  1
  O  O361  1  0.60571976  0.76365991  0.74697010  1
  O  O362  1  0.39755269  0.25281390  0.25555696  1
  O  O363  1  0.38323143  0.24799842  0.74444199  1
  O  O364  1  0.37397708  0.71724813  0.24751864  1
  O  O365  1  0.38532937  0.73723884  0.74522012  1
  O  O366  1  0.86760278  0.24777155  0.23852663  1
  O  O367  1  0.89109896  0.23381752  0.76129891  1
  O  O368  1  0.86965645  0.73688161  0.25398302  1
  O  O369  1  0.86603098  0.73421415  0.73156266  1
  O  O370  1  0.38642285  0.48666720  0.51035093  1
  O  O371  1  0.38838915  0.48708775  1.00506660  1
  O  O372  1  0.38271038  0.98933330  0.49376529  1
  O  O373  1  0.38529125  1.00060981  1.03694539  1
  O  O374  1  0.87268883  0.51972687  0.47135123  1
  O  O375  1  0.88590904  0.55452755  0.97258916  1
  O  O376  1  0.87887627  1.00345858  0.48197393  1
  O  O377  1  0.87318091  1.00251490  0.98569798  1
  O  O378  1  0.12992435  0.01404453  -0.00410141  1
  O  O379  1  0.12267223  -0.00693018  0.52161786  1
  O  O380  1  0.13088001  0.50477902  0.01908603  1
  O  O381  1  0.13115596  0.51179831  0.51019401  1
  O  O382  1  0.60471321  -0.00125154  0.01338428  1
  O  O383  1  0.61817173  -0.00707523  0.51253179  1
  O  O384  1  0.61707038  0.50228519  0.00809134  1
  O  O385  1  0.61770640  0.50098631  0.51469540  1
  O  O386  1  0.37495135  0.37149846  0.11462590  1
  O  O387  1  0.36779986  0.36689545  0.62044192  1
  O  O388  1  0.42741909  0.86492673  0.18613985  1
  O  O389  1  0.35580176  0.87289612  0.63502118  1
  O  O390  1  0.86743516  0.36522345  0.12625801  1
  O  O391  1  0.86367900  0.43587498  0.60633481  1
  O  O392  1  0.86475066  0.87841038  0.12338787  1
  O  O393  1  0.87685616  0.85564639  0.63231189  1
  O  O394  1  0.11275887  0.11129847  0.38577898  1
  O  O395  1  0.13472826  0.12512650  0.87526279  1
  O  O396  1  0.13593241  0.62773373  0.37984556  1
  O  O397  1  0.13634849  0.61979213  0.87640554  1
  O  O398  1  0.62215575  0.14283790  0.37235411  1
  O  O399  1  0.63933691  0.13200685  0.86012403  1
  O  O400  1  0.63935265  0.60501131  0.40098822  1
  O  O401  1  0.62659649  0.62793784  0.88945377  1
