# generated using pymatgen
data_V73Zn73O256
_symmetry_space_group_name_H-M   'P 1'
_cell_length_a   16.91315549
_cell_length_b   16.85339122
_cell_length_c   16.91282895
_cell_angle_alpha   89.71238107
_cell_angle_beta   89.91049221
_cell_angle_gamma   89.77197662
_symmetry_Int_Tables_number   1
_chemical_formula_structural   V73Zn73O256
_chemical_formula_sum   'V73 Zn73 O256'
_cell_volume   4820.79620538
_cell_formula_units_Z   1
loop_
 _symmetry_equiv_pos_site_id
 _symmetry_equiv_pos_as_xyz
  1  'x, y, z'
loop_
 _atom_site_type_symbol
 _atom_site_label
 _atom_site_symmetry_multiplicity
 _atom_site_fract_x
 _atom_site_fract_y
 _atom_site_fract_z
 _atom_site_occupancy
  V  V0  1  0.20211979  -0.05186699  0.79499085  1
  V  V1  1  0.87443563  0.75549571  0.62595543  1
  V  V2  1  0.88894727  0.89814487  0.48937167  1
  V  V3  1  0.25004068  0.50116290  0.74788290  1
  V  V4  1  0.37298603  0.13648484  0.23684562  1
  V  V5  1  0.49983745  0.86349959  0.87234267  1
  V  V6  1  0.38463267  0.14112915  0.74318516  1
  V  V7  1  -0.02128916  0.24720685  0.74747667  1
  V  V8  1  0.24975840  0.24762808  0.52030897  1
  V  V9  1  0.00550885  0.49573239  0.00975520  1
  V  V10  1  0.37005031  0.86970220  -0.00360076  1
  V  V11  1  0.52265939  0.52265102  0.50880805  1
  V  V12  1  0.75519860  0.25093224  0.48675260  1
  V  V13  1  0.76640343  0.10779898  0.88117415  1
  V  V14  1  0.11245823  0.11992941  0.50344153  1
  V  V15  1  0.50155956  0.36300939  0.87468558  1
  V  V16  1  -0.00673757  -0.00808573  -0.01259161  1
  V  V17  1  0.25585127  0.00432768  0.24376160  1
  V  V18  1  0.62638850  0.50991189  0.11069549  1
  V  V19  1  0.50534033  0.12426163  0.12033186  1
  V  V20  1  0.26367461  0.26385748  0.00862546  1
  V  V21  1  0.23527068  0.73956875  -0.00418499  1
  V  V22  1  0.75191876  0.61750680  0.38503178  1
  V  V23  1  0.21992914  0.62447597  0.87083941  1
  V  V24  1  0.50052960  0.25366771  0.24020047  1
  V  V25  1  0.49999881  0.73052176  0.24410058  1
  V  V26  1  0.73850234  0.87413608  0.60600837  1
  V  V27  1  0.62469227  0.38589830  0.24889666  1
  V  V28  1  0.63199452  0.75026057  0.38177944  1
  V  V29  1  0.72355203  0.88631756  0.12780161  1
  V  V30  1  0.00839397  0.62342584  0.12476505  1
  V  V31  1  0.12245935  0.12487309  0.00126650  1
  V  V32  1  0.76237912  0.00334518  0.74782805  1
  V  V33  1  0.88720337  0.11368449  0.26535176  1
  V  V34  1  0.50556559  0.87903131  0.36465731  1
  V  V35  1  0.37370211  0.73704155  0.62098084  1
  V  V36  1  0.49504479  0.50065776  -0.01086194  1
  V  V37  1  0.26762737  0.50094483  0.23863467  1
  V  V38  1  0.63098063  0.22958152  0.36658171  1
  V  V39  1  0.25188371  0.88254187  0.61666287  1
  V  V40  1  0.62705375  0.12186663  -0.00592091  1
  V  V41  1  0.87309645  0.76511572  0.12469997  1
  V  V42  1  0.11791664  0.00418059  0.12387312  1
  V  V43  1  0.25146296  0.12435823  0.37424259  1
  V  V44  1  0.37898823  0.36594614  0.51898057  1
  V  V45  1  0.12315219  0.37607168  0.74232095  1
  V  V46  1  0.86987855  0.61963278  0.25638333  1
  V  V47  1  0.11645027  -0.00258896  0.62321659  1
  V  V48  1  0.37780509  0.87739809  0.49932143  1
  V  V49  1  0.88630276  0.23410805  0.13160973  1
  V  V50  1  0.25034147  0.87247838  0.11983268  1
  V  V51  1  0.00814193  0.52309236  0.48904741  1
  V  V52  1  0.50579400  -0.00417423  0.00277723  1
  V  V53  1  0.76015094  0.37849623  0.13061770  1
  V  V54  1  0.75284420  0.25447852  0.00004429  1
  V  V55  1  -0.01891353  0.37409623  0.88149787  1
  V  V56  1  0.74308071  0.74550154  0.00296664  1
  V  V57  1  0.62093254  0.88098473  0.75027737  1
  V  V58  1  0.37656871  -0.00093818  0.86533416  1
  V  V59  1  0.12200625  0.24642910  0.36672188  1
  V  V60  1  0.12939472  0.38693724  0.24018897  1
  V  V61  1  0.12422690  0.52494845  0.61585048  1
  V  V62  1  0.13484026  0.87124196  0.28398409  1
  V  V63  1  0.00134843  0.75995686  0.26284850  1
  V  V64  1  0.38085919  0.61936615  0.77474103  1
  V  V65  1  0.86630725  0.52539701  0.87769662  1
  V  V66  1  0.23782075  0.61222157  0.38337282  1
  V  V67  1  0.50039038  0.02313563  0.50426215  1
  V  V68  1  0.12406575  0.25730358  0.87779507  1
  V  V69  1  0.00185975  0.37336863  0.38082759  1
  V  V70  1  0.63792524  0.39213663  0.73709556  1
  V  V71  1  0.25011812  0.12879695  0.86952308  1
  V  V72  1  0.73660694  0.00575550  0.25647358  1
  Zn  Zn73  1  0.55310998  0.23656625  0.76259097  1
  Zn  Zn74  1  0.62809126  0.74437555  0.88010491  1
  Zn  Zn75  1  0.86637964  0.26523100  0.61132112  1
  Zn  Zn76  1  0.37615142  0.00487298  0.37459132  1
  Zn  Zn77  1  0.61744007  0.02649635  0.62505421  1
  Zn  Zn78  1  0.51505697  0.73512187  0.73933548  1
  Zn  Zn79  1  0.36359614  0.71357321  0.14991619  1
  Zn  Zn80  1  0.49044393  0.37922359  0.38195974  1
  Zn  Zn81  1  0.84090282  0.43599451  0.43671723  1
  Zn  Zn82  1  0.18378656  0.19314568  0.18379666  1
  Zn  Zn83  1  0.17343164  0.18230097  0.69377621  1
  Zn  Zn84  1  0.18890155  0.68491660  0.19840674  1
  Zn  Zn85  1  0.18987593  0.70470223  0.54520316  1
  Zn  Zn86  1  0.69080104  0.18405390  0.18452858  1
  Zn  Zn87  1  0.72057922  0.19729071  0.67025214  1
  Zn  Zn88  1  0.68542292  0.69283036  0.19688484  1
  Zn  Zn89  1  0.71987436  0.69866855  0.70526796  1
  Zn  Zn90  1  0.31123041  0.31836479  0.31482356  1
  Zn  Zn91  1  0.31235389  0.31831235  0.81440020  1
  Zn  Zn92  1  0.31453245  0.81441654  0.31463016  1
  Zn  Zn93  1  0.31298700  0.79872720  0.81152541  1
  Zn  Zn94  1  0.81414359  0.30747809  0.31021442  1
  Zn  Zn95  1  0.76849921  0.29047150  0.79916896  1
  Zn  Zn96  1  0.81192222  0.82583289  0.31218418  1
  Zn  Zn97  1  0.79877601  0.80816765  0.80743497  1
  Zn  Zn98  1  0.19213912  0.43129450  0.43772608  1
  Zn  Zn99  1  0.18556352  0.44020105  0.94170226  1
  Zn  Zn100  1  0.14010099  0.88795298  0.45774470  1
  Zn  Zn101  1  0.13873830  0.89442317  0.96266430  1
  Zn  Zn102  1  0.67206913  0.43472375  0.44109599  1
  Zn  Zn103  1  0.68485252  0.43442607  0.92670229  1
  Zn  Zn104  1  0.67571877  0.95603344  0.43234505  1
  Zn  Zn105  1  0.69174178  0.92928112  0.94093926  1
  Zn  Zn106  1  0.31366716  0.06454756  0.05573736  1
  Zn  Zn107  1  0.31297157  0.06235036  0.56531503  1
  Zn  Zn108  1  0.30820793  0.54957000  0.05427611  1
  Zn  Zn109  1  0.31408622  0.54785242  0.55732208  1
  Zn  Zn110  1  0.81764629  0.05642892  0.07056886  1
  Zn  Zn111  1  0.81138117  0.07832696  0.56282848  1
  Zn  Zn112  1  0.82188517  0.56400281  0.06382960  1
  Zn  Zn113  1  0.83518449  0.58313307  0.55245518  1
  Zn  Zn114  1  0.43948773  0.44052654  0.17144165  1
  Zn  Zn115  1  0.45494720  0.42447784  0.68245283  1
  Zn  Zn116  1  0.43395684  0.93692882  0.18186485  1
  Zn  Zn117  1  0.44021224  0.94118974  0.68341141  1
  Zn  Zn118  1  0.94061453  0.43418112  0.19889758  1
  Zn  Zn119  1  0.83999549  0.43778892  0.70348722  1
  Zn  Zn120  1  0.93905886  0.94264561  0.19897969  1
  Zn  Zn121  1  0.93493277  0.91734326  0.68898390  1
  Zn  Zn122  1  0.06726334  0.04249605  0.32362801  1
  Zn  Zn123  1  0.05498309  0.06686994  0.81269234  1
  Zn  Zn124  1  0.06810227  0.56700942  0.30831358  1
  Zn  Zn125  1  0.05331811  0.54885059  0.81071470  1
  Zn  Zn126  1  0.55623325  0.05956649  0.30775710  1
  Zn  Zn127  1  0.56177533  0.06070801  0.81672435  1
  Zn  Zn128  1  0.56102085  0.55987835  0.32527080  1
  Zn  Zn129  1  0.56244604  0.55307808  0.81410536  1
  Zn  Zn130  1  0.42593711  0.21175855  0.42491853  1
  Zn  Zn131  1  0.44064008  0.18920957  0.93100945  1
  Zn  Zn132  1  0.44150316  0.69341148  0.43893756  1
  Zn  Zn133  1  0.42242146  0.66500383  0.97871718  1
  Zn  Zn134  1  0.93495941  0.18853983  0.43497681  1
  Zn  Zn135  1  0.93672673  0.18506705  0.94490147  1
  Zn  Zn136  1  0.92901684  0.70642820  0.44180146  1
  Zn  Zn137  1  0.93620295  0.69248119  0.94757854  1
  Zn  Zn138  1  0.06587567  0.31277217  0.06307387  1
  Zn  Zn139  1  -0.00647749  0.38049655  0.60356031  1
  Zn  Zn140  1  0.05641730  0.81327873  0.07883333  1
  Zn  Zn141  1  0.04447702  0.81548860  0.57593113  1
  Zn  Zn142  1  0.56803104  0.31396543  0.06104808  1
  Zn  Zn143  1  0.57501046  0.29836981  0.56228685  1
  Zn  Zn144  1  0.55899857  0.80489482  0.06424020  1
  Zn  Zn145  1  0.55638375  0.81436059  0.56146303  1
  O  O146  1  0.13114768  0.11187860  0.11757669  1
  O  O147  1  0.12646833  0.11161722  0.61355472  1
  O  O148  1  0.10646013  0.62917708  0.13799178  1
  O  O149  1  0.12632688  0.62379210  0.61394075  1
  O  O150  1  0.61212563  0.12090020  0.11463349  1
  O  O151  1  0.62215010  0.14857532  0.62189781  1
  O  O152  1  0.64202951  0.60638745  0.13218892  1
  O  O153  1  0.70183437  0.58816985  0.64775748  1
  O  O154  1  0.38634274  0.33187226  0.39662839  1
  O  O155  1  0.40033982  0.36871317  0.86534624  1
  O  O156  1  0.38339949  0.87902531  0.38366493  1
  O  O157  1  0.37962319  0.87901024  0.87590581  1
  O  O158  1  0.89939136  0.37597586  0.35328161  1
  O  O159  1  0.88446571  0.37329923  0.88254131  1
  O  O160  1  0.87313871  0.87940318  0.39036705  1
  O  O161  1  0.94518044  0.82228972  0.84335663  1
  O  O162  1  0.25070323  0.01204946  0.35514074  1
  O  O163  1  0.25636873  0.00562893  0.86583035  1
  O  O164  1  0.24835646  0.50784585  0.36895282  1
  O  O165  1  0.23484781  0.51584213  0.86827298  1
  O  O166  1  0.74584311  -0.00368958  0.35627180  1
  O  O167  1  0.75212506  -0.00006019  0.86951082  1
  O  O168  1  0.75262643  0.51564047  0.38367871  1
  O  O169  1  0.77041672  0.50120566  0.89574911  1
  O  O170  1  0.25258795  0.50114977  0.13854694  1
  O  O171  1  0.23547555  0.50635947  0.63674248  1
  O  O172  1  0.24711559  0.99524403  0.12707328  1
  O  O173  1  0.24387127  0.99014902  0.62888745  1
  O  O174  1  0.74956087  0.48277571  0.11526886  1
  O  O175  1  0.76102826  0.53961100  0.63523740  1
  O  O176  1  0.74319791  0.98888797  0.12440296  1
  O  O177  1  0.73656708  1.00194688  0.63927521  1
  O  O178  1  0.02124468  0.38484510  0.26414940  1
  O  O179  1  0.00658380  0.36469151  0.77334677  1
  O  O180  1  0.01410098  0.86579305  0.24425116  1
  O  O181  1  -0.01706507  0.87400659  0.79730948  1
  O  O182  1  0.51262183  0.36748992  0.23812285  1
  O  O183  1  0.51604989  0.36070023  0.75672158  1
  O  O184  1  0.49506293  0.88630895  0.26410406  1
  O  O185  1  0.50543573  0.87539132  0.75744953  1
  O  O186  1  0.49167154  0.12996295  0.23780780  1
  O  O187  1  0.49057903  0.13486506  0.76297641  1
  O  O188  1  0.49559983  0.63165468  0.26184953  1
  O  O189  1  0.48528076  0.62269008  0.76096148  1
  O  O190  1  0.98961539  0.10019095  0.26453852  1
  O  O191  1  0.99985169  0.14810828  0.75947062  1
  O  O192  1  0.99332829  0.63856299  0.24700633  1
  O  O193  1  0.99172089  0.63930304  0.74964146  1
  O  O194  1  0.36059178  0.24180543  -0.00799402  1
  O  O195  1  0.35465411  0.23954288  0.51576531  1
  O  O196  1  0.36041078  0.76442403  -0.00980608  1
  O  O197  1  0.38147910  0.76454874  0.51259829  1
  O  O198  1  0.86110780  0.23720970  0.01693317  1
  O  O199  1  0.86383321  0.25601034  0.48957164  1
  O  O200  1  0.86851133  0.75392364  0.02060589  1
  O  O201  1  0.87981462  0.77938827  0.51521045  1
  O  O202  1  0.13700986  0.22767099  0.48822790  1
  O  O203  1  0.13085182  0.24315580  0.99438260  1
  O  O204  1  0.12047288  0.78302934  0.50411925  1
  O  O205  1  0.13678191  0.76064943  1.00349151  1
  O  O206  1  0.63032561  0.26121756  0.46698988  1
  O  O207  1  0.64513662  0.23415425  1.01280087  1
  O  O208  1  0.61416692  0.75354812  0.48089948  1
  O  O209  1  0.63627071  0.74894372  1.00016863  1
  O  O210  1  0.50707271  0.23893936  0.12968581  1
  O  O211  1  0.55723498  0.19929727  0.63051057  1
  O  O212  1  0.50319415  0.74324870  0.14110305  1
  O  O213  1  0.48015921  0.75873532  0.63114879  1
  O  O214  1  0.98287403  0.25615416  0.11774886  1
  O  O215  1  0.98829451  0.26127652  0.64636992  1
  O  O216  1  0.98849258  0.74048690  0.13182864  1
  O  O217  1  0.96652622  0.80087242  0.65452620  1
  O  O218  1  0.01177458  0.26109089  0.38058616  1
  O  O219  1  0.00533531  0.26036420  0.88519691  1
  O  O220  1  -0.00053142  0.75431458  0.36099699  1
  O  O221  1  -0.00422852  0.76893429  0.88014619  1
  O  O222  1  0.51410001  0.24888417  0.35181729  1
  O  O223  1  0.51577870  0.25634377  0.87850237  1
  O  O224  1  0.50340209  0.76390774  0.36509990  1
  O  O225  1  0.50231805  0.76037057  0.87411393  1
  O  O226  1  0.24679045  0.12569507  0.49029126  1
  O  O227  1  0.24099118  0.12671528  0.98682262  1
  O  O228  1  0.24553878  0.61788253  0.49062854  1
  O  O229  1  0.23960190  0.63155694  0.98609226  1
  O  O230  1  0.74709650  0.14869806  0.49210047  1
  O  O231  1  0.74458670  0.11459843  0.99501798  1
  O  O232  1  0.76221577  0.63796341  0.48239475  1
  O  O233  1  0.75749409  0.64689568  1.01451689  1
  O  O234  1  0.24937359  0.36388048  -0.00524138  1
  O  O235  1  0.25431449  0.35124682  0.49733969  1
  O  O236  1  0.25144965  0.86551445  0.00218817  1
  O  O237  1  0.26034685  0.88472345  0.51132322  1
  O  O238  1  0.74676322  0.35830374  0.00965318  1
  O  O239  1  0.75779134  0.36259268  0.44389707  1
  O  O240  1  0.74621361  0.86712446  0.02205555  1
  O  O241  1  0.73535398  0.89021646  0.50785708  1
  O  O242  1  0.13451072  0.49107231  0.24862290  1
  O  O243  1  0.12506542  0.49903489  0.73585553  1
  O  O244  1  0.13831887  0.99218434  0.23443065  1
  O  O245  1  0.13616137  1.01246460  0.74337733  1
  O  O246  1  0.61656937  0.48911453  0.23937668  1
  O  O247  1  0.61790196  0.49202098  0.73722026  1
  O  O248  1  0.63577969  1.00889031  0.24442612  1
  O  O249  1  0.62327743  0.99279492  0.74677053  1
  O  O250  1  0.36717269  0.01133465  0.24653319  1
  O  O251  1  0.38541025  0.00937088  0.76265460  1
  O  O252  1  0.36801508  0.48895352  0.24763043  1
  O  O253  1  0.36327993  0.51599943  0.74287239  1
  O  O254  1  0.86350043  0.00925129  0.24593461  1
  O  O255  1  0.86044575  -0.00676261  0.74332448  1
  O  O256  1  0.88367572  0.52066103  0.25379378  1
  O  O257  1  0.88463859  0.50722062  0.77735111  1
  O  O258  1  0.12177300  0.36322476  0.37081008  1
  O  O259  1  0.11995050  0.36733918  0.87278747  1
  O  O260  1  0.19253195  0.83173198  0.35726967  1
  O  O261  1  0.14575956  0.88843477  0.85050454  1
  O  O262  1  0.61807240  0.37421052  0.35221810  1
  O  O263  1  0.62259779  0.37625228  0.85356732  1
  O  O264  1  0.60982345  0.87063032  0.37694118  1
  O  O265  1  0.61508766  0.87576167  0.86792480  1
  O  O266  1  0.38457694  0.12232921  0.12906762  1
  O  O267  1  0.36951614  0.11896652  0.64703811  1
  O  O268  1  0.37964628  0.63194837  0.08108156  1
  O  O269  1  0.36585585  0.63749417  0.61461580  1
  O  O270  1  0.88302091  0.13006588  0.13152027  1
  O  O271  1  0.82581620  0.16012510  0.63999751  1
  O  O272  1  0.88062387  0.63717428  0.14223397  1
  O  O273  1  0.89650464  0.65845731  0.61031581  1
  O  O274  1  0.24792292  0.24403730  0.10677104  1
  O  O275  1  0.23284572  0.24425316  0.61771136  1
  O  O276  1  0.25006972  0.75344457  0.11540879  1
  O  O277  1  0.26474749  0.76774012  0.62236075  1
  O  O278  1  0.76091926  0.25612308  0.11999711  1
  O  O279  1  0.73558067  0.28206496  0.58171789  1
  O  O280  1  0.75763134  0.76401386  0.12796824  1
  O  O281  1  0.74685713  0.76937283  0.61131035  1
  O  O282  1  0.24093400  0.23404148  0.37355870  1
  O  O283  1  0.24092140  0.24679662  0.88310211  1
  O  O284  1  0.29212821  0.71382602  0.37515517  1
  O  O285  1  0.24504166  0.73841465  0.88473238  1
  O  O286  1  0.73502902  0.23931035  0.35837043  1
  O  O287  1  0.75782067  0.23001845  0.89709213  1
  O  O288  1  0.73322472  0.75786706  0.36730455  1
  O  O289  1  0.75487190  0.76672902  0.89976849  1
  O  O290  1  0.01595551  0.11297587  -0.00411900  1
  O  O291  1  0.01419464  0.12501808  0.49277624  1
  O  O292  1  -0.00028504  0.62363874  0.01938980  1
  O  O293  1  0.00751823  0.62214402  0.47969128  1
  O  O294  1  0.50580769  0.11684018  0.00178362  1
  O  O295  1  0.48246502  0.11936161  0.48523055  1
  O  O296  1  0.51493299  0.60093925  -0.02688442  1
  O  O297  1  0.50625038  0.62303183  0.49837589  1
  O  O298  1  0.48586284  0.35254365  0.50753575  1
  O  O299  1  0.51762866  0.37970255  0.98378277  1
  O  O300  1  0.49097883  0.88528452  0.49120466  1
  O  O301  1  0.49027808  0.87654484  0.99448016  1
  O  O302  1  1.00125135  0.38400823  0.48274880  1
  O  O303  1  1.00236553  0.38551723  0.99492796  1
  O  O304  1  0.98892000  0.89653362  0.50427552  1
  O  O305  1  1.02394413  0.88963443  0.99805920  1
  O  O306  1  0.50764484  0.49232477  0.40279810  1
  O  O307  1  0.50736534  0.48103678  0.88128107  1
  O  O308  1  0.49779330  0.99232715  0.38331717  1
  O  O309  1  0.49240936  0.98942745  0.88457221  1
  O  O310  1  1.01975199  0.49218751  0.38474599  1
  O  O311  1  0.99214764  0.48953707  0.88677025  1
  O  O312  1  1.08699688  0.93201777  0.35877039  1
  O  O313  1  1.00144411  1.00187058  0.88730483  1
  O  O314  1  0.01722313  -0.00530638  0.12315081  1
  O  O315  1  0.01989534  -0.01527965  0.64514085  1
  O  O316  1  -0.00788533  0.50990243  0.11949201  1
  O  O317  1  0.01711672  0.50496342  0.60439963  1
  O  O318  1  0.49062307  0.00674440  0.10937360  1
  O  O319  1  0.49842043  0.00787798  0.61030859  1
  O  O320  1  0.51879116  0.49737210  0.10632940  1
  O  O321  1  0.48344239  0.49878113  0.60064902  1
  O  O322  1  0.24074765  0.38778304  0.25922985  1
  O  O323  1  0.23739771  0.39151294  0.76201514  1
  O  O324  1  0.24718252  0.88414275  0.23659911  1
  O  O325  1  0.26242228  0.88066224  0.74208040  1
  O  O326  1  0.73754353  0.37058554  0.23811864  1
  O  O327  1  0.74589224  0.39262129  0.74969572  1
  O  O328  1  0.75311188  0.88851676  0.23428557  1
  O  O329  1  0.73928224  0.88968993  0.74876643  1
  O  O330  1  0.25525466  0.12251024  0.24855173  1
  O  O331  1  0.25700232  0.13370130  0.76471576  1
  O  O332  1  0.25244232  0.60963283  0.25685881  1
  O  O333  1  0.25635428  0.61988655  0.76752029  1
  O  O334  1  0.76021710  0.11017091  0.23732276  1
  O  O335  1  0.74536436  0.10922504  0.77288413  1
  O  O336  1  0.76514496  0.63315344  0.25900564  1
  O  O337  1  0.71391107  0.62376343  0.80121805  1
  O  O338  1  0.36528219  0.12682234  0.35818778  1
  O  O339  1  0.36779931  0.11728952  0.86961095  1
  O  O340  1  0.35249556  0.65286053  0.37214692  1
  O  O341  1  0.37043208  0.62535439  0.87357726  1
  O  O342  1  0.87130736  0.12675526  0.36290751  1
  O  O343  1  0.86494957  0.11538879  0.88522898  1
  O  O344  1  0.86465484  0.64142442  0.36563654  1
  O  O345  1  0.87667711  0.62694455  0.87912875  1
  O  O346  1  0.12400679  0.37000916  0.14167333  1
  O  O347  1  0.10933737  0.37647647  0.64279162  1
  O  O348  1  0.13948060  0.88765755  0.12098092  1
  O  O349  1  0.14152833  0.88731547  0.62958378  1
  O  O350  1  0.63755480  0.38193730  0.13091307  1
  O  O351  1  0.61644400  0.36947290  0.64001854  1
  O  O352  1  0.62468190  0.87591585  0.12947068  1
  O  O353  1  0.62815034  0.87781615  0.63313559  1
  O  O354  1  0.13121882  0.25827108  0.26098975  1
  O  O355  1  0.11787389  0.25724123  0.76383031  1
  O  O356  1  0.11495129  0.76644448  0.24373317  1
  O  O357  1  0.03857795  0.69283120  0.72975058  1
  O  O358  1  0.61974232  0.25457156  0.24859427  1
  O  O359  1  0.66453896  0.25863092  0.74949826  1
  O  O360  1  0.60751418  0.74942897  0.26236318  1
  O  O361  1  0.62977839  0.76447829  0.75433526  1
  O  O362  1  0.38347302  0.24340513  0.24861164  1
  O  O363  1  0.37102805  0.24037968  0.75170951  1
  O  O364  1  0.39274819  0.76191538  0.24626133  1
  O  O365  1  0.37180718  0.72851456  0.74085035  1
  O  O366  1  0.87346931  0.23092360  0.24001928  1
  O  O367  1  0.87983774  0.25907009  0.76700050  1
  O  O368  1  0.88727271  0.75295772  0.24484181  1
  O  O369  1  0.83396549  0.74028992  0.72706210  1
  O  O370  1  0.36420511  0.46597498  0.49638352  1
  O  O371  1  0.39537076  0.49263339  0.99975938  1
  O  O372  1  0.38276231  0.99506428  0.49724929  1
  O  O373  1  0.37839668  0.99018323  0.98598981  1
  O  O374  1  0.90076034  0.50850892  0.49723606  1
  O  O375  1  0.89455615  0.50938389  0.99184818  1
  O  O376  1  0.86258871  0.99674989  0.50611250  1
  O  O377  1  0.89630901  0.99684729  1.01057610  1
  O  O378  1  0.12480977  0.00672770  0.01048359  1
  O  O379  1  0.12489213  0.00468272  0.51426519  1
  O  O380  1  0.10535505  0.50378900  -0.00317824  1
  O  O381  1  0.12548688  0.49688563  0.51059531  1
  O  O382  1  0.61137140  0.00177369  -0.00522341  1
  O  O383  1  0.60536345  0.01147431  0.50166195  1
  O  O384  1  0.63069611  0.49830166  0.00854535  1
  O  O385  1  0.62305680  0.50305536  0.51469457  1
  O  O386  1  0.39124654  0.36328642  0.10758758  1
  O  O387  1  0.37495927  0.36467934  0.62022571  1
  O  O388  1  0.36218867  0.87879184  0.11067446  1
  O  O389  1  0.36726642  0.87829403  0.61851935  1
  O  O390  1  0.86355166  0.36606448  0.14156019  1
  O  O391  1  0.88056746  0.38047461  0.61901797  1
  O  O392  1  0.88334721  0.86472011  0.13126956  1
  O  O393  1  0.84709746  0.88286894  0.61535162  1
  O  O394  1  0.13059470  0.12218086  0.38203401  1
  O  O395  1  0.13138684  0.13567603  0.88062345  1
  O  O396  1  0.14110295  0.63554035  0.36738808  1
  O  O397  1  0.12146429  0.62972588  0.86310109  1
  O  O398  1  0.61984152  0.13102116  0.37046952  1
  O  O399  1  0.63273285  0.11952029  0.88972135  1
  O  O400  1  0.64181197  0.63618544  0.36909481  1
  O  O401  1  0.64941005  0.62874073  0.84813524  1
