# generated using pymatgen
data_V73Zn73O256
_symmetry_space_group_name_H-M   'P 1'
_cell_length_a   16.99231892
_cell_length_b   16.95858552
_cell_length_c   17.02971471
_cell_angle_alpha   89.75555382
_cell_angle_beta   89.92056573
_cell_angle_gamma   89.83287574
_symmetry_Int_Tables_number   1
_chemical_formula_structural   V73Zn73O256
_chemical_formula_sum   'V73 Zn73 O256'
_cell_volume   4907.30938055
_cell_formula_units_Z   1
loop_
 _symmetry_equiv_pos_site_id
 _symmetry_equiv_pos_as_xyz
  1  'x, y, z'
loop_
 _atom_site_type_symbol
 _atom_site_label
 _atom_site_symmetry_multiplicity
 _atom_site_fract_x
 _atom_site_fract_y
 _atom_site_fract_z
 _atom_site_occupancy
  V  V0  1  0.75314377  0.63160532  0.36095106  1
  V  V1  1  0.62749327  -0.00251041  0.12238936  1
  V  V2  1  0.62130233  0.59701671  0.00607290  1
  V  V3  1  0.87481963  0.12283734  0.25079438  1
  V  V4  1  0.49009697  -0.00860203  -0.00805298  1
  V  V5  1  0.87227063  0.62949755  0.74265766  1
  V  V6  1  -0.00136283  0.74160144  0.24445192  1
  V  V7  1  0.74729508  0.25785021  0.00262608  1
  V  V8  1  0.25936173  0.50127475  0.75557391  1
  V  V9  1  0.12318117  0.88269282  0.23682142  1
  V  V10  1  0.53103539  0.48002637  0.51644179  1
  V  V11  1  0.47810929  -0.00627125  0.49484292  1
  V  V12  1  0.88090039  0.51101827  0.36737879  1
  V  V13  1  0.24498470  0.12370902  0.38370823  1
  V  V14  1  0.12306495  0.37299552  0.24970514  1
  V  V15  1  0.62085302  0.87067987  0.25323705  1
  V  V16  1  0.84662296  0.87596498  0.00855050  1
  V  V17  1  0.00634529  -0.00945591  0.00048134  1
  V  V18  1  -0.00060934  0.25491497  0.25119110  1
  V  V19  1  0.27656519  0.73337808  0.47339968  1
  V  V20  1  0.13182213  0.73917100  0.37227590  1
  V  V21  1  0.87580018  -0.00327072  0.37668760  1
  V  V22  1  0.49058290  0.61631896  0.12479989  1
  V  V23  1  0.60482185  0.87841757  0.74680521  1
  V  V24  1  0.25768369  0.88097971  0.10636589  1
  V  V25  1  0.88558011  0.12446641  0.74311406  1
  V  V26  1  0.24885413  0.00060837  0.24528053  1
  V  V27  1  -0.02401413  0.78734634  0.73997815  1
  V  V28  1  0.01460389  0.00281223  0.50561586  1
  V  V29  1  0.00153754  0.11726972  0.12737789  1
  V  V30  1  -0.00238722  0.62809267  0.10469630  1
  V  V31  1  0.21877301  0.71905390  0.00360232  1
  V  V32  1  0.37541711  0.24934704  0.13059865  1
  V  V33  1  0.11698211  0.50596308  0.11357896  1
  V  V34  1  0.63673413  0.62754407  0.51404485  1
  V  V35  1  0.00066883  0.38288461  0.39503812  1
  V  V36  1  0.75088644  -0.00794429  0.24461724  1
  V  V37  1  0.24615410  0.24368714  0.00088059  1
  V  V38  1  0.87007197  0.26078520  0.12333718  1
  V  V39  1  0.12694393  0.24755304  0.38900876  1
  V  V40  1  0.00378418  0.87251308  0.37497735  1
  V  V41  1  0.28794921  0.07594145  0.80914630  1
  V  V42  1  0.63391666  0.35779353  0.73914298  1
  V  V43  1  0.38496483  0.37458434  -0.00261444  1
  V  V44  1  0.76301609  0.25766981  0.52012706  1
  V  V45  1  -0.00387905  0.36202638  0.89750035  1
  V  V46  1  0.50036496  0.12241940  0.12337523  1
  V  V47  1  0.74977918  0.86890324  0.61840909  1
  V  V48  1  0.24804715  0.51629393  0.25398714  1
  V  V49  1  0.49360482  0.13579370  0.63489910  1
  V  V50  1  0.24921950  0.82303063  0.65026481  1
  V  V51  1  0.09397803  0.75606759  0.86723463  1
  V  V52  1  0.51393827  0.35776378  0.86841490  1
  V  V53  1  0.48788909  0.74666976  0.24458035  1
  V  V54  1  0.36272874  0.37264551  0.49123971  1
  V  V55  1  0.74578775  0.12999979  0.37892433  1
  V  V56  1  0.74902508  0.00130337  0.74919374  1
  V  V57  1  0.36707581  0.26084788  0.62698001  1
  V  V58  1  0.49132734  0.72057135  0.74076410  1
  V  V59  1  0.51129100  0.24701539  0.26739059  1
  V  V60  1  0.62357642  0.75987671  0.88331727  1
  V  V61  1  0.74373236  0.61617472  0.87734856  1
  V  V62  1  0.12319259  0.12517367  0.00541789  1
  V  V63  1  0.12723907  0.37425352  0.74580560  1
  V  V64  1  0.74168415  0.49590692  0.73395298  1
  V  V65  1  0.87058564  0.86129985  0.49900306  1
  V  V66  1  0.74552305  0.12772043  0.87881760  1
  V  V67  1  0.87842363  -0.00680506  0.87733232  1
  V  V68  1  -0.00415516  0.24853644  0.73728003  1
  V  V69  1  0.61900845  0.00681063  0.61941706  1
  V  V70  1  0.40237752  0.48569905  0.35372816  1
  V  V71  1  0.37230032  0.11668556  0.25432029  1
  V  V72  1  0.24896822  0.37793483  0.12504662  1
  Zn  Zn73  1  0.07310536  0.59503824  0.57563434  1
  Zn  Zn74  1  0.63064115  0.75935919  0.38817174  1
  Zn  Zn75  1  0.12941545  0.24777488  0.87006208  1
  Zn  Zn76  1  0.61826917  0.13026796  -0.00892827  1
  Zn  Zn77  1  0.70069748  0.43876714  0.14906335  1
  Zn  Zn78  1  0.85224673  0.76076546  0.13322134  1
  Zn  Zn79  1  0.38083180  0.49758025  0.86865890  1
  Zn  Zn80  1  -0.05362463  0.51886601  -0.04259175  1
  Zn  Zn81  1  0.61107429  0.13000871  0.48607488  1
  Zn  Zn82  1  0.18595617  0.18705595  0.18722302  1
  Zn  Zn83  1  0.18827235  0.21269634  0.67996462  1
  Zn  Zn84  1  0.18589905  0.69270910  0.17903828  1
  Zn  Zn85  1  0.16518215  0.68570741  0.71964250  1
  Zn  Zn86  1  0.68781109  0.18531883  0.18889053  1
  Zn  Zn87  1  0.69289991  0.18447198  0.68388421  1
  Zn  Zn88  1  0.68277171  0.67976325  0.18157596  1
  Zn  Zn89  1  0.68127507  0.69043150  0.69320953  1
  Zn  Zn90  1  0.31004471  0.30906941  0.31113940  1
  Zn  Zn91  1  0.31556491  0.30199906  0.81488672  1
  Zn  Zn92  1  0.30939707  0.81360597  0.30574191  1
  Zn  Zn93  1  0.30730700  0.68742160  0.82762909  1
  Zn  Zn94  1  0.82341022  0.31470008  0.32764127  1
  Zn  Zn95  1  0.81354895  0.31140198  0.81671975  1
  Zn  Zn96  1  0.81450160  0.80833148  0.31398747  1
  Zn  Zn97  1  0.80253146  0.81351158  0.81629019  1
  Zn  Zn98  1  0.18006063  0.56000673  0.43750639  1
  Zn  Zn99  1  0.18348250  0.43344466  0.93105390  1
  Zn  Zn100  1  0.19016540  0.93212627  0.42904429  1
  Zn  Zn101  1  0.18759316  0.93855476  0.91617099  1
  Zn  Zn102  1  0.71834668  0.45251449  0.46334638  1
  Zn  Zn103  1  0.69190938  0.43160909  0.93209375  1
  Zn  Zn104  1  0.68391831  0.94217696  0.43679443  1
  Zn  Zn105  1  0.67584572  0.94539473  0.93355914  1
  Zn  Zn106  1  0.31283927  0.05983584  0.06362429  1
  Zn  Zn107  1  0.30737271  0.07171714  0.57349240  1
  Zn  Zn108  1  0.34034378  0.58479910  0.01334102  1
  Zn  Zn109  1  0.29017886  0.57816913  0.59629725  1
  Zn  Zn110  1  0.81359556  0.06461325  0.06159384  1
  Zn  Zn111  1  0.81828627  0.05764586  0.56127058  1
  Zn  Zn112  1  0.79982746  0.59765950  0.07592906  1
  Zn  Zn113  1  0.81834854  0.56604271  0.56067433  1
  Zn  Zn114  1  0.53379044  0.43773628  0.21319294  1
  Zn  Zn115  1  0.44392110  0.42542887  0.68725135  1
  Zn  Zn116  1  0.43707625  0.93348545  0.18160895  1
  Zn  Zn117  1  0.41489578  0.95191096  0.68617159  1
  Zn  Zn118  1  0.88783323  0.47693634  0.14451336  1
  Zn  Zn119  1  0.93310801  0.45108586  0.78299155  1
  Zn  Zn120  1  0.93507710  0.93420109  0.18383764  1
  Zn  Zn121  1  0.93249291  0.94618092  0.67766084  1
  Zn  Zn122  1  0.06405064  0.06200611  0.31606538  1
  Zn  Zn123  1  0.07868104  0.06065041  0.82640615  1
  Zn  Zn124  1  0.05853012  0.55575020  0.30466067  1
  Zn  Zn125  1  0.07228858  0.57004692  0.79554403  1
  Zn  Zn126  1  0.55840466  0.05668197  0.31390464  1
  Zn  Zn127  1  0.55778460  0.06718036  0.81149808  1
  Zn  Zn128  1  0.53857809  0.60500021  0.34804567  1
  Zn  Zn129  1  0.56335858  0.54286371  0.81642651  1
  Zn  Zn130  1  0.43191726  0.17956857  0.44402229  1
  Zn  Zn131  1  0.42712984  0.17765505  0.93067505  1
  Zn  Zn132  1  0.41853687  0.62705344  0.49058539  1
  Zn  Zn133  1  0.46606845  0.66510461  0.91382677  1
  Zn  Zn134  1  0.94386021  0.18802281  0.44562142  1
  Zn  Zn135  1  0.93139960  0.18076636  0.93959755  1
  Zn  Zn136  1  0.93015053  0.65366357  0.47065389  1
  Zn  Zn137  1  0.91908205  0.69826239  0.93557638  1
  Zn  Zn138  1  0.05906062  0.31043305  0.07063543  1
  Zn  Zn139  1  0.17747449  0.43080047  0.57119697  1
  Zn  Zn140  1  0.06587392  0.81247893  0.05961232  1
  Zn  Zn141  1  0.06500209  0.78493921  0.55992778  1
  Zn  Zn142  1  0.56591005  0.31291682  0.07002611  1
  Zn  Zn143  1  0.58276719  0.30130952  0.55434803  1
  Zn  Zn144  1  0.56161250  0.81473588  0.06863890  1
  Zn  Zn145  1  0.53461339  0.79917823  0.55338815  1
  O  O146  1  0.10934355  0.12809229  0.12149457  1
  O  O147  1  0.14421896  0.12800647  0.60848204  1
  O  O148  1  0.11467870  0.61282971  0.12662305  1
  O  O149  1  0.10252918  0.60610966  0.68131873  1
  O  O150  1  0.61236886  0.11440394  0.13058744  1
  O  O151  1  0.61497619  0.11609098  0.63061650  1
  O  O152  1  0.61960264  0.61532929  0.10970274  1
  O  O153  1  0.62764358  0.63129678  0.61294991  1
  O  O154  1  0.36407804  0.38117479  0.37842247  1
  O  O155  1  0.37670851  0.36289909  0.89257263  1
  O  O156  1  0.33598210  0.87818342  0.39847239  1
  O  O157  1  0.35791468  0.89375266  0.85930660  1
  O  O158  1  0.89199632  0.38940098  0.37968869  1
  O  O159  1  0.89399430  0.37569984  0.86938675  1
  O  O160  1  0.88165777  0.88026876  0.37824743  1
  O  O161  1  0.85803040  0.88845061  0.88980535  1
  O  O162  1  0.23824659  0.01578536  0.35783684  1
  O  O163  1  0.19520542  0.02046143  0.83735087  1
  O  O164  1  0.22692310  0.50527988  0.35144306  1
  O  O165  1  0.25752839  0.48209193  0.86213300  1
  O  O166  1  0.76250060  0.00298933  0.36616016  1
  O  O167  1  0.75440410  0.00675749  0.86601129  1
  O  O168  1  0.77464568  0.50944860  0.38326392  1
  O  O169  1  0.73994657  0.51300131  0.86706530  1
  O  O170  1  0.23438800  0.48603459  0.13618106  1
  O  O171  1  0.24438853  0.49059761  0.64874698  1
  O  O172  1  0.24827992  0.99151200  0.13507728  1
  O  O173  1  0.22174482  1.02085645  0.63704418  1
  O  O174  1  0.77704974  0.51239668  0.15125858  1
  O  O175  1  0.75410274  0.50014430  0.63561649  1
  O  O176  1  0.74017056  1.01413748  0.13639906  1
  O  O177  1  0.73943216  1.00189988  0.63318245  1
  O  O178  1  0.00700458  0.36053517  0.24971124  1
  O  O179  1  0.00617986  0.35874947  0.75994093  1
  O  O180  1  0.01176206  0.87345313  0.24912835  1
  O  O181  1  -0.03225519  0.88395157  0.76551947  1
  O  O182  1  0.48709187  0.34407999  0.25810799  1
  O  O183  1  0.52168121  0.36605050  0.75846286  1
  O  O184  1  0.51386969  0.86567687  0.24300998  1
  O  O185  1  0.50745866  0.89281623  0.74383771  1
  O  O186  1  0.48872261  0.12289234  0.24231240  1
  O  O187  1  0.49778572  0.12434976  0.73454642  1
  O  O188  1  0.49760823  0.63666129  0.23339714  1
  O  O189  1  0.51550617  0.62326059  0.74962922  1
  O  O190  1  0.99340839  0.12951579  0.24676610  1
  O  O191  1  0.99241751  0.12790594  0.76220803  1
  O  O192  1  1.00648359  0.64183325  0.24902442  1
  O  O193  1  0.96861484  0.61896949  0.76552560  1
  O  O194  1  0.36081171  0.24779450  0.01233475  1
  O  O195  1  0.37822397  0.26783502  0.49482548  1
  O  O196  1  0.39217101  0.84890979  -0.09568571  1
  O  O197  1  0.37250044  0.72796255  0.44994005  1
  O  O198  1  0.86779556  0.24221754  0.01876646  1
  O  O199  1  0.85979891  0.24246527  0.48873174  1
  O  O200  1  0.86884922  0.77555319  0.00105947  1
  O  O201  1  0.87622693  0.76378010  0.49262515  1
  O  O202  1  0.12541023  0.24949285  0.48333205  1
  O  O203  1  0.13663344  0.24436979  1.01420359  1
  O  O204  1  0.14530193  0.76504521  0.46997071  1
  O  O205  1  0.11676991  0.74119473  0.98528094  1
  O  O206  1  0.65641498  0.23114649  0.50475683  1
  O  O207  1  0.64339092  0.24312305  1.01526490  1
  O  O208  1  0.60488684  0.73175010  0.49644777  1
  O  O209  1  0.62185792  0.76460983  0.98205428  1
  O  O210  1  0.49048023  0.23771246  0.13171931  1
  O  O211  1  0.50546503  0.23642017  0.61508711  1
  O  O212  1  0.51361913  0.74100693  0.13814940  1
  O  O213  1  0.49255575  0.75211945  0.64430084  1
  O  O214  1  0.98670203  0.23922705  0.13284139  1
  O  O215  1  0.99271533  0.24641646  0.64320636  1
  O  O216  1  1.01441674  0.73978961  0.13297889  1
  O  O217  1  0.98081289  0.79000817  0.64113895  1
  O  O218  1  0.00702712  0.25436512  0.36868667  1
  O  O219  1  -0.00278855  0.25596291  0.88245975  1
  O  O220  1  0.01278963  0.76137761  0.35609328  1
  O  O221  1  -0.00772366  0.76124417  0.87663213  1
  O  O222  1  0.50107236  0.22397662  0.36468084  1
  O  O223  1  0.49099984  0.25802742  0.87853928  1
  O  O224  1  0.52559015  0.73066131  0.34076703  1
  O  O225  1  0.52011492  0.74606318  0.85766378  1
  O  O226  1  0.25098714  0.11778435  0.48076997  1
  O  O227  1  0.23757119  0.13519088  1.01872798  1
  O  O228  1  0.24934768  0.63303595  0.49520127  1
  O  O229  1  0.23279474  0.62174382  1.01925995  1
  O  O230  1  0.76069348  0.11698388  0.48118731  1
  O  O231  1  0.74934527  0.12832493  0.99190849  1
  O  O232  1  0.74000403  0.62926128  0.49971924  1
  O  O233  1  0.72836299  0.62112900  0.98335516  1
  O  O234  1  0.25107728  0.36089431  0.01173932  1
  O  O235  1  0.26746868  0.39550169  0.50505853  1
  O  O236  1  0.24426768  0.89878657  0.00917206  1
  O  O237  1  0.27799407  0.85840348  0.45400847  1
  O  O238  1  0.74933356  0.35757019  -0.00129578  1
  O  O239  1  0.75272893  0.35746614  0.50392392  1
  O  O240  1  0.74838978  0.88712295  0.00446563  1
  O  O241  1  0.75168531  0.88096881  0.51068904  1
  O  O242  1  0.12721362  0.48980028  0.23739511  1
  O  O243  1  0.14027311  0.47691544  0.76524682  1
  O  O244  1  0.12863138  0.98841843  0.24948282  1
  O  O245  1  0.15066748  1.05684052  0.64342378  1
  O  O246  1  0.64988899  0.46218976  0.27584425  1
  O  O247  1  0.63745105  0.48517513  0.74965369  1
  O  O248  1  0.63096231  0.99091021  0.24466174  1
  O  O249  1  0.63120383  0.99415127  0.74613696  1
  O  O250  1  0.36563547  0.00741573  0.24413150  1
  O  O251  1  0.35105673  0.02186750  0.75242774  1
  O  O252  1  0.35046733  0.48765094  0.25915194  1
  O  O253  1  0.36088658  0.46945095  0.75201608  1
  O  O254  1  0.87118274  0.00329777  0.25550145  1
  O  O255  1  0.86885951  0.00890152  0.75937585  1
  O  O256  1  0.89289345  0.50728010  0.26945550  1
  O  O257  1  0.85098495  0.51859029  0.75486832  1
  O  O258  1  0.11302641  0.35966002  0.36195607  1
  O  O259  1  0.10862883  0.36356621  0.87549250  1
  O  O260  1  0.11910625  0.86836642  0.35647839  1
  O  O261  1  0.14079292  0.84579380  0.87216360  1
  O  O262  1  0.68403260  0.40028112  0.30834311  1
  O  O263  1  0.61579296  0.36458096  0.87701311  1
  O  O264  1  0.63083226  0.87669221  0.35822500  1
  O  O265  1  0.63129010  0.86935081  0.85654028  1
  O  O266  1  0.38037815  0.13025705  0.13350708  1
  O  O267  1  0.38467558  0.14689089  0.61829836  1
  O  O268  1  0.39427735  0.63289606  0.10087644  1
  O  O269  1  0.39318247  0.60988864  0.59638763  1
  O  O270  1  0.88182823  0.12606236  0.13858177  1
  O  O271  1  0.87805241  0.11135079  0.64517496  1
  O  O272  1  0.90347935  0.63545270  0.13483363  1
  O  O273  1  0.86494505  0.63360183  0.64377984  1
  O  O274  1  0.25585485  0.25697644  0.12440566  1
  O  O275  1  0.26831900  0.25806641  0.61403618  1
  O  O276  1  0.23725802  0.76557704  0.10049270  1
  O  O277  1  0.28270849  0.75722458  0.57560061  1
  O  O278  1  0.76310099  0.24153812  0.12047324  1
  O  O279  1  0.76733451  0.24006874  0.61934220  1
  O  O280  1  0.76352366  0.70246123  0.10963722  1
  O  O281  1  0.74214147  0.77217106  0.63364240  1
  O  O282  1  0.23486179  0.23796930  0.36602101  1
  O  O283  1  0.24747174  0.25141159  0.89979270  1
  O  O284  1  0.23833197  0.73842862  0.36001178  1
  O  O285  1  0.27438509  0.74513671  0.92512823  1
  O  O286  1  0.75565189  0.22977793  0.36801998  1
  O  O287  1  0.76430150  0.24018156  0.89503602  1
  O  O288  1  0.74833357  0.73896535  0.37176100  1
  O  O289  1  0.72580686  0.73548118  0.85778648  1
  O  O290  1  0.00108038  0.11778733  0.01269423  1
  O  O291  1  0.00012821  0.10127131  0.48657175  1
  O  O292  1  -0.00965308  0.62984565  0.00302276  1
  O  O293  1  0.02358029  0.68026208  0.52388421  1
  O  O294  1  0.49868468  0.12205252  0.01176059  1
  O  O295  1  0.49942708  0.11353236  0.51250516  1
  O  O296  1  0.51768162  0.62747865  0.00815116  1
  O  O297  1  0.52506149  0.58849332  0.47214546  1
  O  O298  1  0.55262720  0.38544460  0.48543787  1
  O  O299  1  0.48757998  0.36123634  0.99655595  1
  O  O300  1  0.49981079  0.89520447  0.51101590  1
  O  O301  1  0.50605508  0.89257904  1.00689708  1
  O  O302  1  1.01156087  0.37068143  0.48805748  1
  O  O303  1  0.99734741  0.37214452  0.99695931  1
  O  O304  1  0.99286239  0.87792168  0.48401925  1
  O  O305  1  1.00030896  0.89024612  1.00676862  1
  O  O306  1  0.49966279  0.49478784  0.32239977  1
  O  O307  1  0.49330300  0.46866985  0.87039074  1
  O  O308  1  0.49507943  1.00917206  0.39522824  1
  O  O309  1  0.50634201  1.00883680  0.89313374  1
  O  O310  1  1.00265017  0.48895008  0.37801406  1
  O  O311  1  1.00567281  0.48587203  0.86998517  1
  O  O312  1  0.99215757  0.98801374  0.37112642  1
  O  O313  1  0.99091971  1.00651573  0.89109578  1
  O  O314  1  -0.00791615  0.00832051  0.11346029  1
  O  O315  1  0.00192692  -0.00832589  0.60453183  1
  O  O316  1  0.00851105  0.51482726  0.12515754  1
  O  O317  1  -0.06003498  0.44349647  0.62297280  1
  O  O318  1  0.50632673  0.00692525  0.12086089  1
  O  O319  1  0.50115306  0.01203185  0.62140521  1
  O  O320  1  0.49562437  0.51742885  0.13896378  1
  O  O321  1  0.51165325  0.48204003  0.61296702  1
  O  O322  1  0.23634032  0.36983065  0.24061017  1
  O  O323  1  0.22577519  0.35003632  0.76081362  1
  O  O324  1  0.23826022  0.88131819  0.24036600  1
  O  O325  1  0.24366015  0.76431468  0.73590798  1
  O  O326  1  0.74404262  0.37007094  0.25918306  1
  O  O327  1  0.74625511  0.38708016  0.75973565  1
  O  O328  1  0.74854773  0.88810738  0.25162024  1
  O  O329  1  0.75135358  0.89002588  0.73949399  1
  O  O330  1  0.25524675  0.11607270  0.24540252  1
  O  O331  1  0.25087469  0.15385741  0.75731372  1
  O  O332  1  0.24671877  0.61402215  0.23486147  1
  O  O333  1  0.26428913  0.60277024  0.75740906  1
  O  O334  1  0.75909325  0.11442212  0.25844776  1
  O  O335  1  0.76179982  0.11727294  0.75773075  1
  O  O336  1  0.74296241  0.62230003  0.26403021  1
  O  O337  1  0.74281639  0.61554465  0.75715719  1
  O  O338  1  0.35467582  0.13200078  0.36261228  1
  O  O339  1  0.34510018  0.11471604  0.88401673  1
  O  O340  1  0.37824581  0.57572517  0.38737510  1
  O  O341  1  0.37143444  0.61023764  0.90147227  1
  O  O342  1  0.87264072  0.11393677  0.36310595  1
  O  O343  1  0.86567852  0.11049085  0.87210138  1
  O  O344  1  0.86647294  0.62575840  0.37164426  1
  O  O345  1  0.84693710  0.63277306  0.87493766  1
  O  O346  1  0.12628938  0.38116682  0.13273449  1
  O  O347  1  0.11914040  0.36882616  0.64633749  1
  O  O348  1  0.13110431  0.87495667  0.13393798  1
  O  O349  1  0.15537844  0.84321020  0.61667536  1
  O  O350  1  0.60861848  0.38511455  0.14110605  1
  O  O351  1  0.63079661  0.36234153  0.64151454  1
  O  O352  1  0.62519851  0.89154083  0.13506110  1
  O  O353  1  0.63361658  0.88936457  0.63753007  1
  O  O354  1  0.11344266  0.25525916  0.24599612  1
  O  O355  1  0.10641041  0.24762345  0.75405272  1
  O  O356  1  0.12033662  0.76148932  0.25121137  1
  O  O357  1  0.07750902  0.76365686  0.75670030  1
  O  O358  1  0.60966600  0.23909104  0.24860882  1
  O  O359  1  0.65003149  0.25987228  0.75774621  1
  O  O360  1  0.64135186  0.77260054  0.23766907  1
  O  O361  1  0.61079048  0.76983563  0.74643135  1
  O  O362  1  0.37492971  0.23588930  0.24273100  1
  O  O363  1  0.37932827  0.27326761  0.72560361  1
  O  O364  1  0.38952090  0.76107011  0.25000009  1
  O  O365  1  0.39711426  0.73163816  0.77112481  1
  O  O366  1  0.88094504  0.24096362  0.24558479  1
  O  O367  1  0.88319311  0.23239620  0.75956976  1
  O  O368  1  0.89673427  0.76646856  0.24304273  1
  O  O369  1  0.87536814  0.74316414  0.76128486  1
  O  O370  1  0.42316259  0.46407184  0.47594662  1
  O  O371  1  0.36831321  0.47333194  1.00367256  1
  O  O372  1  0.37959012  1.00470030  0.51440033  1
  O  O373  1  0.39060806  1.00313207  1.00664883  1
  O  O374  1  0.89905575  0.53927460  0.48575226  1
  O  O375  1  0.86779128  0.51361191  1.03063893  1
  O  O376  1  0.88364414  0.98910641  0.48713143  1
  O  O377  1  0.88101478  0.99146283  0.99643353  1
  O  O378  1  0.10980036  0.00763746  -0.00530398  1
  O  O379  1  0.11294083  -0.01362121  0.48886386  1
  O  O380  1  0.12804994  0.49009124  0.01671902  1
  O  O381  1  0.12093130  0.51176036  0.51778646  1
  O  O382  1  0.61669454  0.00900281  0.00974032  1
  O  O383  1  0.62161809  0.00571385  0.51217907  1
  O  O384  1  0.62312197  0.49843943  -0.00101137  1
  O  O385  1  0.63676449  0.51120843  0.51060994  1
  O  O386  1  0.36543149  0.35952352  0.11448155  1
  O  O387  1  0.39470625  0.36488133  0.59974664  1
  O  O388  1  0.35572522  0.87538536  0.12407489  1
  O  O389  1  0.32094333  0.89445171  0.65544669  1
  O  O390  1  0.87661009  0.35782122  0.13469275  1
  O  O391  1  0.89760844  0.38932575  0.60128359  1
  O  O392  1  0.86790453  0.87788362  0.11311454  1
  O  O393  1  0.85522343  0.88757279  0.61263493  1
  O  O394  1  0.13240426  0.13694475  0.36721652  1
  O  O395  1  0.11265422  0.13930302  0.90307769  1
  O  O396  1  0.11563060  0.63745926  0.37014098  1
  O  O397  1  0.13390882  0.66035774  0.84944799  1
  O  O398  1  0.64386625  0.11041118  0.37278248  1
  O  O399  1  0.64164452  0.12233260  0.87179789  1
  O  O400  1  0.64802719  0.62091581  0.38500710  1
  O  O401  1  0.62273826  0.62900526  0.88778397  1
