# generated using pymatgen
data_V73Zn73O256
_symmetry_space_group_name_H-M   'P 1'
_cell_length_a   16.95186678
_cell_length_b   16.96204588
_cell_length_c   16.95141020
_cell_angle_alpha   90.12836316
_cell_angle_beta   89.93502125
_cell_angle_gamma   90.07087135
_symmetry_Int_Tables_number   1
_chemical_formula_structural   V73Zn73O256
_chemical_formula_sum   'V73 Zn73 O256'
_cell_volume   4874.16130544
_cell_formula_units_Z   1
loop_
 _symmetry_equiv_pos_site_id
 _symmetry_equiv_pos_as_xyz
  1  'x, y, z'
loop_
 _atom_site_type_symbol
 _atom_site_label
 _atom_site_symmetry_multiplicity
 _atom_site_fract_x
 _atom_site_fract_y
 _atom_site_fract_z
 _atom_site_occupancy
  V  V0  1  0.12847063  0.75296971  0.87504253  1
  V  V1  1  0.63690252  0.24077999  0.87634023  1
  V  V2  1  0.12144827  0.63073908  0.00103892  1
  V  V3  1  0.63402763  0.24967821  0.37596594  1
  V  V4  1  0.88614645  0.38118448  0.50858607  1
  V  V5  1  0.00209718  0.13487239  0.13241599  1
  V  V6  1  0.63729321  0.00747584  0.12058680  1
  V  V7  1  0.25271308  -0.00023684  0.74564032  1
  V  V8  1  0.51086804  0.86220603  0.37419092  1
  V  V9  1  0.62917250  0.62651116  0.00311516  1
  V  V10  1  0.75832159  0.25381246  0.50537744  1
  V  V11  1  0.37116277  0.00077365  0.35373194  1
  V  V12  1  0.86494378  0.62791788  0.25601458  1
  V  V13  1  0.61971885  0.74766550  0.87039282  1
  V  V14  1  0.86286751  0.75750368  0.61558995  1
  V  V15  1  -0.01804314  0.87451417  0.37168256  1
  V  V16  1  0.37419610  0.87390444  0.00597014  1
  V  V17  1  0.73346634  0.37730727  0.62584723  1
  V  V18  1  0.49124041  0.24609204  0.24386608  1
  V  V19  1  0.48957128  0.49421568  -0.00797226  1
  V  V20  1  0.00531694  0.61992334  0.62619133  1
  V  V21  1  0.13663949  0.87553631  0.25515181  1
  V  V22  1  0.13463255  0.49954249  0.63467280  1
  V  V23  1  0.49525281  0.11603398  0.11922834  1
  V  V24  1  0.87336702  0.49626751  0.38146410  1
  V  V25  1  0.49966024  0.63431288  0.13042164  1
  V  V26  1  0.74993934  0.00556991  0.75447831  1
  V  V27  1  0.25998905  0.62306237  0.87005413  1
  V  V28  1  0.20309159  0.15847011  0.37603115  1
  V  V29  1  0.06076794  0.55599585  0.45422650  1
  V  V30  1  -0.00473213  0.48724898  -0.00159266  1
  V  V31  1  0.25267729  0.75593047  0.01279906  1
  V  V32  1  0.50913831  0.60542656  0.61991978  1
  V  V33  1  0.49672824  0.86935117  0.86683329  1
  V  V34  1  0.13752434  -0.00385491  0.12744915  1
  V  V35  1  -0.00013301  0.88146733  0.88499300  1
  V  V36  1  0.87531732  0.62650613  0.75011790  1
  V  V37  1  0.74850175  0.62833065  0.87719905  1
  V  V38  1  0.48896977  0.37116985  0.38493989  1
  V  V39  1  0.49414757  0.12703238  0.63156862  1
  V  V40  1  0.23144515  0.12455437  0.88478124  1
  V  V41  1  0.63121763  0.87084289  0.24818131  1
  V  V42  1  0.13141021  0.87629565  0.74387712  1
  V  V43  1  0.00418050  0.75045508  0.25282761  1
  V  V44  1  0.38805704  0.75771014  0.62522216  1
  V  V45  1  -0.00214693  0.75312041  0.74834521  1
  V  V46  1  0.88087196  0.13295550  0.26494963  1
  V  V47  1  0.23344506  0.74377768  0.50260179  1
  V  V48  1  0.87532966  0.12856155  0.74982556  1
  V  V49  1  0.74790805  0.25830831  0.02467580  1
  V  V50  1  0.27484543  0.49797874  0.23718018  1
  V  V51  1  0.63154054  -0.00371124  0.62181194  1
  V  V52  1  0.11308495  0.36352547  0.76351905  1
  V  V53  1  0.38122254  0.51041447  0.39106800  1
  V  V54  1  0.63324027  0.12685657  0.49724967  1
  V  V55  1  0.73877034  0.49621683  0.74672274  1
  V  V56  1  -0.02894010  -0.01295756  0.49778324  1
  V  V57  1  0.00285007  0.01726091  0.00456929  1
  V  V58  1  0.74995229  0.49367739  0.25029392  1
  V  V59  1  0.36236940  0.25358515  0.11186495  1
  V  V60  1  0.62744667  0.87228772  0.74664633  1
  V  V61  1  -0.00696413  0.12558978  0.61817200  1
  V  V62  1  0.37603511  0.00547502  0.86873128  1
  V  V63  1  0.13333203  0.48777886  0.12313644  1
  V  V64  1  0.01018940  0.27847237  0.26895298  1
  V  V65  1  0.75749936  0.01101431  0.27001737  1
  V  V66  1  0.13034628  -0.00567139  0.61008074  1
  V  V67  1  -0.01033926  0.63112632  0.12478738  1
  V  V68  1  0.87883473  0.48802021  0.87624081  1
  V  V69  1  0.63499463  0.60584268  0.49236398  1
  V  V70  1  0.63145437  0.37235086  0.24350048  1
  V  V71  1  0.49988202  0.26287257  0.75253311  1
  V  V72  1  0.49667322  -0.00150455  0.49418587  1
  Zn  Zn73  1  0.33295833  0.17115577  0.70587946  1
  Zn  Zn74  1  0.35992282  0.87733194  0.50338102  1
  Zn  Zn75  1  0.51737664  0.38036051  0.87396495  1
  Zn  Zn76  1  0.26072351  0.48463581  0.75715080  1
  Zn  Zn77  1  0.63098073  0.49197443  0.11025929  1
  Zn  Zn78  1  0.34348358  0.68740202  0.20459515  1
  Zn  Zn79  1  0.50276643  0.00294226  -0.00532531  1
  Zn  Zn80  1  0.84558211  -0.01409364  0.90289145  1
  Zn  Zn81  1  0.39098635  0.62681227  0.75019596  1
  Zn  Zn82  1  0.18513298  0.18295315  0.19736961  1
  Zn  Zn83  1  0.16415783  0.18774292  0.68128683  1
  Zn  Zn84  1  0.17735619  0.68246047  0.19125569  1
  Zn  Zn85  1  0.19254389  0.69044793  0.68164739  1
  Zn  Zn86  1  0.68731292  0.18219251  0.19143800  1
  Zn  Zn87  1  0.68339422  0.18881215  0.68680950  1
  Zn  Zn88  1  0.67218673  0.67977604  0.30264101  1
  Zn  Zn89  1  0.68115204  0.68458105  0.68437687  1
  Zn  Zn90  1  0.30451489  0.31765883  0.30859368  1
  Zn  Zn91  1  0.29547597  0.30531780  0.80820986  1
  Zn  Zn92  1  0.31392272  0.81196466  0.33393555  1
  Zn  Zn93  1  0.31608318  0.80924744  0.80831632  1
  Zn  Zn94  1  0.82231872  0.31117231  0.31560378  1
  Zn  Zn95  1  0.81041094  0.31192949  0.80666071  1
  Zn  Zn96  1  0.83130054  0.83502569  0.24605449  1
  Zn  Zn97  1  0.79576496  0.83208583  0.84717514  1
  Zn  Zn98  1  0.23998327  0.62775253  0.37044230  1
  Zn  Zn99  1  0.18064654  0.44010774  0.93302784  1
  Zn  Zn100  1  0.18888377  0.92574337  0.43154879  1
  Zn  Zn101  1  0.18967655  0.94288446  0.94108923  1
  Zn  Zn102  1  0.68859689  0.43311588  0.43172714  1
  Zn  Zn103  1  0.68330039  0.43150869  0.92971653  1
  Zn  Zn104  1  0.69004204  0.93982529  0.43420423  1
  Zn  Zn105  1  0.67962624  0.94167860  0.93669081  1
  Zn  Zn106  1  0.31816353  0.06538449  0.06310024  1
  Zn  Zn107  1  0.28261791  0.10794779  0.55866269  1
  Zn  Zn108  1  0.31460935  0.56856479  0.05630492  1
  Zn  Zn109  1  0.31365464  0.57455032  0.56389135  1
  Zn  Zn110  1  0.81757109  0.07304523  0.06948796  1
  Zn  Zn111  1  0.81080793  0.06406564  0.56456469  1
  Zn  Zn112  1  0.80976293  0.43850844  0.06553609  1
  Zn  Zn113  1  0.81139880  0.56590689  0.56535129  1
  Zn  Zn114  1  0.44941638  0.43152185  0.17116831  1
  Zn  Zn115  1  0.43922481  0.44955814  0.69353252  1
  Zn  Zn116  1  0.41438033  0.87873058  0.21123513  1
  Zn  Zn117  1  0.44125803  0.93946888  0.68425751  1
  Zn  Zn118  1  0.94248810  0.44463746  0.18922070  1
  Zn  Zn119  1  0.93601063  0.43470819  0.68741184  1
  Zn  Zn120  1  0.93692230  0.94414475  0.17941167  1
  Zn  Zn121  1  0.93659528  0.93538701  0.68844277  1
  Zn  Zn122  1  0.06582011  0.05233734  0.31344932  1
  Zn  Zn123  1  0.05975691  0.06267485  0.80664051  1
  Zn  Zn124  1  0.05807813  0.54821277  0.29621667  1
  Zn  Zn125  1  0.06371181  0.55972159  0.81173043  1
  Zn  Zn126  1  0.56483760  0.06139982  0.30669823  1
  Zn  Zn127  1  0.56309903  0.06146483  0.81337063  1
  Zn  Zn128  1  0.55497991  0.55616684  0.31689834  1
  Zn  Zn129  1  0.55701927  0.56302520  0.81178621  1
  Zn  Zn130  1  0.45774530  0.16519700  0.41457183  1
  Zn  Zn131  1  0.44044085  0.19090668  0.93540727  1
  Zn  Zn132  1  0.44356432  0.68757895  0.44996513  1
  Zn  Zn133  1  0.44048582  0.68919144  0.94467178  1
  Zn  Zn134  1  0.99395548  0.17177214  0.42249187  1
  Zn  Zn135  1  0.83078977  0.17049114  0.92021518  1
  Zn  Zn136  1  0.93162672  0.69276616  0.43420756  1
  Zn  Zn137  1  0.93997960  0.68394873  0.93145932  1
  Zn  Zn138  1  -0.06697324  0.30047396  0.06382006  1
  Zn  Zn139  1  0.06430398  0.31918619  0.57476408  1
  Zn  Zn140  1  0.06012758  0.81600476  0.07035912  1
  Zn  Zn141  1  0.05468902  0.81303325  0.56013173  1
  Zn  Zn142  1  0.56238135  0.30761479  0.05687341  1
  Zn  Zn143  1  0.56189249  0.31053515  0.56535992  1
  Zn  Zn144  1  0.56578733  0.81711588  0.06134382  1
  Zn  Zn145  1  0.56564211  0.81181839  0.56322139  1
  O  O146  1  0.11192535  0.10654568  0.13979786  1
  O  O147  1  0.10231459  0.09879240  0.63188974  1
  O  O148  1  0.11362427  0.62521677  0.11100036  1
  O  O149  1  0.11407153  0.61671138  0.63646660  1
  O  O150  1  0.61691904  0.11318794  0.13009198  1
  O  O151  1  0.61615306  0.11823796  0.61526321  1
  O  O152  1  0.62367142  0.62423538  0.10425097  1
  O  O153  1  0.61939490  0.62203687  0.61300623  1
  O  O154  1  0.38609802  0.37699077  0.37053133  1
  O  O155  1  0.33365660  0.37482260  0.91027757  1
  O  O156  1  0.40144274  0.88518941  0.38351358  1
  O  O157  1  0.38276796  0.88000960  0.87433113  1
  O  O158  1  0.87260273  0.38714769  0.39024209  1
  O  O159  1  0.87432543  0.39039119  0.86495342  1
  O  O160  1  0.88444902  0.87143631  0.35779086  1
  O  O161  1  0.90258823  0.88204801  0.85589538  1
  O  O162  1  0.27617410  -0.02356881  0.37639176  1
  O  O163  1  0.25700029  0.00210329  0.86560120  1
  O  O164  1  0.28004946  0.51241787  0.35081858  1
  O  O165  1  0.24379041  0.52175095  0.87857938  1
  O  O166  1  0.74950708  0.01371787  0.36936547  1
  O  O167  1  0.73429831  0.01975738  0.85399921  1
  O  O168  1  0.76102772  0.49478837  0.36355673  1
  O  O169  1  0.76303272  0.50420413  0.86518818  1
  O  O170  1  0.24187503  0.51303016  0.12571058  1
  O  O171  1  0.23488258  0.51365445  0.62634218  1
  O  O172  1  0.23590858  1.00567963  0.12151043  1
  O  O173  1  0.23453387  1.00969955  0.62898147  1
  O  O174  1  0.74457128  0.49680092  0.14488725  1
  O  O175  1  0.75112070  0.49449979  0.63983532  1
  O  O176  1  0.73914424  1.00876083  0.12708351  1
  O  O177  1  0.73562675  1.00075885  0.62786630  1
  O  O178  1  0.00599350  0.37810155  0.25459786  1
  O  O179  1  0.01248533  0.38194897  0.74781286  1
  O  O180  1  0.00181351  0.86805490  0.25840373  1
  O  O181  1  0.01388851  0.86929090  0.75610922  1
  O  O182  1  0.51268138  0.36137625  0.25456305  1
  O  O183  1  0.49820181  0.36489832  0.74459391  1
  O  O184  1  0.51967204  0.87570362  0.26458078  1
  O  O185  1  0.51215083  0.88343677  0.75926124  1
  O  O186  1  0.50919957  0.14137188  0.24273561  1
  O  O187  1  0.49912654  0.12115145  0.73365147  1
  O  O188  1  0.51809109  0.61835896  0.22813658  1
  O  O189  1  0.50908871  0.62109410  0.72864287  1
  O  O190  1  0.99199717  0.11761446  0.24404929  1
  O  O191  1  0.98420155  0.10519901  0.73257095  1
  O  O192  1  0.99829659  0.63256717  0.24424604  1
  O  O193  1  0.99472840  0.63412554  0.74835470  1
  O  O194  1  0.37313943  0.24101260  0.01220564  1
  O  O195  1  0.36976159  0.32138832  0.57848717  1
  O  O196  1  0.36694406  0.76455917  -0.00670439  1
  O  O197  1  0.37592593  0.75560684  0.51184556  1
  O  O198  1  0.85392188  0.26068381  -0.00808679  1
  O  O199  1  0.86046778  0.26981830  0.49606132  1
  O  O200  1  0.86799740  0.76389463  -0.00220279  1
  O  O201  1  0.87394124  0.74168759  0.51618281  1
  O  O202  1  0.22042154  0.31793501  0.51951414  1
  O  O203  1  0.04569762  0.25100383  0.92845239  1
  O  O204  1  0.13331030  0.74599089  0.51406921  1
  O  O205  1  0.13033494  0.74913775  0.99457405  1
  O  O206  1  0.63246632  0.24489193  0.49528481  1
  O  O207  1  0.63892273  0.25185987  0.98946322  1
  O  O208  1  0.63823341  0.74481385  0.50139998  1
  O  O209  1  0.62140563  0.73758410  0.98491756  1
  O  O210  1  0.50032961  0.24158894  0.13298592  1
  O  O211  1  0.50654911  0.23692804  0.63701531  1
  O  O212  1  0.51144416  0.73378443  0.11691469  1
  O  O213  1  0.49231484  0.74961005  0.62326700  1
  O  O214  1  1.00545755  0.23646349  0.12878872  1
  O  O215  1  1.00986346  0.22298549  0.60930961  1
  O  O216  1  0.99903235  0.74104603  0.13581308  1
  O  O217  1  0.99507420  0.74110315  0.63496425  1
  O  O218  1  0.00014003  0.26994758  0.36967448  1
  O  O219  1  -0.00340446  0.24654699  0.87572546  1
  O  O220  1  -0.00297478  0.76137723  0.36587567  1
  O  O221  1  0.00872442  0.75830380  0.86823641  1
  O  O222  1  0.50627176  0.25500296  0.36292603  1
  O  O223  1  0.50472716  0.25837131  0.86564384  1
  O  O224  1  0.50895001  0.76516205  0.38652868  1
  O  O225  1  0.50725863  0.75701808  0.87370732  1
  O  O226  1  0.24682469  0.11336317  0.45596676  1
  O  O227  1  0.24981444  0.10795494  0.98278432  1
  O  O228  1  0.25284717  0.63652619  0.49091040  1
  O  O229  1  0.24081017  0.63620337  0.98960963  1
  O  O230  1  0.74089704  0.13836888  0.51053028  1
  O  O231  1  0.75607281  0.14671755  1.00619861  1
  O  O232  1  0.73540754  0.61967429  0.50232786  1
  O  O233  1  0.73565652  0.61785754  0.98279712  1
  O  O234  1  0.28352828  0.38053922  -0.03291516  1
  O  O235  1  0.22483198  0.38058815  0.48063836  1
  O  O236  1  0.26319694  0.86869394  -0.00665983  1
  O  O237  1  0.24843918  0.85427218  0.49717386  1
  O  O238  1  0.74121711  0.36903825  0.00643054  1
  O  O239  1  0.74941007  0.37310011  0.51291802  1
  O  O240  1  0.77927183  0.89721161  -0.05891185  1
  O  O241  1  0.72656668  0.84746122  0.49683726  1
  O  O242  1  0.13174252  0.50288467  0.22665035  1
  O  O243  1  0.13118452  0.49781347  0.74516947  1
  O  O244  1  0.11953020  0.98507422  0.23931612  1
  O  O245  1  0.13220778  0.98970160  0.74417220  1
  O  O246  1  0.63188428  0.48169054  0.25851494  1
  O  O247  1  0.64185564  0.49764893  0.76079949  1
  O  O248  1  0.64052522  1.00325470  0.24316294  1
  O  O249  1  0.63107141  0.99775882  0.73961916  1
  O  O250  1  0.38561451  -0.01786436  0.25627463  1
  O  O251  1  0.36324067  -0.01013538  0.75379561  1
  O  O252  1  0.37498239  0.50159130  0.22781655  1
  O  O253  1  0.36753092  0.51435988  0.74549283  1
  O  O254  1  0.86257543  0.01180183  0.24985099  1
  O  O255  1  0.85368302  -0.00405825  0.74216263  1
  O  O256  1  0.87093244  0.50575146  0.26120025  1
  O  O257  1  0.87558209  0.51128350  0.76089851  1
  O  O258  1  0.15011645  0.27304688  0.50959276  1
  O  O259  1  0.11917258  0.37773226  0.86520975  1
  O  O260  1  0.11013808  0.88319570  0.35845098  1
  O  O261  1  0.11953250  0.86739843  0.86844374  1
  O  O262  1  0.61353236  0.36387709  0.36858806  1
  O  O263  1  0.62914785  0.35274799  0.86843684  1
  O  O264  1  0.61976923  0.88450343  0.36189286  1
  O  O265  1  0.61486538  0.86698441  0.86881600  1
  O  O266  1  0.39007154  0.13099616  0.12810210  1
  O  O267  1  0.39385211  0.11670887  0.61469107  1
  O  O268  1  0.39321813  0.62852459  0.11902499  1
  O  O269  1  0.39791907  0.63318790  0.61713934  1
  O  O270  1  0.89600244  0.12258824  0.13684023  1
  O  O271  1  0.88453652  0.11920218  0.63276054  1
  O  O272  1  0.88756359  0.61323509  0.14747524  1
  O  O273  1  0.88355823  0.62917628  0.63589740  1
  O  O274  1  0.26624448  0.23523762  0.13771643  1
  O  O275  1  0.25801463  0.19686409  0.62483368  1
  O  O276  1  0.24856562  0.74045169  0.11217520  1
  O  O277  1  0.26631205  0.73781497  0.61059617  1
  O  O278  1  0.74366813  0.25559289  0.12346076  1
  O  O279  1  0.74324370  0.26727795  0.62069962  1
  O  O280  1  0.82078811  0.74131769  0.04975949  1
  O  O281  1  0.76574866  0.74328131  0.63734390  1
  O  O282  1  0.23562115  0.25503942  0.36823191  1
  O  O283  1  0.25754175  0.22074630  0.87053105  1
  O  O284  1  0.24909124  0.74279293  0.39159392  1
  O  O285  1  0.23942523  0.74657101  0.88269292  1
  O  O286  1  0.74021490  0.25910971  0.38675411  1
  O  O287  1  0.74241073  0.24086961  0.86681683  1
  O  O288  1  0.70337977  0.77874964  0.46358788  1
  O  O289  1  0.73839413  0.73579503  0.86644248  1
  O  O290  1  0.01049028  0.11737095  0.01565491  1
  O  O291  1  -0.01372281  0.09956161  0.51028132  1
  O  O292  1  0.00395785  0.62752099  0.00703264  1
  O  O293  1  0.00326197  0.62607952  0.50699464  1
  O  O294  1  0.49996017  0.12412339  0.01487398  1
  O  O295  1  0.51150351  0.11705274  0.50615847  1
  O  O296  1  0.51095229  0.61537530  0.00030364  1
  O  O297  1  0.52184558  0.63104640  0.51136866  1
  O  O298  1  0.49921063  0.35967100  0.48356723  1
  O  O299  1  0.50676597  0.39020776  0.99895204  1
  O  O300  1  0.52038189  0.89190391  0.48862149  1
  O  O301  1  0.49062632  0.87351653  0.98613113  1
  O  O302  1  0.98422846  0.37422643  0.51312158  1
  O  O303  1  1.00093141  0.39059171  1.00126822  1
  O  O304  1  0.99507101  0.87775873  0.48524363  1
  O  O305  1  1.00003637  0.86997851  0.98614809  1
  O  O306  1  0.49009659  0.47920161  0.36983417  1
  O  O307  1  0.50092064  0.49530078  0.88365165  1
  O  O308  1  0.50065849  1.00220960  0.38491488  1
  O  O309  1  0.49490537  0.98904045  0.87456133  1
  O  O310  1  0.99606901  0.50401227  0.38817655  1
  O  O311  1  0.98875014  0.51030785  0.88727795  1
  O  O312  1  0.99489345  0.98759803  0.38931379  1
  O  O313  1  1.01509984  0.98983311  0.89142434  1
  O  O314  1  0.00777735  0.00435331  0.11491806  1
  O  O315  1  0.00200336  -0.00887826  0.60686951  1
  O  O316  1  0.01050890  0.51006831  0.11171763  1
  O  O317  1  0.00420671  0.51588094  0.63468780  1
  O  O318  1  0.50693676  0.01457510  0.12785018  1
  O  O319  1  0.51095409  0.00770016  0.61342296  1
  O  O320  1  0.51196008  0.50892900  0.10853175  1
  O  O321  1  0.49988396  0.50580898  0.61513952  1
  O  O322  1  0.25723248  0.40036759  0.24512684  1
  O  O323  1  0.23108963  0.37525954  0.75209248  1
  O  O324  1  0.23402800  0.86678285  0.25903562  1
  O  O325  1  0.23821537  0.88109926  0.75499730  1
  O  O326  1  0.73853914  0.37558563  0.25816774  1
  O  O327  1  0.75723145  0.38619755  0.73675823  1
  O  O328  1  0.73950890  0.90029417  0.25834189  1
  O  O329  1  0.73463294  0.89057481  0.75957415  1
  O  O330  1  0.22497525  0.11705890  0.28604170  1
  O  O331  1  0.24893619  0.10666337  0.76215892  1
  O  O332  1  0.25538135  0.62312981  0.24872867  1
  O  O333  1  0.24226767  0.63359531  0.76992384  1
  O  O334  1  0.76760882  0.12313631  0.25016683  1
  O  O335  1  0.76205499  0.11500051  0.73202840  1
  O  O336  1  0.76063122  0.61789398  0.25660878  1
  O  O337  1  0.75634451  0.61185998  0.75499535  1
  O  O338  1  0.38131443  0.10266409  0.36730228  1
  O  O339  1  0.38302943  0.10614964  0.87568751  1
  O  O340  1  0.40327159  0.60866209  0.37666810  1
  O  O341  1  0.36210188  0.63768229  0.87411777  1
  O  O342  1  0.89287678  0.12848420  0.36278938  1
  O  O343  1  0.88001284  0.09715890  0.85258403  1
  O  O344  1  0.88315267  0.61289090  0.36411841  1
  O  O345  1  0.86682876  0.62250636  0.86733457  1
  O  O346  1  0.13322872  0.39373569  0.10706395  1
  O  O347  1  0.12147156  0.39581807  0.63660898  1
  O  O348  1  0.12188427  0.88443189  0.13842758  1
  O  O349  1  0.11696547  0.88547634  0.63300567  1
  O  O350  1  0.61918807  0.37271616  0.14174540  1
  O  O351  1  0.63433057  0.38055640  0.62298686  1
  O  O352  1  0.61686522  0.89171170  0.14056612  1
  O  O353  1  0.61631670  0.88529764  0.63619798  1
  O  O354  1  0.10365441  0.24897426  0.24759862  1
  O  O355  1  0.11659574  0.26245873  0.74682573  1
  O  O356  1  0.11288347  0.76180242  0.24479531  1
  O  O357  1  0.11855434  0.75607948  0.75527492  1
  O  O358  1  0.62465628  0.25718945  0.25840828  1
  O  O359  1  0.60914593  0.24202397  0.75850542  1
  O  O360  1  0.65249924  0.77250375  0.24603216  1
  O  O361  1  0.62887764  0.76057601  0.75799404  1
  O  O362  1  0.39109463  0.25290866  0.24792980  1
  O  O363  1  0.39262010  0.24997788  0.75954063  1
  O  O364  1  0.38142119  0.77824207  0.25096945  1
  O  O365  1  0.36828968  0.74299046  0.73130971  1
  O  O366  1  0.89306896  0.24169185  0.25367846  1
  O  O367  1  0.87354514  0.22755823  0.75910815  1
  O  O368  1  0.87936001  0.73089494  0.25866445  1
  O  O369  1  0.88659522  0.73971374  0.75003610  1
  O  O370  1  0.36743272  0.50067822  0.48805911  1
  O  O371  1  0.39081492  0.50515643  1.00080343  1
  O  O372  1  0.39634599  0.99456133  0.50073158  1
  O  O373  1  0.37663019  0.98667077  0.98694226  1
  O  O374  1  0.86864846  0.49249971  0.49426426  1
  O  O375  1  0.88392498  0.49907355  0.98785692  1
  O  O376  1  0.87241726  0.98647997  0.50373489  1
  O  O377  1  0.89732755  1.01119838  1.00337534  1
  O  O378  1  0.11441194  -0.01268812  0.01689618  1
  O  O379  1  0.12681345  -0.01051744  0.51034188  1
  O  O380  1  0.11443079  0.51199000  0.00144605  1
  O  O381  1  0.11277327  0.50115674  0.52004706  1
  O  O382  1  0.61953675  -0.00903666  0.01752518  1
  O  O383  1  0.62505883  0.01025732  0.50343127  1
  O  O384  1  0.62128585  0.51189917  -0.00877826  1
  O  O385  1  0.62487182  0.50639464  0.49074550  1
  O  O386  1  0.38122346  0.35259557  0.12538414  1
  O  O387  1  0.35077755  0.37987903  0.61861321  1
  O  O388  1  0.38398605  0.88269789  0.10275024  1
  O  O389  1  0.38263034  0.86384755  0.62243524  1
  O  O390  1  0.88176169  0.37850240  0.12527219  1
  O  O391  1  0.86272355  0.38593686  0.61228447  1
  O  O392  1  0.87112790  0.86335671  0.14661653  1
  O  O393  1  0.88136238  0.85493031  0.63102329  1
  O  O394  1  0.09863946  0.13416333  0.38544408  1
  O  O395  1  0.13114003  0.11797325  0.87374182  1
  O  O396  1  0.12168400  0.60057407  0.38465994  1
  O  O397  1  0.12289856  0.63730278  0.88526886  1
  O  O398  1  0.61603193  0.13830479  0.38604581  1
  O  O399  1  0.61147954  0.14166579  0.87673647  1
  O  O400  1  0.62129990  0.62402964  0.38266420  1
  O  O401  1  0.62898603  0.63174166  0.87438175  1
