# generated using pymatgen
data_V73Zn73O256
_symmetry_space_group_name_H-M   'P 1'
_cell_length_a   16.90996624
_cell_length_b   16.88249181
_cell_length_c   16.91003505
_cell_angle_alpha   89.52039660
_cell_angle_beta   89.85489614
_cell_angle_gamma   90.24638336
_symmetry_Int_Tables_number   1
_chemical_formula_structural   V73Zn73O256
_chemical_formula_sum   'V73 Zn73 O256'
_cell_volume   4827.28714022
_cell_formula_units_Z   1
loop_
 _symmetry_equiv_pos_site_id
 _symmetry_equiv_pos_as_xyz
  1  'x, y, z'
loop_
 _atom_site_type_symbol
 _atom_site_label
 _atom_site_symmetry_multiplicity
 _atom_site_fract_x
 _atom_site_fract_y
 _atom_site_fract_z
 _atom_site_occupancy
  V  V0  1  0.62678381  0.63387594  0.48688135  1
  V  V1  1  0.11932013  0.25294064  0.88912282  1
  V  V2  1  0.50018819  0.11685985  0.61020884  1
  V  V3  1  0.49418649  0.39374968  0.38612827  1
  V  V4  1  0.25092929  0.75342878  0.50209928  1
  V  V5  1  0.12662488  0.62572139  0.50271170  1
  V  V6  1  0.12523851  0.87377130  0.75765114  1
  V  V7  1  0.00742535  0.73873578  0.24236739  1
  V  V8  1  0.36787566  0.86802061  -0.00714201  1
  V  V9  1  0.74759620  0.47948070  0.74489628  1
  V  V10  1  0.00480021  0.00149171  0.49252923  1
  V  V11  1  0.00488319  0.61555236  0.62169641  1
  V  V12  1  0.75883417  0.74312994  0.50805814  1
  V  V13  1  0.37156061  0.75218322  0.12531573  1
  V  V14  1  0.86177603  0.49814751  0.37197200  1
  V  V15  1  0.37393847  0.24123463  0.14929302  1
  V  V16  1  0.49939909  0.63074020  0.12480614  1
  V  V17  1  0.62072841  0.26348258  0.84868032  1
  V  V18  1  0.53365222  0.90346970  0.86034341  1
  V  V19  1  0.25217408  0.87636044  0.62810228  1
  V  V20  1  0.13024451  0.75765071  0.37100018  1
  V  V21  1  0.24920348  0.00517862  0.75106432  1
  V  V22  1  0.12356004  0.00734044  0.62607282  1
  V  V23  1  0.85519969  0.62702576  0.25477338  1
  V  V24  1  0.61640573  0.24780555  0.36180386  1
  V  V25  1  0.61066164  0.86741521  0.23205399  1
  V  V26  1  0.49052909  0.37807567  0.85850413  1
  V  V27  1  0.24039035  0.37889709  0.62089897  1
  V  V28  1  0.47861376  0.49207659  -0.00234798  1
  V  V29  1  0.75500799  -0.00237776  0.26040849  1
  V  V30  1  0.22388064  0.23859825  0.50127425  1
  V  V31  1  0.25457033  0.37422969  0.12560261  1
  V  V32  1  0.00389831  0.11903717  0.11320431  1
  V  V33  1  0.25509832  -0.03048435  0.24815461  1
  V  V34  1  0.75279176  0.14098164  0.84942652  1
  V  V35  1  0.63089856  0.75214991  0.87653546  1
  V  V36  1  0.26312159  0.25185134  0.00249818  1
  V  V37  1  0.86793284  0.74854934  0.11171424  1
  V  V38  1  0.36979744  0.00076169  0.87652022  1
  V  V39  1  0.87626849  0.61988607  0.74025207  1
  V  V40  1  0.00077898  0.49366545  0.48442850  1
  V  V41  1  0.11827620  0.38030678  0.75743353  1
  V  V42  1  0.88079425  0.48731562  0.87328022  1
  V  V43  1  0.00238201  0.24356643  0.27547499  1
  V  V44  1  0.74031960  0.28994103  0.49311536  1
  V  V45  1  -0.01724675  0.88121564  0.88120009  1
  V  V46  1  0.39432106  0.88199759  0.49307600  1
  V  V47  1  0.12064624  0.62253521  0.00395054  1
  V  V48  1  0.50987766  0.62486634  0.63078652  1
  V  V49  1  0.37796379  0.13507060  0.74601911  1
  V  V50  1  0.24563652  0.11909640  0.36252919  1
  V  V51  1  -0.00746666  0.87270002  0.36537746  1
  V  V52  1  0.00196747  0.49057400  -0.00102332  1
  V  V53  1  0.73545689  0.24803518  0.01536086  1
  V  V54  1  0.50397912  0.01636064  -0.00034069  1
  V  V55  1  0.87601578  0.25365400  0.13609325  1
  V  V56  1  0.37976469  0.74970836  0.63705752  1
  V  V57  1  0.62660079  0.49042240  0.62027030  1
  V  V58  1  0.87996306  0.86620825  0.51791221  1
  V  V59  1  0.25805722  0.62177800  0.88118472  1
  V  V60  1  0.11948017  0.50012004  0.12768351  1
  V  V61  1  0.75388715  0.62248184  0.87552712  1
  V  V62  1  0.24578386  0.12645583  0.88526729  1
  V  V63  1  0.37627022  0.25817932  0.61498608  1
  V  V64  1  0.25595436  0.49872733  0.75503469  1
  V  V65  1  0.62977892  0.61066868  0.00100320  1
  V  V66  1  -0.00188620  0.74452344  0.74370740  1
  V  V67  1  -0.00050431  0.23757149  0.75192656  1
  V  V68  1  0.25786083  0.50879409  0.25644930  1
  V  V69  1  0.50018638  0.12414132  0.14951963  1
  V  V70  1  0.11929215  0.37072767  0.26416457  1
  V  V71  1  0.86884380  0.37485560  0.01201043  1
  V  V72  1  0.12660835  0.74505563  0.88065180  1
  Zn  Zn73  1  0.87536425  0.11317699  0.26025751  1
  Zn  Zn74  1  0.51649244  0.75660239  0.75071035  1
  Zn  Zn75  1  0.86380195  0.25964902  0.61963800  1
  Zn  Zn76  1  0.12895076  -0.00533294  0.12609673  1
  Zn  Zn77  1  -0.01705144  0.11674471  0.63838388  1
  Zn  Zn78  1  0.38631242  0.61835757  0.76143802  1
  Zn  Zn79  1  0.26793071  0.62688020  0.37440392  1
  Zn  Zn80  1  0.75582245  0.87561074  0.12254295  1
  Zn  Zn81  1  0.63852114  0.00740707  0.11516013  1
  Zn  Zn82  1  0.18207703  0.18641794  0.19029237  1
  Zn  Zn83  1  0.18277654  0.19476599  0.69112221  1
  Zn  Zn84  1  0.19104127  0.69452121  0.18156208  1
  Zn  Zn85  1  0.18627605  0.68480240  0.69182550  1
  Zn  Zn86  1  0.68644632  0.18436461  0.19632142  1
  Zn  Zn87  1  0.68202083  0.20139259  0.66885099  1
  Zn  Zn88  1  0.68205991  0.69096149  0.18360517  1
  Zn  Zn89  1  0.69549339  0.68757121  0.68812851  1
  Zn  Zn90  1  0.30743960  0.31474118  0.32548695  1
  Zn  Zn91  1  0.31045756  0.31369009  0.81142863  1
  Zn  Zn92  1  0.33397300  0.79884728  0.31625614  1
  Zn  Zn93  1  0.31246339  0.81083164  0.81909650  1
  Zn  Zn94  1  0.83553816  0.29445488  0.34985748  1
  Zn  Zn95  1  0.82255481  0.29705067  0.82412469  1
  Zn  Zn96  1  0.81023033  0.80556115  0.30818261  1
  Zn  Zn97  1  0.81112881  0.80542986  0.80517544  1
  Zn  Zn98  1  0.18751687  0.44165050  0.43839101  1
  Zn  Zn99  1  0.19398557  0.43643478  0.93993438  1
  Zn  Zn100  1  0.18885611  0.94195635  0.43553158  1
  Zn  Zn101  1  0.16408695  0.91603979  0.97244947  1
  Zn  Zn102  1  0.66926557  0.44958373  0.42216653  1
  Zn  Zn103  1  0.68717937  0.43080119  0.93726202  1
  Zn  Zn104  1  0.71130119  0.88549838  0.40831143  1
  Zn  Zn105  1  0.68763532  0.96710874  0.91216503  1
  Zn  Zn106  1  0.31205992  0.05854049  0.06916544  1
  Zn  Zn107  1  0.34719580  0.08845812  0.51722290  1
  Zn  Zn108  1  0.31072344  0.56596576  0.06580310  1
  Zn  Zn109  1  0.30278751  0.57014632  0.58224920  1
  Zn  Zn110  1  0.81050076  0.07398791  0.07242881  1
  Zn  Zn111  1  0.81741304  0.06369813  0.54361110  1
  Zn  Zn112  1  0.82548595  0.57349772  0.06121036  1
  Zn  Zn113  1  0.81142884  0.55383171  0.55631463  1
  Zn  Zn114  1  0.43189066  0.44371576  0.17874895  1
  Zn  Zn115  1  0.43492771  0.43849990  0.67757039  1
  Zn  Zn116  1  0.42586091  0.93961584  0.18295689  1
  Zn  Zn117  1  0.43946997  0.94176378  0.68639517  1
  Zn  Zn118  1  0.93733321  0.43810215  0.19982565  1
  Zn  Zn119  1  0.93607332  0.42961742  0.67945605  1
  Zn  Zn120  1  0.93335892  0.93395521  0.18430837  1
  Zn  Zn121  1  0.94076341  0.93242246  0.68985260  1
  Zn  Zn122  1  0.07795683  0.05931026  0.30961447  1
  Zn  Zn123  1  0.06286414  0.06257211  0.82761974  1
  Zn  Zn124  1  0.07216092  0.56782356  0.31437328  1
  Zn  Zn125  1  0.06356654  0.56002521  0.81601917  1
  Zn  Zn126  1  0.58567170  0.05246446  0.31730243  1
  Zn  Zn127  1  0.56442166  0.07972860  0.80809049  1
  Zn  Zn128  1  0.44156253  0.57650676  0.31047322  1
  Zn  Zn129  1  0.56632159  0.55448525  0.81245112  1
  Zn  Zn130  1  0.43427455  0.19633371  0.41977519  1
  Zn  Zn131  1  0.43682974  0.19674474  0.93072543  1
  Zn  Zn132  1  0.43023184  0.67811280  0.45697405  1
  Zn  Zn133  1  0.45047553  0.68877222  0.93795103  1
  Zn  Zn134  1  0.92898174  0.18797869  0.46977383  1
  Zn  Zn135  1  0.93103754  0.18957822  0.94269500  1
  Zn  Zn136  1  0.93770795  0.68557253  0.43225872  1
  Zn  Zn137  1  0.94279307  0.67996892  0.93129237  1
  Zn  Zn138  1  0.06127590  0.31139515  0.07307722  1
  Zn  Zn139  1  0.04236778  0.31924994  0.57227266  1
  Zn  Zn140  1  0.05169251  0.81279183  0.06219258  1
  Zn  Zn141  1  0.06433968  0.81387443  0.56295256  1
  Zn  Zn142  1  0.54856023  0.31509432  0.07521221  1
  Zn  Zn143  1  0.55423164  0.31521256  0.54348995  1
  Zn  Zn144  1  0.56479189  0.81534452  0.04627290  1
  Zn  Zn145  1  0.57391380  0.81552313  0.56470395  1
  O  O146  1  0.10580772  0.13277194  0.12728650  1
  O  O147  1  0.12666747  0.10708443  0.63904664  1
  O  O148  1  0.13524497  0.61359958  0.11353884  1
  O  O149  1  0.11974559  0.62822362  0.61487853  1
  O  O150  1  0.60332776  0.12585398  0.13178381  1
  O  O151  1  0.59653660  0.14273003  0.62444249  1
  O  O152  1  0.61754025  0.62883550  0.10687982  1
  O  O153  1  0.62028895  0.62050651  0.62860415  1
  O  O154  1  0.39782836  0.37406737  0.35102867  1
  O  O155  1  0.39091229  0.36305555  0.87418257  1
  O  O156  1  0.38755096  0.86021286  0.39542796  1
  O  O157  1  0.37680660  0.88918598  0.87579039  1
  O  O158  1  0.87857226  0.40082275  0.35347488  1
  O  O159  1  0.87191557  0.38225502  0.89102548  1
  O  O160  1  0.89198486  0.86800513  0.38115925  1
  O  O161  1  0.88463599  0.86562763  0.86494868  1
  O  O162  1  0.24589917  0.00641048  0.36072365  1
  O  O163  1  0.25535651  0.00906343  0.86769569  1
  O  O164  1  0.25021695  0.50373613  0.36137912  1
  O  O165  1  0.24887670  0.51184603  0.87015519  1
  O  O166  1  0.73464721  -0.01293961  0.36064085  1
  O  O167  1  0.76054980  0.04258223  0.86804249  1
  O  O168  1  0.76262815  0.50434356  0.37877212  1
  O  O169  1  0.75822904  0.50083760  0.86216350  1
  O  O170  1  0.24326591  0.49283976  0.13376818  1
  O  O171  1  0.24509943  0.48734539  0.63723168  1
  O  O172  1  0.25253011  0.99598264  0.14098650  1
  O  O173  1  0.24242024  0.98842403  0.63774494  1
  O  O174  1  0.73642854  0.50252033  0.13139584  1
  O  O175  1  0.74411883  0.49972445  0.63654142  1
  O  O176  1  0.75352169  0.99523761  0.13179412  1
  O  O177  1  0.72416345  1.01720113  0.60625281  1
  O  O178  1  0.01216750  0.36390685  0.25138754  1
  O  O179  1  0.01636313  0.37069224  0.75391091  1
  O  O180  1  -0.00369648  0.86444821  0.26106794  1
  O  O181  1  0.00888363  0.86363259  0.75653481  1
  O  O182  1  0.51695397  0.38226612  0.22932734  1
  O  O183  1  0.49777565  0.38679858  0.75981722  1
  O  O184  1  0.51204345  0.88105567  0.22807119  1
  O  O185  1  0.49689377  0.87730495  0.76474202  1
  O  O186  1  0.49644543  0.10585693  0.24600968  1
  O  O187  1  0.48324957  0.12486890  0.74016633  1
  O  O188  1  0.50496118  0.62280375  0.22302244  1
  O  O189  1  0.50230678  0.62697764  0.74565733  1
  O  O190  1  0.99921237  0.13603746  0.25840908  1
  O  O191  1  0.99539948  0.13276625  0.76211487  1
  O  O192  1  1.00122334  0.63776917  0.25257578  1
  O  O193  1  0.99786781  0.62326732  0.74194651  1
  O  O194  1  0.36508296  0.25160775  0.00552993  1
  O  O195  1  0.35273296  0.25334797  0.51560645  1
  O  O196  1  0.38405090  0.76534925  -0.01054283  1
  O  O197  1  0.36848274  0.75996847  0.51847715  1
  O  O198  1  0.87063478  0.26132986  0.01690447  1
  O  O199  1  0.84634618  0.26675855  0.46654475  1
  O  O200  1  0.88431150  0.73008330  0.01411551  1
  O  O201  1  0.87026301  0.75350788  0.49784884  1
  O  O202  1  0.12590683  0.25671953  0.51315528  1
  O  O203  1  0.13193690  0.25705757  0.99254364  1
  O  O204  1  0.13411373  0.74587401  0.49595425  1
  O  O205  1  0.11261998  0.73521399  0.98986474  1
  O  O206  1  0.63634343  0.25915647  0.48989859  1
  O  O207  1  0.63685776  0.25992189  1.02491221  1
  O  O208  1  0.63962108  0.74368890  0.50620983  1
  O  O209  1  0.62525278  0.72750446  0.98400209  1
  O  O210  1  0.48381582  0.23718783  0.13147312  1
  O  O211  1  0.47834501  0.25861452  0.61482315  1
  O  O212  1  0.49621613  0.73624975  0.10219298  1
  O  O213  1  0.49769723  0.74753948  0.63431040  1
  O  O214  1  0.99131678  0.24111937  0.13542043  1
  O  O215  1  1.02702408  0.23068075  0.65132274  1
  O  O216  1  0.99450036  0.75127154  0.13954170  1
  O  O217  1  1.00962384  0.73803841  0.63803478  1
  O  O218  1  -0.00642398  0.24403271  0.37342662  1
  O  O219  1  0.01508050  0.24549419  0.87387904  1
  O  O220  1  0.00914913  0.75618207  0.36490599  1
  O  O221  1  0.00932355  0.74791088  0.86180265  1
  O  O222  1  0.50909805  0.26883288  0.38117193  1
  O  O223  1  0.51228993  0.26231299  0.87401201  1
  O  O224  1  0.37957321  0.65928007  0.36035692  1
  O  O225  1  0.52129899  0.75483671  0.87040285  1
  O  O226  1  0.23684476  0.13823050  0.51436767  1
  O  O227  1  0.25767580  0.13341623  0.99192744  1
  O  O228  1  0.24635394  0.63754298  0.50503556  1
  O  O229  1  0.23829889  0.61665087  0.98680225  1
  O  O230  1  0.79303836  0.10377140  0.42868705  1
  O  O231  1  0.75240794  0.14723378  0.99936960  1
  O  O232  1  0.74578677  0.63614289  0.50047491  1
  O  O233  1  0.74259146  0.60997839  0.98854926  1
  O  O234  1  0.24612266  0.36718532  0.01636368  1
  O  O235  1  0.23568848  0.37502964  0.51836052  1
  O  O236  1  0.26972241  0.87275352  -0.01405947  1
  O  O237  1  0.24841036  0.86623079  0.51300516  1
  O  O238  1  0.76046733  0.36707347  0.00471999  1
  O  O239  1  0.74076577  0.38937185  0.49760344  1
  O  O240  1  0.78333477  0.92612568  -0.01313751  1
  O  O241  1  0.77614790  0.87392216  0.50742363  1
  O  O242  1  0.12924539  0.49090141  0.24482175  1
  O  O243  1  0.13305012  0.48606223  0.76156880  1
  O  O244  1  0.14246199  0.99620947  0.24223120  1
  O  O245  1  0.13135811  0.99078110  0.75015219  1
  O  O246  1  0.59047632  0.41292036  0.20774845  1
  O  O247  1  0.64152420  0.49580318  0.74158660  1
  O  O248  1  0.63694402  0.98748861  0.23581835  1
  O  O249  1  0.60848632  0.97596935  0.82431538  1
  O  O250  1  0.35647880  -0.00746870  0.25182879  1
  O  O251  1  0.36436213  0.00889700  0.75588261  1
  O  O252  1  0.36083882  0.50880950  0.24292050  1
  O  O253  1  0.36111687  0.50317934  0.74442742  1
  O  O254  1  0.86192747  -0.00651767  0.25390355  1
  O  O255  1  0.82859289  -0.03891836  0.73205169  1
  O  O256  1  0.88083344  0.51982763  0.25655751  1
  O  O257  1  0.87229457  0.49779770  0.75318214  1
  O  O258  1  0.12977183  0.37881371  0.36182185  1
  O  O259  1  0.13378048  0.36260194  0.87018646  1
  O  O260  1  0.11700265  0.86139914  0.38265059  1
  O  O261  1  0.12220536  0.86407088  0.87067486  1
  O  O262  1  0.60359903  0.37643295  0.36923092  1
  O  O263  1  0.61092577  0.36802209  0.88008457  1
  O  O264  1  0.60074765  0.88681616  0.35735440  1
  O  O265  1  0.64057762  0.85457389  0.89424759  1
  O  O266  1  0.38031493  0.13588562  0.12703558  1
  O  O267  1  0.37770401  0.13931466  0.62910813  1
  O  O268  1  0.38771192  0.63969110  0.10904801  1
  O  O269  1  0.38825019  0.63471346  0.62601609  1
  O  O270  1  0.88637888  0.13619263  0.13639216  1
  O  O271  1  0.88727039  0.14813919  0.58337987  1
  O  O272  1  0.87411871  0.63520811  0.14186185  1
  O  O273  1  0.88430404  0.61439763  0.63461575  1
  O  O274  1  0.25775780  0.25164297  0.12245336  1
  O  O275  1  0.24767300  0.26173352  0.62091792  1
  O  O276  1  0.27074697  0.74347585  0.11727846  1
  O  O277  1  0.25541870  0.75700157  0.62453828  1
  O  O278  1  0.76262412  0.24346837  0.12447466  1
  O  O279  1  0.75145438  0.25412274  0.59539512  1
  O  O280  1  0.76347126  0.75097782  0.11970390  1
  O  O281  1  0.75281334  0.75128123  0.61056908  1
  O  O282  1  0.24492062  0.24741191  0.39583362  1
  O  O283  1  0.24407886  0.24548220  0.88529428  1
  O  O284  1  0.24684118  0.75281955  0.38898359  1
  O  O285  1  0.23686939  0.73496070  0.86772950  1
  O  O286  1  0.72650514  0.27075521  0.37964352  1
  O  O287  1  0.72654138  0.26162356  0.89117528  1
  O  O288  1  0.74465146  0.77450602  0.39890030  1
  O  O289  1  0.74886933  0.73159460  0.87051937  1
  O  O290  1  -0.01105043  0.12394289  0.01313294  1
  O  O291  1  0.00635634  0.10104923  0.48721218  1
  O  O292  1  0.01132176  0.60593624  -0.00427037  1
  O  O293  1  0.00924750  0.62855961  0.50630745  1
  O  O294  1  0.49134290  0.11712413  -0.00540726  1
  O  O295  1  0.47655013  0.12832930  0.51095562  1
  O  O296  1  0.51308043  0.60883408  -0.00704731  1
  O  O297  1  0.51748869  0.63924414  0.51622946  1
  O  O298  1  0.48965268  0.39217300  0.48810242  1
  O  O299  1  0.49665060  0.39023429  1.00613998  1
  O  O300  1  0.49206808  0.87523497  0.51621298  1
  O  O301  1  0.50056385  0.89275708  0.97509278  1
  O  O302  1  1.02018119  0.39727001  0.48571602  1
  O  O303  1  0.99091103  0.38381249  1.00735541  1
  O  O304  1  0.99497280  0.87048294  0.49002349  1
  O  O305  1  0.99228567  0.86391538  0.97922273  1
  O  O306  1  0.50235412  0.49521871  0.35977917  1
  O  O307  1  0.50197908  0.48752308  0.88486855  1
  O  O308  1  0.55762869  0.95102135  0.37809495  1
  O  O309  1  0.48195758  1.01084490  0.88192583  1
  O  O310  1  0.99553935  0.51417136  0.38214430  1
  O  O311  1  0.99084354  0.49836955  0.88362207  1
  O  O312  1  1.01377316  0.98190668  0.38345651  1
  O  O313  1  0.99763969  0.98124252  0.86717839  1
  O  O314  1  -0.00262360  0.01748731  0.13762851  1
  O  O315  1  0.00616163  0.00132119  0.62170426  1
  O  O316  1  0.01370030  0.49344647  0.12051500  1
  O  O317  1  -0.00132523  0.51081432  0.60744806  1
  O  O318  1  0.48827053  0.01565834  0.10958049  1
  O  O319  1  0.49695499  0.01638127  0.62503399  1
  O  O320  1  0.49010632  0.51622883  0.10648260  1
  O  O321  1  0.51517183  0.51136956  0.63211571  1
  O  O322  1  0.23900102  0.38233181  0.24579264  1
  O  O323  1  0.24127300  0.38190485  0.74866069  1
  O  O324  1  0.25464528  0.86929302  0.26000390  1
  O  O325  1  0.24376911  0.88145328  0.74925063  1
  O  O326  1  0.75292498  0.46024422  0.18984906  1
  O  O327  1  0.76262627  0.38194355  0.75411007  1
  O  O328  1  0.74312450  0.88026414  0.24630242  1
  O  O329  1  0.77803896  0.90269859  0.73572283  1
  O  O330  1  0.25277363  0.13522727  0.26305723  1
  O  O331  1  0.25324294  0.11815362  0.75734597  1
  O  O332  1  0.23973252  0.61096436  0.25008135  1
  O  O333  1  0.24726412  0.61504784  0.76142127  1
  O  O334  1  0.75189746  0.10558612  0.24938817  1
  O  O335  1  0.74969802  0.15179186  0.74882493  1
  O  O336  1  0.75586763  0.63093059  0.25086252  1
  O  O337  1  0.76234607  0.61281383  0.75569587  1
  O  O338  1  0.34788577  0.12578598  0.40225143  1
  O  O339  1  0.36473411  0.12371660  0.86617613  1
  O  O340  1  0.39709204  0.53131277  0.45851945  1
  O  O341  1  0.36053465  0.63539971  0.87774692  1
  O  O342  1  0.86151259  0.11757904  0.39112688  1
  O  O343  1  0.84974490  0.18034844  0.86721181  1
  O  O344  1  0.87424622  0.62264635  0.36109163  1
  O  O345  1  0.87215850  0.60818300  0.86576523  1
  O  O346  1  0.13445579  0.38092286  0.13555865  1
  O  O347  1  0.13362323  0.36923794  0.64655068  1
  O  O348  1  0.13148106  0.88660784  0.08282568  1
  O  O349  1  0.13216590  0.87698015  0.64029250  1
  O  O350  1  0.62056802  0.38024860  0.14434170  1
  O  O351  1  0.61545545  0.39321846  0.61352560  1
  O  O352  1  0.63229425  0.87612262  0.11989881  1
  O  O353  1  0.64162718  0.91203154  0.61854228  1
  O  O354  1  0.11386458  0.26047623  0.25316906  1
  O  O355  1  0.12176689  0.25905333  0.76824276  1
  O  O356  1  0.11646069  0.74654509  0.25430248  1
  O  O357  1  0.11954573  0.75527651  0.75848856  1
  O  O358  1  0.62566669  0.25419329  0.26035634  1
  O  O359  1  0.62910983  0.27116578  0.75091616  1
  O  O360  1  0.62615683  0.76822434  0.24482930  1
  O  O361  1  0.63646085  0.74742617  0.76753942  1
  O  O362  1  0.36670766  0.24347971  0.24653858  1
  O  O363  1  0.35931317  0.24050068  0.73640604  1
  O  O364  1  0.38711008  0.76073609  0.22320023  1
  O  O365  1  0.37353816  0.74604131  0.74335573  1
  O  O366  1  0.88854824  0.24983297  0.25414120  1
  O  O367  1  0.90056524  0.26530011  0.74241929  1
  O  O368  1  0.88499401  0.73901659  0.24699248  1
  O  O369  1  0.88637069  0.73065135  0.75465249  1
  O  O370  1  0.35829682  0.49024733  0.50947228  1
  O  O371  1  0.37909257  0.50202703  0.99572509  1
  O  O372  1  0.36536613  0.97739972  0.50628579  1
  O  O373  1  0.37999988  0.99263776  0.99219761  1
  O  O374  1  0.88856530  0.50758738  0.48415697  1
  O  O375  1  0.88172229  0.49440429  0.99652117  1
  O  O376  1  0.89693854  0.98100429  0.50740914  1
  O  O377  1  0.84105466  0.97644616  0.99172751  1
  O  O378  1  0.13408034  0.01467581  0.01125828  1
  O  O379  1  0.11284259  -0.01799023  0.51558485  1
  O  O380  1  0.12015191  0.49992168  0.00711087  1
  O  O381  1  0.11644091  0.51887094  0.48848372  1
  O  O382  1  0.60794862  0.00580575  -0.00187173  1
  O  O383  1  0.67347804  -0.03492999  0.56913469  1
  O  O384  1  0.62328610  0.50744319  -0.00300715  1
  O  O385  1  0.63636440  0.52123050  0.51523781  1
  O  O386  1  0.36315199  0.35870766  0.13624162  1
  O  O387  1  0.35534956  0.36623463  0.63338973  1
  O  O388  1  0.38884858  0.86455643  0.10019932  1
  O  O389  1  0.36573485  0.86818846  0.62876181  1
  O  O390  1  0.88083830  0.36737683  0.12520926  1
  O  O391  1  0.93046989  0.34999722  0.60319852  1
  O  O392  1  0.87775954  0.85427699  0.12373140  1
  O  O393  1  0.89290872  0.85860058  0.61609979  1
  O  O394  1  0.14449286  0.12245239  0.38069048  1
  O  O395  1  0.13628647  0.13903034  0.87337502  1
  O  O396  1  0.13282896  0.64135807  0.38483287  1
  O  O397  1  0.13111161  0.62753259  0.88271657  1
  O  O398  1  0.60941673  0.14561811  0.37505920  1
  O  O399  1  0.63435988  0.15282260  0.86345706  1
  O  O400  1  0.61827538  0.62802152  0.39221779  1
  O  O401  1  0.63650735  0.62377430  0.88013461  1
