# generated using pymatgen
data_V73Zn73O256
_symmetry_space_group_name_H-M   'P 1'
_cell_length_a   16.80630227
_cell_length_b   16.86218249
_cell_length_c   16.88154156
_cell_angle_alpha   90.02536571
_cell_angle_beta   90.10603558
_cell_angle_gamma   90.05532416
_symmetry_Int_Tables_number   1
_chemical_formula_structural   V73Zn73O256
_chemical_formula_sum   'V73 Zn73 O256'
_cell_volume   4784.06496562
_cell_formula_units_Z   1
loop_
 _symmetry_equiv_pos_site_id
 _symmetry_equiv_pos_as_xyz
  1  'x, y, z'
loop_
 _atom_site_type_symbol
 _atom_site_label
 _atom_site_symmetry_multiplicity
 _atom_site_fract_x
 _atom_site_fract_y
 _atom_site_fract_z
 _atom_site_occupancy
  V  V0  1  0.24766838  0.25421442  -0.00162778  1
  V  V1  1  0.87653206  0.62798947  0.73303486  1
  V  V2  1  0.86622584  0.50033870  0.35364133  1
  V  V3  1  0.88763109  -0.00648340  0.37936628  1
  V  V4  1  0.37191569  0.63423332  0.75167438  1
  V  V5  1  0.00382617  -0.00258132  0.51031230  1
  V  V6  1  0.76876761  0.87684430  0.62966451  1
  V  V7  1  0.62240762  0.37489771  0.25595493  1
  V  V8  1  0.13030399  0.25228466  0.35839016  1
  V  V9  1  0.74931901  0.62023827  0.86039961  1
  V  V10  1  0.25173294  0.75529153  0.50562941  1
  V  V11  1  0.75354881  0.37821581  0.62107767  1
  V  V12  1  0.38974480  0.62285656  0.24680003  1
  V  V13  1  0.52321183  0.87029069  0.39156274  1
  V  V14  1  0.61597380  0.49628515  0.61071704  1
  V  V15  1  0.35848474  0.10560376  0.24769467  1
  V  V16  1  0.75153721  0.86779077  0.12269595  1
  V  V17  1  0.50578543  0.12339078  0.61660181  1
  V  V18  1  -0.01846372  0.74611376  0.25023688  1
  V  V19  1  0.88013739  0.23968712  0.61437874  1
  V  V20  1  0.13132473  0.48018140  0.62554549  1
  V  V21  1  0.23841347  0.88653808  0.63027149  1
  V  V22  1  0.88253361  0.12940152  0.25334764  1
  V  V23  1  0.12243947  0.75739059  0.36863686  1
  V  V24  1  0.50732519  0.49439395  0.00407649  1
  V  V25  1  0.63258547  0.00848840  0.60755993  1
  V  V26  1  0.86911179  0.13158048  0.77169134  1
  V  V27  1  0.74619228  -0.00518130  0.24777771  1
  V  V28  1  0.62536919  0.75326999  0.85784841  1
  V  V29  1  0.62317497  0.38219951  0.75914447  1
  V  V30  1  -0.01879942  0.62187364  0.11309125  1
  V  V31  1  0.12390484  0.50695941  0.09614672  1
  V  V32  1  0.50124586  0.23416584  0.24242425  1
  V  V33  1  0.49528924  0.25147451  0.76027392  1
  V  V34  1  0.11410271  0.11960265  -0.00367686  1
  V  V35  1  0.89680556  0.87165145  0.01020826  1
  V  V36  1  -0.00269690  0.75161573  0.73843237  1
  V  V37  1  0.12682265  0.13309278  0.50463988  1
  V  V38  1  0.73970651  0.12941455  0.37793020  1
  V  V39  1  0.88274519  0.25537238  0.12845868  1
  V  V40  1  0.50242083  0.62074964  0.61899203  1
  V  V41  1  0.24814312  0.11747139  0.86968434  1
  V  V42  1  0.38265085  -0.00093577  0.88752642  1
  V  V43  1  0.50252184  0.87542389  0.89017666  1
  V  V44  1  0.62965613  0.90103697  0.75371246  1
  V  V45  1  0.38091066  0.49937547  0.87123530  1
  V  V46  1  0.37036359  -0.01117256  0.39459616  1
  V  V47  1  0.25191578  0.61825076  0.37787862  1
  V  V48  1  0.37498939  0.11526220  0.74442883  1
  V  V49  1  0.62292484  0.63311971  0.00294211  1
  V  V50  1  -0.00771982  0.49154984  0.50718533  1
  V  V51  1  0.12061916  0.62838942  0.51251314  1
  V  V52  1  0.00370189  0.11174915  0.12599926  1
  V  V53  1  0.12450553  0.26517173  0.86435791  1
  V  V54  1  0.11845258  0.88460266  0.76051681  1
  V  V55  1  0.49627002  0.36206217  0.38308836  1
  V  V56  1  -0.00096679  0.36939018  0.35939614  1
  V  V57  1  0.72878956  0.24687275  0.49812665  1
  V  V58  1  0.88560627  0.49783519  0.87170077  1
  V  V59  1  0.71839227  0.64218457  0.37467723  1
  V  V60  1  0.25314954  0.87304904  0.11819940  1
  V  V61  1  0.37589555  0.37477964  -0.00143495  1
  V  V62  1  0.26358500  0.26165194  0.50828415  1
  V  V63  1  0.63181273  0.23517351  0.87884569  1
  V  V64  1  0.38527904  0.49512643  0.39684188  1
  V  V65  1  0.24665860  0.49026527  0.74979480  1
  V  V66  1  0.74302020  0.23331998  0.00473895  1
  V  V67  1  0.00365058  0.25967814  0.74442391  1
  V  V68  1  0.38442616  0.76293538  0.62463923  1
  V  V69  1  0.61632078  0.01245164  0.10504799  1
  V  V70  1  0.13331880  0.72988149  0.87720744  1
  V  V71  1  0.74203227  0.38271125  0.12370795  1
  V  V72  1  0.87882087  -0.01176406  0.88423250  1
  Zn  Zn73  1  0.87722513  0.38426026  -0.00694528  1
  Zn  Zn74  1  0.75667062  0.74863659  0.50285329  1
  Zn  Zn75  1  0.12403980  0.01570256  0.63993455  1
  Zn  Zn76  1  0.49935626  0.76035179  0.24971628  1
  Zn  Zn77  1  0.37698134  0.23583109  0.11772888  1
  Zn  Zn78  1  0.76107268  0.74855027  -0.00123202  1
  Zn  Zn79  1  0.62075741  0.51000353  0.13640955  1
  Zn  Zn80  1  0.23052292  0.36961898  0.13630503  1
  Zn  Zn81  1  0.24355127  0.48255725  0.26031117  1
  Zn  Zn82  1  0.18992639  0.18009255  0.18485514  1
  Zn  Zn83  1  0.19468481  0.19644290  0.68244898  1
  Zn  Zn84  1  0.14658724  0.63793705  0.21554248  1
  Zn  Zn85  1  0.19087485  0.69239882  0.69322007  1
  Zn  Zn86  1  0.68692081  0.18775191  0.19199938  1
  Zn  Zn87  1  0.68782662  0.19051567  0.68945377  1
  Zn  Zn88  1  0.68508580  0.68913007  0.19752975  1
  Zn  Zn89  1  0.68608908  0.69721010  0.66721224  1
  Zn  Zn90  1  0.31703193  0.29975784  0.31635890  1
  Zn  Zn91  1  0.31363623  0.31336573  0.81311375  1
  Zn  Zn92  1  0.31951256  0.80876499  0.31837744  1
  Zn  Zn93  1  0.30999146  0.81894921  0.81284364  1
  Zn  Zn94  1  0.81147357  0.31680254  0.31447751  1
  Zn  Zn95  1  0.80710316  0.30943458  0.80692361  1
  Zn  Zn96  1  0.80825059  0.80926312  0.32164076  1
  Zn  Zn97  1  0.81119637  0.81417416  0.81279298  1
  Zn  Zn98  1  0.18459611  0.43163696  0.44008758  1
  Zn  Zn99  1  0.19257576  0.44433383  0.93059368  1
  Zn  Zn100  1  0.18480337  0.93973024  0.43754813  1
  Zn  Zn101  1  0.17896664  0.94329691  0.93044620  1
  Zn  Zn102  1  0.68706260  0.43582289  0.43690099  1
  Zn  Zn103  1  0.69459977  0.43611899  0.93680968  1
  Zn  Zn104  1  0.70073587  0.93883874  0.44220709  1
  Zn  Zn105  1  0.70088580  0.94706020  0.93954293  1
  Zn  Zn106  1  0.30479415  0.05972163  0.06518962  1
  Zn  Zn107  1  0.31000474  0.07103646  0.55557708  1
  Zn  Zn108  1  0.31852906  0.55487049  0.06876561  1
  Zn  Zn109  1  0.31174554  0.56365331  0.56799145  1
  Zn  Zn110  1  0.81908575  0.05903846  0.06028585  1
  Zn  Zn111  1  0.81440997  0.06299227  0.56251701  1
  Zn  Zn112  1  0.80930668  0.56509642  0.05451968  1
  Zn  Zn113  1  0.80333646  0.56212583  0.55277105  1
  Zn  Zn114  1  0.40496053  0.41683126  0.21143834  1
  Zn  Zn115  1  0.42761020  0.43804846  0.68445250  1
  Zn  Zn116  1  0.44818669  0.92632246  0.18655755  1
  Zn  Zn117  1  0.44762892  0.93947362  0.69042882  1
  Zn  Zn118  1  0.94437229  0.44031206  0.18119062  1
  Zn  Zn119  1  0.93578129  0.44199724  0.68961878  1
  Zn  Zn120  1  0.94240199  0.93302796  0.19506079  1
  Zn  Zn121  1  0.94396743  0.95541729  0.70044214  1
  Zn  Zn122  1  0.07395266  0.06503883  0.31467843  1
  Zn  Zn123  1  0.04750471  0.07448902  0.81283614  1
  Zn  Zn124  1  0.05034270  0.55118196  0.30906013  1
  Zn  Zn125  1  0.05909290  0.56501135  0.80472458  1
  Zn  Zn126  1  0.55641711  0.04851514  0.31522754  1
  Zn  Zn127  1  0.55997616  0.06492333  0.82070800  1
  Zn  Zn128  1  0.55983439  0.55486423  0.31829544  1
  Zn  Zn129  1  0.55842348  0.56754552  0.80668920  1
  Zn  Zn130  1  0.43575861  0.17632802  0.42696174  1
  Zn  Zn131  1  0.44087282  0.18326939  0.93855204  1
  Zn  Zn132  1  0.44437932  0.69560122  0.43717770  1
  Zn  Zn133  1  0.44723521  0.68356931  0.92647473  1
  Zn  Zn134  1  0.94402152  0.18524145  0.43701389  1
  Zn  Zn135  1  0.94471817  0.21906582  0.94501229  1
  Zn  Zn136  1  0.93497539  0.68062286  0.43396002  1
  Zn  Zn137  1  0.94446796  0.69518545  0.92567914  1
  Zn  Zn138  1  0.05854363  0.32866532  0.05106824  1
  Zn  Zn139  1  0.06200537  0.31102021  0.55685757  1
  Zn  Zn140  1  0.06627264  0.78811971  0.06492429  1
  Zn  Zn141  1  -0.06465420  0.81846577  0.55608155  1
  Zn  Zn142  1  0.55824242  0.30978704  0.06126003  1
  Zn  Zn143  1  0.51737017  0.32676221  0.58700378  1
  Zn  Zn144  1  0.56769367  0.81181764  0.08780824  1
  Zn  Zn145  1  0.57631566  0.81080879  0.56376439  1
  O  O146  1  0.11337739  0.13162742  0.11078075  1
  O  O147  1  0.13115674  0.12731449  0.61250244  1
  O  O148  1  0.11995298  0.61399866  0.10690367  1
  O  O149  1  0.12921659  0.62523518  0.61415088  1
  O  O150  1  0.63344468  0.10975418  0.13139993  1
  O  O151  1  0.62032561  0.11604568  0.63108527  1
  O  O152  1  0.64192927  0.61914187  0.10338337  1
  O  O153  1  0.61332607  0.60438435  0.64201367  1
  O  O154  1  0.38687171  0.38223727  0.37620856  1
  O  O155  1  0.37135260  0.38711172  0.88400263  1
  O  O156  1  0.37966590  0.88232118  0.38065563  1
  O  O157  1  0.38832313  0.88609912  0.87044926  1
  O  O158  1  0.88753737  0.38206838  0.37229220  1
  O  O159  1  0.85697005  0.39745548  0.86148697  1
  O  O160  1  0.86956349  0.89545006  0.37495791  1
  O  O161  1  0.87849984  0.88247795  0.88456535  1
  O  O162  1  0.26810174  -0.00854973  0.38153670  1
  O  O163  1  0.26004614  0.01037724  0.87614141  1
  O  O164  1  0.25933232  0.50679927  0.38539540  1
  O  O165  1  0.26034188  0.50414037  0.85808293  1
  O  O166  1  0.76373555  0.01267214  0.37058070  1
  O  O167  1  0.77631393  0.01120583  0.88286120  1
  O  O168  1  0.76429741  0.49394994  0.37853933  1
  O  O169  1  0.74516494  0.51812547  0.86688808  1
  O  O170  1  0.23376171  0.49562565  0.11436928  1
  O  O171  1  0.24050757  0.49888628  0.63281919  1
  O  O172  1  0.23426717  0.97926164  0.12066875  1
  O  O173  1  0.25201619  0.98858183  0.61880310  1
  O  O174  1  0.74827821  0.48471542  0.11943167  1
  O  O175  1  0.73675436  0.48446865  0.61666564  1
  O  O176  1  0.75478932  1.00106018  0.14008158  1
  O  O177  1  0.73924061  1.00104130  0.62499826  1
  O  O178  1  0.00242050  0.37678346  0.26025811  1
  O  O179  1  -0.00362475  0.36070407  0.74477587  1
  O  O180  1  -0.00112021  0.84727617  0.24178181  1
  O  O181  1  0.01005869  0.86849386  0.74697000  1
  O  O182  1  0.50384321  0.36423926  0.25620156  1
  O  O183  1  0.51106681  0.35876569  0.75031474  1
  O  O184  1  0.50370035  0.87965122  0.27440369  1
  O  O185  1  0.52245239  0.88515397  0.76183113  1
  O  O186  1  0.50899124  0.13354024  0.25100420  1
  O  O187  1  0.48983656  0.13084019  0.75316902  1
  O  O188  1  0.49332881  0.62189220  0.25426355  1
  O  O189  1  0.48328181  0.62276013  0.73790096  1
  O  O190  1  0.99479719  0.12581681  0.23597610  1
  O  O191  1  0.98482055  0.14530936  0.74602698  1
  O  O192  1  1.01276651  0.63429280  0.23815975  1
  O  O193  1  0.98697741  0.63493389  0.73915294  1
  O  O194  1  0.36408527  0.25695328  -0.00854944  1
  O  O195  1  0.35980630  0.24126302  0.48124895  1
  O  O196  1  0.35909723  0.71258922  0.00772531  1
  O  O197  1  0.36614401  0.74682230  0.51749220  1
  O  O198  1  0.85514309  0.24457275  0.01965155  1
  O  O199  1  0.87621410  0.24696310  0.51284862  1
  O  O200  1  0.87767862  0.76761493  -0.00952768  1
  O  O201  1  0.87293846  0.75408107  0.48994146  1
  O  O202  1  0.13246500  0.24350318  0.49774382  1
  O  O203  1  0.13097906  0.24777785  0.98168874  1
  O  O204  1  0.13094604  0.73343836  0.49032819  1
  O  O205  1  0.11990591  0.74400499  0.97708294  1
  O  O206  1  0.63329261  0.24046136  0.50367991  1
  O  O207  1  0.63129062  0.25450953  0.98960091  1
  O  O208  1  0.65516680  0.73334907  0.55956103  1
  O  O209  1  0.62211130  0.73836545  0.99519078  1
  O  O210  1  0.49405945  0.25352132  0.13759707  1
  O  O211  1  0.51563233  0.22984876  0.65038305  1
  O  O212  1  0.46611008  0.81319280  0.14374074  1
  O  O213  1  0.48767468  0.74504781  0.62801717  1
  O  O214  1  0.98313583  0.25157034  0.12666934  1
  O  O215  1  0.98815364  0.25687205  0.62914221  1
  O  O216  1  0.99868186  0.73216479  0.13760687  1
  O  O217  1  0.99348125  0.75834083  0.63792110  1
  O  O218  1  0.00656328  0.26376240  0.37784583  1
  O  O219  1  0.01797424  0.24962557  0.85723453  1
  O  O220  1  0.01588053  0.73617989  0.36303520  1
  O  O221  1  0.01722283  0.74405029  0.85363681  1
  O  O222  1  0.49444646  0.25658039  0.36022308  1
  O  O223  1  0.51487205  0.24520956  0.86862307  1
  O  O224  1  0.50478926  0.76305682  0.37076416  1
  O  O225  1  0.50859213  0.76557028  0.87474401  1
  O  O226  1  0.23477720  0.13291929  0.49412312  1
  O  O227  1  0.23777654  0.13256489  0.99149712  1
  O  O228  1  0.24437756  0.63294698  0.50027298  1
  O  O229  1  0.29743590  0.67033774  1.01415983  1
  O  O230  1  0.75455411  0.13408954  0.48708664  1
  O  O231  1  0.74688811  0.13487925  1.00860974  1
  O  O232  1  0.75749573  0.62537459  0.47408553  1
  O  O233  1  0.73965049  0.62820735  0.98234183  1
  O  O234  1  0.25608133  0.36562182  -0.00647367  1
  O  O235  1  0.25047571  0.36254714  0.50054552  1
  O  O236  1  0.23839590  0.88744422  0.01174700  1
  O  O237  1  0.23874741  0.86289833  0.51599464  1
  O  O238  1  0.75361175  0.36861163  0.01298214  1
  O  O239  1  0.73961975  0.35971934  0.51093887  1
  O  O240  1  0.76004801  0.87276914  0.01241846  1
  O  O241  1  0.74889169  0.87547137  0.52554252  1
  O  O242  1  0.13753304  0.52011633  0.24129256  1
  O  O243  1  0.13546338  0.50383080  0.73672592  1
  O  O244  1  0.11696515  0.99271358  0.24591435  1
  O  O245  1  0.11212455  0.99139435  0.75517289  1
  O  O246  1  0.61415414  0.48066523  0.24657182  1
  O  O247  1  0.61722144  0.48420377  0.74851810  1
  O  O248  1  0.64601194  0.99949241  0.25343919  1
  O  O249  1  0.63320960  1.00173114  0.75744628  1
  O  O250  1  0.37806362  0.00398469  0.24332320  1
  O  O251  1  0.38041519  0.01209488  0.75972223  1
  O  O252  1  0.37108449  0.51156923  0.27298734  1
  O  O253  1  0.36774484  0.50625557  0.75224410  1
  O  O254  1  0.87460587  0.01040384  0.26075589  1
  O  O255  1  0.87919694  0.02246106  0.76686901  1
  O  O256  1  0.87189289  0.49238355  0.25421561  1
  O  O257  1  0.87656168  0.51965737  0.75402453  1
  O  O258  1  0.11282515  0.36628905  0.37584236  1
  O  O259  1  0.13504217  0.36334279  0.86725618  1
  O  O260  1  0.13043054  0.85616103  0.37983894  1
  O  O261  1  0.12733498  0.87104542  0.86153743  1
  O  O262  1  0.61568996  0.37716361  0.36178765  1
  O  O263  1  0.63490166  0.36973030  0.86112989  1
  O  O264  1  0.62443584  0.87983554  0.38333605  1
  O  O265  1  0.62353240  0.87531435  0.86997818  1
  O  O266  1  0.36619339  0.12103864  0.13742743  1
  O  O267  1  0.38834793  0.11692017  0.63846735  1
  O  O268  1  0.37249132  0.61380054  0.14864532  1
  O  O269  1  0.38477894  0.63166034  0.63151333  1
  O  O270  1  0.88563444  0.13229696  0.13044767  1
  O  O271  1  0.87093863  0.13919666  0.63136365  1
  O  O272  1  0.88107462  0.61246259  0.12912190  1
  O  O273  1  0.85731059  0.62493616  0.63565802  1
  O  O274  1  0.24799205  0.25081350  0.10818191  1
  O  O275  1  0.26162767  0.24698232  0.60967147  1
  O  O276  1  0.28450754  0.77951624  0.08703920  1
  O  O277  1  0.25902451  0.76104637  0.62280258  1
  O  O278  1  0.74641987  0.25756848  0.11666633  1
  O  O279  1  0.75583767  0.25365503  0.61169576  1
  O  O280  1  0.74845973  0.76550911  0.12817197  1
  O  O281  1  0.77342780  0.77620316  0.64370618  1
  O  O282  1  0.23320554  0.25840385  0.38263424  1
  O  O283  1  0.24184770  0.24020130  0.87517570  1
  O  O284  1  0.24838089  0.74008752  0.38898981  1
  O  O285  1  0.23448178  0.75238777  0.86259177  1
  O  O286  1  0.75184644  0.24181612  0.38566967  1
  O  O287  1  0.74214128  0.25453967  0.89179644  1
  O  O288  1  0.73098844  0.74784424  0.37884970  1
  O  O289  1  0.73991220  0.74399320  0.87748192  1
  O  O290  1  0.00763933  0.13738422  0.01021545  1
  O  O291  1  0.01591663  0.12060633  0.49879135  1
  O  O292  1  -0.01376766  0.63276910  0.01287186  1
  O  O293  1  0.01704501  0.60854308  0.49247346  1
  O  O294  1  0.49518447  0.13732776  0.02324125  1
  O  O295  1  0.49766532  0.13698059  0.51950096  1
  O  O296  1  0.51550716  0.61604645  -0.00850843  1
  O  O297  1  0.49878029  0.63205053  0.52020365  1
  O  O298  1  0.51625261  0.35752863  0.47936218  1
  O  O299  1  0.49643855  0.38690997  0.99445248  1
  O  O300  1  0.50798753  0.86497517  0.49424180  1
  O  O301  1  0.51253163  0.87223442  0.98751309  1
  O  O302  1  1.00545386  0.38877468  0.49350482  1
  O  O303  1  0.97464593  0.33108501  0.97986255  1
  O  O304  1  1.00176654  0.89767087  0.50138049  1
  O  O305  1  0.99624074  0.87083822  1.01922162  1
  O  O306  1  0.49062186  0.48489348  0.38211074  1
  O  O307  1  0.48761009  0.50607032  0.87835452  1
  O  O308  1  0.49344802  0.98033596  0.37730212  1
  O  O309  1  0.49157424  0.99278934  0.87966338  1
  O  O310  1  0.99314197  0.48658191  0.38446434  1
  O  O311  1  0.98586015  0.50155041  0.86629099  1
  O  O312  1  0.99144573  1.00619811  0.37868998  1
  O  O313  1  0.97972940  1.01548919  0.88137871  1
  O  O314  1  -0.00451037  0.01372311  0.12422913  1
  O  O315  1  0.00371905  0.00697486  0.61427051  1
  O  O316  1  0.00973003  0.51121682  0.12217899  1
  O  O317  1  0.01458497  0.49345620  0.61649489  1
  O  O318  1  0.51973053  -0.00704263  0.12699885  1
  O  O319  1  0.51637807  0.01371835  0.63106238  1
  O  O320  1  0.50334401  0.50106226  0.10399246  1
  O  O321  1  0.50448332  0.50867876  0.62445261  1
  O  O322  1  0.28818174  0.37836100  0.23632235  1
  O  O323  1  0.25728014  0.39014455  0.74760845  1
  O  O324  1  0.26634794  0.85722861  0.21909285  1
  O  O325  1  0.23621395  0.87524679  0.73955410  1
  O  O326  1  0.73217750  0.36441442  0.23896917  1
  O  O327  1  0.73064693  0.36075424  0.72913937  1
  O  O328  1  0.76535766  0.88830848  0.24023564  1
  O  O329  1  0.73934445  0.88165322  0.74661791  1
  O  O330  1  0.25773526  0.11870198  0.25354963  1
  O  O331  1  0.26647837  0.13311927  0.75565313  1
  O  O332  1  0.26146260  0.62618673  0.27580337  1
  O  O333  1  0.26656894  0.61369656  0.73673099  1
  O  O334  1  0.76056772  0.11824706  0.26080137  1
  O  O335  1  0.76928686  0.14517226  0.75383383  1
  O  O336  1  0.73569209  0.62481882  0.27316915  1
  O  O337  1  0.75699928  0.63921474  0.75622223  1
  O  O338  1  0.38820934  0.09999035  0.35717846  1
  O  O339  1  0.37045111  0.11556211  0.86793502  1
  O  O340  1  0.37081798  0.61244220  0.38683481  1
  O  O341  1  0.37784555  0.62093518  0.85761444  1
  O  O342  1  0.87292897  0.12435911  0.36550242  1
  O  O343  1  0.87968340  0.14967454  0.87132226  1
  O  O344  1  0.88521672  0.59896886  0.37121206  1
  O  O345  1  0.86240376  0.61941185  0.86677041  1
  O  O346  1  0.11737301  0.39346637  0.11892153  1
  O  O347  1  0.12864502  0.38184405  0.62442290  1
  O  O348  1  0.15260730  0.84630521  0.12597388  1
  O  O349  1  0.13473771  0.88581743  0.63559730  1
  O  O350  1  0.63224443  0.37745134  0.12809564  1
  O  O351  1  0.61915649  0.38518314  0.63213479  1
  O  O352  1  0.64914018  0.89620638  0.11928604  1
  O  O353  1  0.62959226  0.89584538  0.64024976  1
  O  O354  1  0.13121041  0.24764229  0.25864835  1
  O  O355  1  0.11873799  0.24648865  0.75315004  1
  O  O356  1  0.13882743  0.74023110  0.26897078  1
  O  O357  1  0.11539830  0.76051827  0.74842558  1
  O  O358  1  0.61163475  0.26072548  0.24496073  1
  O  O359  1  0.62066039  0.25307580  0.76519978  1
  O  O360  1  0.59330214  0.75089688  0.18651424  1
  O  O361  1  0.62876712  0.75852089  0.75646489  1
  O  O362  1  0.38608315  0.22988909  0.24996861  1
  O  O363  1  0.38980765  0.24030698  0.76314520  1
  O  O364  1  0.38092613  0.72775950  0.26562160  1
  O  O365  1  0.36752765  0.74057208  0.73967183  1
  O  O366  1  0.86165671  0.24046758  0.23669233  1
  O  O367  1  0.88431823  0.25026258  0.74095208  1
  O  O368  1  0.88240617  0.74100780  0.26456940  1
  O  O369  1  0.88711488  0.74182115  0.75946863  1
  O  O370  1  0.37426365  0.49767434  0.49615763  1
  O  O371  1  0.38496649  0.49829196  0.99102091  1
  O  O372  1  0.38095991  1.00632969  0.49400680  1
  O  O373  1  0.37426808  1.00967601  0.98571484  1
  O  O374  1  0.89202286  0.50095505  0.50913916  1
  O  O375  1  0.86742269  0.50082686  0.97739160  1
  O  O376  1  0.88967280  1.01485420  0.48865280  1
  O  O377  1  0.87930711  0.98552855  0.99651211  1
  O  O378  1  0.11849825  0.02063357  -0.01061186  1
  O  O379  1  0.11622345  0.01377848  0.49473554  1
  O  O380  1  0.11970427  0.50010362  -0.00448227  1
  O  O381  1  0.12611779  0.50652418  0.51402848  1
  O  O382  1  0.62918602  0.00681666  0.00425593  1
  O  O383  1  0.62829069  0.00602023  0.50931535  1
  O  O384  1  0.61567823  0.50638138  -0.01058192  1
  O  O385  1  0.61982884  0.49552818  0.51201388  1
  O  O386  1  0.37731056  0.37405617  0.10318859  1
  O  O387  1  0.41158163  0.35655711  0.61487656  1
  O  O388  1  0.35612491  0.90238635  0.10993037  1
  O  O389  1  0.37139934  0.86583249  0.63887096  1
  O  O390  1  0.86269643  0.36441383  0.13157305  1
  O  O391  1  0.85659446  0.37006816  0.63090066  1
  O  O392  1  0.86827904  0.88255482  0.11569699  1
  O  O393  1  0.87135496  0.89623391  0.63063802  1
  O  O394  1  0.11646780  0.14608638  0.38251880  1
  O  O395  1  0.13040528  0.13254512  0.87990985  1
  O  O396  1  0.14345540  0.62119685  0.38791050  1
  O  O397  1  0.13229877  0.62898050  0.86153734  1
  O  O398  1  0.64182432  0.11841313  0.36903349  1
  O  O399  1  0.63149882  0.13641200  0.87550279  1
  O  O400  1  0.61966716  0.62193515  0.38701350  1
  O  O401  1  0.63145979  0.63469776  0.87230058  1
