# generated using pymatgen
data_V73Zn73O256
_symmetry_space_group_name_H-M   'P 1'
_cell_length_a   16.80991759
_cell_length_b   16.86766231
_cell_length_c   16.84370686
_cell_angle_alpha   89.99397815
_cell_angle_beta   89.75620771
_cell_angle_gamma   89.92556174
_symmetry_Int_Tables_number   1
_chemical_formula_structural   V73Zn73O256
_chemical_formula_sum   'V73 Zn73 O256'
_cell_volume   4775.88495488
_cell_formula_units_Z   1
loop_
 _symmetry_equiv_pos_site_id
 _symmetry_equiv_pos_as_xyz
  1  'x, y, z'
loop_
 _atom_site_type_symbol
 _atom_site_label
 _atom_site_symmetry_multiplicity
 _atom_site_fract_x
 _atom_site_fract_y
 _atom_site_fract_z
 _atom_site_occupancy
  V  V0  1  0.11922096  0.24691066  0.36118029  1
  V  V1  1  0.85291350  -0.00133053  0.37939724  1
  V  V2  1  0.22868938  0.48937337  0.26390505  1
  V  V3  1  0.24068325  0.86665263  0.12188558  1
  V  V4  1  0.37640371  0.86776677  0.50942966  1
  V  V5  1  0.74372079  0.23954336  0.50126635  1
  V  V6  1  0.13618235  0.75528211  0.37660710  1
  V  V7  1  0.38784806  0.75238173  0.13534304  1
  V  V8  1  0.24057144  -0.00443271  0.25338260  1
  V  V9  1  0.76017579  0.00690481  0.74509724  1
  V  V10  1  0.50755636  0.61089078  0.12909933  1
  V  V11  1  0.35798261  0.36158222  0.00779270  1
  V  V12  1  0.37327278  -0.00101898  0.37641194  1
  V  V13  1  0.74439971  0.13007115  0.87024705  1
  V  V14  1  0.87944535  0.00723087  0.86777903  1
  V  V15  1  0.37395153  0.61354453  0.26526937  1
  V  V16  1  0.38106729  0.62521277  0.72777901  1
  V  V17  1  0.23763774  0.12226458  0.38288030  1
  V  V18  1  0.12506443  0.25523034  0.88299467  1
  V  V19  1  0.76264947  0.75290833  0.49960190  1
  V  V20  1  0.12201378  0.01439071  0.12571521  1
  V  V21  1  0.90079202  0.49828239  0.89338955  1
  V  V22  1  0.24614222  0.12666002  0.89190435  1
  V  V23  1  0.75285531  0.62597620  0.37052120  1
  V  V24  1  0.87412311  0.73993310  0.63462957  1
  V  V25  1  0.87265668  0.87696849  0.00272473  1
  V  V26  1  0.50949718  0.86409519  0.36527313  1
  V  V27  1  0.12714848  0.01844839  0.63939085  1
  V  V28  1  0.24356272  0.88189400  0.63776536  1
  V  V29  1  0.36819104  0.12093546  0.74214883  1
  V  V30  1  0.87773164  0.73255740  0.11638312  1
  V  V31  1  0.63469985  -0.01256603  0.13632357  1
  V  V32  1  0.00510536  0.75168383  0.24335617  1
  V  V33  1  0.23474141  0.25524920  0.50828573  1
  V  V34  1  0.24626926  0.74117918  0.51043898  1
  V  V35  1  0.50325218  0.01453085  0.50272386  1
  V  V36  1  0.37726367  0.00113714  0.87881974  1
  V  V37  1  0.37507598  0.13186731  0.24273410  1
  V  V38  1  0.25234625  0.49089831  0.74475007  1
  V  V39  1  0.12484065  0.51297164  0.62290864  1
  V  V40  1  0.63007044  0.23692509  0.36499984  1
  V  V41  1  0.88040266  0.49805025  0.36694970  1
  V  V42  1  0.74836581  0.53375247  0.74950682  1
  V  V43  1  0.37652098  0.26424861  0.61869339  1
  V  V44  1  0.76077232  0.25695383  -0.00336740  1
  V  V45  1  0.73508549  0.49404706  0.24580567  1
  V  V46  1  0.49756391  0.37557412  0.88085926  1
  V  V47  1  0.61907385  0.88370559  0.76532033  1
  V  V48  1  0.38221844  0.86668631  -0.00351184  1
  V  V49  1  -0.00227411  0.50495026  0.51793147  1
  V  V50  1  0.74609722  0.74661638  -0.01482718  1
  V  V51  1  0.62826408  0.49323857  0.61632981  1
  V  V52  1  0.86884435  0.37388592  0.51803466  1
  V  V53  1  0.37274667  0.50576303  0.88937319  1
  V  V54  1  0.75177885  0.87769481  0.61977685  1
  V  V55  1  0.11342138  0.37418116  0.74097241  1
  V  V56  1  0.62899470  0.37128203  0.74698279  1
  V  V57  1  0.00828781  0.87535820  0.85891659  1
  V  V58  1  0.49457763  0.49398940  0.49740015  1
  V  V59  1  0.00860302  0.00637811  0.00143046  1
  V  V60  1  0.87580790  0.23256633  0.62996612  1
  V  V61  1  -0.00292150  0.23212614  0.74770801  1
  V  V62  1  0.13089011  0.74410020  0.88193592  1
  V  V63  1  0.49673107  0.24907175  0.74760004  1
  V  V64  1  0.00405603  0.36949957  0.37255545  1
  V  V65  1  0.88525385  0.25148703  0.13035419  1
  V  V66  1  0.00487334  0.73112775  0.74361177  1
  V  V67  1  0.62380700  0.63378880  0.49920148  1
  V  V68  1  0.62379704  0.01520124  0.62055806  1
  V  V69  1  0.62045842  0.60772449  -0.00582577  1
  V  V70  1  0.50511658  0.37156665  0.36261684  1
  V  V71  1  0.01387589  0.00248000  0.49844824  1
  V  V72  1  0.62037448  0.13276337  0.01091381  1
  Zn  Zn73  1  0.24806284  0.62864848  0.86884446  1
  Zn  Zn74  1  0.50149804  0.00496044  0.00547211  1
  Zn  Zn75  1  0.51510357  0.23903995  0.22491397  1
  Zn  Zn76  1  0.01130702  0.60382530  0.11182129  1
  Zn  Zn77  1  0.75084031  0.37888403  0.12650295  1
  Zn  Zn78  1  0.48925226  0.75572715  0.74536580  1
  Zn  Zn79  1  0.60511782  0.74727025  0.87581506  1
  Zn  Zn80  1  -0.11872890  0.12281379  0.25159357  1
  Zn  Zn81  1  0.36597869  0.38288410  0.48991749  1
  Zn  Zn82  1  0.05669919  0.18781827  0.18401658  1
  Zn  Zn83  1  0.19389418  0.19215549  0.69331684  1
  Zn  Zn84  1  0.19614016  0.68776754  0.19749256  1
  Zn  Zn85  1  0.19265879  0.68925488  0.69120248  1
  Zn  Zn86  1  0.70185617  0.18138365  0.18607696  1
  Zn  Zn87  1  0.69120527  0.19421285  0.68644120  1
  Zn  Zn88  1  0.70566407  0.67434961  0.17093306  1
  Zn  Zn89  1  0.65175410  0.70335866  0.67718404  1
  Zn  Zn90  1  0.31140689  0.31516221  0.31603132  1
  Zn  Zn91  1  0.31090525  0.31243027  0.81650303  1
  Zn  Zn92  1  0.31719960  0.81323018  0.31368075  1
  Zn  Zn93  1  0.31979554  0.80877105  0.81330779  1
  Zn  Zn94  1  0.81260146  0.31279286  0.31557255  1
  Zn  Zn95  1  0.81962620  0.31960736  0.81720726  1
  Zn  Zn96  1  0.84795041  0.79579879  0.32200998  1
  Zn  Zn97  1  0.81372723  0.81870692  0.80759824  1
  Zn  Zn98  1  0.18718478  0.44242094  0.43231837  1
  Zn  Zn99  1  0.18345151  0.43544730  0.93241299  1
  Zn  Zn100  1  0.18046684  0.93005100  0.44516228  1
  Zn  Zn101  1  0.19345232  0.93400627  0.93463185  1
  Zn  Zn102  1  0.68918467  0.42786976  0.43038260  1
  Zn  Zn103  1  0.69136547  0.43867213  0.92485814  1
  Zn  Zn104  1  0.68625685  0.93837332  0.43242340  1
  Zn  Zn105  1  0.69231019  0.94813563  0.94635502  1
  Zn  Zn106  1  0.30999057  0.05913756  0.06273732  1
  Zn  Zn107  1  0.30957170  0.06417161  0.56151305  1
  Zn  Zn108  1  0.31545481  0.54906177  0.08736799  1
  Zn  Zn109  1  0.30839914  0.55759204  0.55867857  1
  Zn  Zn110  1  0.81325322  0.07023924  0.06589595  1
  Zn  Zn111  1  0.81942826  0.05859752  0.55397526  1
  Zn  Zn112  1  0.80863883  0.55683069  0.04956841  1
  Zn  Zn113  1  0.80896344  0.56092398  0.56709285  1
  Zn  Zn114  1  0.43668260  0.43101924  0.18604102  1
  Zn  Zn115  1  0.44146931  0.44219414  0.68667234  1
  Zn  Zn116  1  0.44560706  0.94547193  0.18507204  1
  Zn  Zn117  1  0.43763678  0.94427327  0.68674155  1
  Zn  Zn118  1  0.93612533  0.42448938  0.18382194  1
  Zn  Zn119  1  0.91870996  0.43690970  0.71278517  1
  Zn  Zn120  1  0.93459487  0.93174829  0.18976078  1
  Zn  Zn121  1  0.95296102  0.92603692  0.65642540  1
  Zn  Zn122  1  0.02865435  0.03673102  0.30173940  1
  Zn  Zn123  1  0.07240941  0.06167281  0.81266875  1
  Zn  Zn124  1  0.06395725  0.58469256  0.31340184  1
  Zn  Zn125  1  0.06093450  0.55971727  0.82081411  1
  Zn  Zn126  1  0.56253218  0.05974113  0.31083792  1
  Zn  Zn127  1  0.56062266  0.06456669  0.81258394  1
  Zn  Zn128  1  0.55811047  0.56638924  0.31522882  1
  Zn  Zn129  1  0.56058062  0.55845386  0.81117869  1
  Zn  Zn130  1  0.43513435  0.19127437  0.42890806  1
  Zn  Zn131  1  0.43592719  0.19095394  0.93727864  1
  Zn  Zn132  1  0.44080831  0.68875999  0.44298337  1
  Zn  Zn133  1  0.44172723  0.68866302  0.93737415  1
  Zn  Zn134  1  0.94025652  0.17621131  0.44058940  1
  Zn  Zn135  1  0.94146470  0.19039746  0.93610089  1
  Zn  Zn136  1  0.95470897  0.68226897  0.43323229  1
  Zn  Zn137  1  0.94230000  0.67795948  0.93490654  1
  Zn  Zn138  1  0.07753031  0.32184141  0.07200532  1
  Zn  Zn139  1  0.05444808  0.31681590  0.56714395  1
  Zn  Zn140  1  0.05649306  0.81569342  0.05681074  1
  Zn  Zn141  1  0.06484862  0.82027960  0.56303823  1
  Zn  Zn142  1  0.57366527  0.31811955  0.06260965  1
  Zn  Zn143  1  0.56039626  0.31029516  0.56145098  1
  Zn  Zn144  1  0.56543100  0.81711138  0.06460426  1
  Zn  Zn145  1  0.56036356  0.82156171  0.56923246  1
  O  O146  1  0.12263475  0.11325311  0.12048618  1
  O  O147  1  0.14361156  0.11721363  0.62599343  1
  O  O148  1  0.16263049  0.63331872  0.09280181  1
  O  O149  1  0.12330487  0.61151528  0.63066160  1
  O  O150  1  0.62685874  0.12801449  0.11311684  1
  O  O151  1  0.63076096  0.11465087  0.62866789  1
  O  O152  1  0.61510506  0.63115994  0.11575169  1
  O  O153  1  0.62672382  0.60817018  0.60339826  1
  O  O154  1  0.39782646  0.35851586  0.38023789  1
  O  O155  1  0.37722997  0.38565063  0.88175867  1
  O  O156  1  0.37630571  0.88412898  0.38761757  1
  O  O157  1  0.36208409  0.88427351  0.89008632  1
  O  O158  1  0.88287261  0.38189269  0.38813333  1
  O  O159  1  0.87897458  0.41344091  0.82901904  1
  O  O160  1  0.85045793  0.89599113  0.36585338  1
  O  O161  1  0.88600753  0.88715936  0.87696365  1
  O  O162  1  0.24931003  0.00010148  0.37544792  1
  O  O163  1  0.25801156  0.01570238  0.88063758  1
  O  O164  1  0.25113828  0.50889558  0.36923112  1
  O  O165  1  0.25709585  0.50277259  0.86650378  1
  O  O166  1  0.75306049  0.01668150  0.38660876  1
  O  O167  1  0.76017010  0.01121993  0.86655242  1
  O  O168  1  0.76148463  0.50182113  0.36818366  1
  O  O169  1  0.74237807  0.50698425  0.84858888  1
  O  O170  1  0.24988497  0.49672772  0.15922042  1
  O  O171  1  0.23469488  0.49928252  0.62801431  1
  O  O172  1  0.23538243  0.99379303  0.13120980  1
  O  O173  1  0.24594503  0.98843948  0.61953542  1
  O  O174  1  0.76142857  0.51073219  0.14633282  1
  O  O175  1  0.73323342  0.49786518  0.63097895  1
  O  O176  1  0.73697007  1.00535527  0.11638298  1
  O  O177  1  0.74749429  0.99822730  0.62615557  1
  O  O178  1  -0.00436122  0.37594726  0.27373337  1
  O  O179  1  0.01177039  0.37074506  0.74648359  1
  O  O180  1  0.00850604  0.85193031  0.22928544  1
  O  O181  1  -0.00470691  0.87489918  0.75827535  1
  O  O182  1  0.50056894  0.36901646  0.25996385  1
  O  O183  1  0.50258007  0.36850872  0.75290105  1
  O  O184  1  0.48823893  0.87834714  0.26709231  1
  O  O185  1  0.51613311  0.88301200  0.74496527  1
  O  O186  1  0.48057133  0.12868229  0.26051511  1
  O  O187  1  0.48514677  0.14045513  0.76100225  1
  O  O188  1  0.49498715  0.62568154  0.23750259  1
  O  O189  1  0.48179100  0.61484195  0.74980936  1
  O  O190  1  0.99509089  0.13204884  0.25595783  1
  O  O191  1  1.00181241  0.13399321  0.75094104  1
  O  O192  1  1.01606641  0.63978883  0.22172215  1
  O  O193  1  1.00006799  0.63259899  0.74923198  1
  O  O194  1  0.36980071  0.26209335  -0.00442566  1
  O  O195  1  0.37280663  0.24945159  0.51234408  1
  O  O196  1  0.37479751  0.76081219  0.01088879  1
  O  O197  1  0.36648893  0.76143242  0.49845620  1
  O  O198  1  0.86940526  0.24801545  0.00338300  1
  O  O199  1  0.87488708  0.25687032  0.51256946  1
  O  O200  1  0.87301973  0.75989454  -0.00204865  1
  O  O201  1  0.86847066  0.74693324  0.51032288  1
  O  O202  1  0.13376464  0.25210395  0.50924055  1
  O  O203  1  0.11301772  0.26403981  0.98187941  1
  O  O204  1  0.14032812  0.75625256  0.50027428  1
  O  O205  1  0.11941621  0.75598432  0.98038968  1
  O  O206  1  0.64041263  0.25111878  0.50433092  1
  O  O207  1  0.64442644  0.23945690  0.99737998  1
  O  O208  1  0.63413137  0.73600263  0.50256073  1
  O  O209  1  0.63965939  0.76104991  0.99020643  1
  O  O210  1  0.49825277  0.26239568  0.11901358  1
  O  O211  1  0.48555745  0.25165324  0.63112685  1
  O  O212  1  0.49016518  0.75239744  0.12714738  1
  O  O213  1  0.54395971  0.74186242  0.64629774  1
  O  O214  1  0.99537812  0.26615679  0.12329306  1
  O  O215  1  0.98913647  0.24891949  0.63563273  1
  O  O216  1  0.98887057  0.74861365  0.12073887  1
  O  O217  1  0.98792568  0.75495525  0.63518651  1
  O  O218  1  0.00885215  0.25867175  0.38826907  1
  O  O219  1  0.01123538  0.24520658  0.85965927  1
  O  O220  1  -0.04052031  0.74995125  0.34021909  1
  O  O221  1  0.00375243  0.75870210  0.86080207  1
  O  O222  1  0.51585123  0.25615383  0.37703525  1
  O  O223  1  0.48733552  0.26756203  0.86056096  1
  O  O224  1  0.49860267  0.76475875  0.38084891  1
  O  O225  1  0.49223854  0.75438362  0.86139051  1
  O  O226  1  0.25564626  0.13965984  0.49033213  1
  O  O227  1  0.25115540  0.12979116  0.99161427  1
  O  O228  1  0.25452168  0.64208534  0.50570485  1
  O  O229  1  0.21914280  0.61983455  1.04133007  1
  O  O230  1  0.75758053  0.14141078  0.50086638  1
  O  O231  1  0.74630551  0.13179428  0.98601094  1
  O  O232  1  0.74393724  0.62954421  0.49324843  1
  O  O233  1  0.73199311  0.63596520  1.00089617  1
  O  O234  1  0.25785420  0.37621214  -0.00528119  1
  O  O235  1  0.25113614  0.35895402  0.49125196  1
  O  O236  1  0.26200064  0.88218366  0.01663473  1
  O  O237  1  0.26273881  0.86970193  0.50932798  1
  O  O238  1  0.75135012  0.35496108  -0.02642098  1
  O  O239  1  0.76546161  0.36728163  0.49872760  1
  O  O240  1  0.76625311  0.86775302  -0.01225323  1
  O  O241  1  0.73860128  0.86189931  0.50753899  1
  O  O242  1  0.12639903  0.50565887  0.26655672  1
  O  O243  1  0.12771653  0.49106197  0.74257916  1
  O  O244  1  0.12520869  1.00001493  0.23496504  1
  O  O245  1  0.13696908  1.00370932  0.74093099  1
  O  O246  1  0.63602755  0.50313543  0.25378569  1
  O  O247  1  0.62549521  0.49224989  0.73595290  1
  O  O248  1  0.62747481  1.00484120  0.23744467  1
  O  O249  1  0.63376751  1.00053268  0.74191651  1
  O  O250  1  0.36672828  0.00397895  0.26263187  1
  O  O251  1  0.37974777  0.01589392  0.75737947  1
  O  O252  1  0.38216439  0.51202182  0.25207888  1
  O  O253  1  0.36731334  0.50560170  0.75289912  1
  O  O254  1  0.90620409  0.00149092  0.27197644  1
  O  O255  1  0.86599544  -0.00334747  0.75256147  1
  O  O256  1  0.88294646  0.49743464  0.26607234  1
  O  O257  1  0.84763648  0.52659918  0.72268120  1
  O  O258  1  0.11075465  0.36280648  0.38743490  1
  O  O259  1  0.13059182  0.36177437  0.85783464  1
  O  O260  1  0.11253168  0.85272444  0.38630863  1
  O  O261  1  0.11395475  0.86914404  0.87280521  1
  O  O262  1  0.61469669  0.35907439  0.37896387  1
  O  O263  1  0.60560013  0.38701122  0.85869066  1
  O  O264  1  0.60922887  0.87950224  0.37581991  1
  O  O265  1  0.62475585  0.89913910  0.86547891  1
  O  O266  1  0.36493166  0.11504492  0.14414955  1
  O  O267  1  0.37028576  0.13053221  0.63836421  1
  O  O268  1  0.38806461  0.63676654  0.12618852  1
  O  O269  1  0.37824357  0.61863655  0.62824455  1
  O  O270  1  0.88210587  0.14466407  0.11966134  1
  O  O271  1  0.87379492  0.13408931  0.62748821  1
  O  O272  1  0.88123324  0.63077449  0.10610084  1
  O  O273  1  0.86747287  0.64228225  0.62393717  1
  O  O274  1  0.22934492  0.26796348  0.12873662  1
  O  O275  1  0.26101734  0.24942004  0.61469598  1
  O  O276  1  0.26027902  0.76421399  0.13240252  1
  O  O277  1  0.24720172  0.76195695  0.61651254  1
  O  O278  1  0.76053211  0.25251928  0.10758321  1
  O  O279  1  0.76556635  0.25090738  0.61715427  1
  O  O280  1  0.76759618  0.74530363  0.10257341  1
  O  O281  1  0.75534218  0.75690941  0.61977513  1
  O  O282  1  0.23363498  0.24409384  0.38530428  1
  O  O283  1  0.23680729  0.24166583  0.87170692  1
  O  O284  1  0.24256219  0.75274203  0.38558810  1
  O  O285  1  0.23535067  0.75056397  0.86813847  1
  O  O286  1  0.74035108  0.25552954  0.38820174  1
  O  O287  1  0.76761406  0.23421089  0.87658307  1
  O  O288  1  0.76788880  0.73061076  0.38198298  1
  O  O289  1  0.76171216  0.74796176  0.88501066  1
  O  O290  1  -0.00003356  0.10486418  -0.00853390  1
  O  O291  1  -0.00106193  0.10454290  0.50625060  1
  O  O292  1  0.01654414  0.63038150  0.00345016  1
  O  O293  1  -0.01481199  0.60308717  0.51107427  1
  O  O294  1  0.51846417  0.13303965  -0.01060952  1
  O  O295  1  0.49197397  0.11241018  0.49562925  1
  O  O296  1  0.51165421  0.63157404  0.01389621  1
  O  O297  1  0.51742793  0.60939428  0.48429973  1
  O  O298  1  0.49952930  0.38501626  0.49512137  1
  O  O299  1  0.49464884  0.37160640  0.98176771  1
  O  O300  1  0.48796373  0.87882817  0.49601312  1
  O  O301  1  0.48496306  0.87623565  1.00023051  1
  O  O302  1  0.98645216  0.38184542  0.49779182  1
  O  O303  1  1.05369022  0.44209174  1.04934293  1
  O  O304  1  0.98855647  0.90029982  0.54124683  1
  O  O305  1  0.99023365  0.88164848  0.98366915  1
  O  O306  1  0.51179828  0.48319564  0.38516427  1
  O  O307  1  0.48000603  0.48939140  0.86853291  1
  O  O308  1  0.49138203  0.99315139  0.38697519  1
  O  O309  1  0.48243433  1.00891831  0.88000483  1
  O  O310  1  0.99089351  0.49160977  0.39190270  1
  O  O311  1  1.00453779  0.49140635  0.89000532  1
  O  O312  1  1.02312036  0.98304920  0.39882828  1
  O  O313  1  1.00159405  0.99148209  0.87870573  1
  O  O314  1  0.01137809  -0.00934649  0.11173412  1
  O  O315  1  0.02100956  0.01470918  0.63354001  1
  O  O316  1  0.01667934  0.48301975  0.12104215  1
  O  O317  1  0.00782645  0.49195484  0.62368331  1
  O  O318  1  0.51909716  0.00074078  0.12008839  1
  O  O319  1  0.50645430  0.00042845  0.61108874  1
  O  O320  1  0.49939011  0.51270590  0.12392055  1
  O  O321  1  0.51107945  0.49667617  0.60771852  1
  O  O322  1  0.24019756  0.38673006  0.27156204  1
  O  O323  1  0.24369942  0.38563473  0.75160559  1
  O  O324  1  0.25722563  0.88780643  0.23927788  1
  O  O325  1  0.26786306  0.87415760  0.73454608  1
  O  O326  1  0.75331276  0.39121731  0.25250022  1
  O  O327  1  0.72840281  0.36570898  0.75622766  1
  O  O328  1  0.70918940  0.82934493  0.25622056  1
  O  O329  1  0.74248240  0.89188004  0.74446408  1
  O  O330  1  0.25576648  0.10654981  0.26728854  1
  O  O331  1  0.26587024  0.13248389  0.76182540  1
  O  O332  1  0.26779390  0.61930626  0.25358233  1
  O  O333  1  0.26107443  0.61181118  0.74748442  1
  O  O334  1  0.77050196  0.11103425  0.23660873  1
  O  O335  1  0.74764202  0.12082248  0.75999553  1
  O  O336  1  0.74957270  0.61765673  0.26520698  1
  O  O337  1  0.71907098  0.62936371  0.74001154  1
  O  O338  1  0.36274836  0.11369954  0.37376125  1
  O  O339  1  0.36340767  0.12290883  0.87198405  1
  O  O340  1  0.38751837  0.62774620  0.36322058  1
  O  O341  1  0.36811658  0.61280177  0.88060467  1
  O  O342  1  0.88087897  0.11037397  0.37146762  1
  O  O343  1  0.87136070  0.11173002  0.87879739  1
  O  O344  1  0.86641316  0.60403809  0.38813451  1
  O  O345  1  0.88344232  0.59902534  0.87604246  1
  O  O346  1  0.18837639  0.32984139  0.13042542  1
  O  O347  1  0.12647206  0.37916630  0.63742923  1
  O  O348  1  0.13835593  0.87258953  0.11849014  1
  O  O349  1  0.14048700  0.87974631  0.63355916  1
  O  O350  1  0.64474123  0.39390297  0.09670435  1
  O  O351  1  0.61924481  0.38347355  0.63438151  1
  O  O352  1  0.63241154  0.88605426  0.12119835  1
  O  O353  1  0.63689690  0.89089819  0.63351298  1
  O  O354  1  0.12111647  0.25258180  0.26291065  1
  O  O355  1  0.11433033  0.25798033  0.74813275  1
  O  O356  1  0.12023727  0.74676067  0.26531477  1
  O  O357  1  0.10999588  0.74721179  0.75332593  1
  O  O358  1  0.63205762  0.24224146  0.26023015  1
  O  O359  1  0.61145961  0.26193400  0.73882867  1
  O  O360  1  0.66092271  0.77437640  0.24434853  1
  O  O361  1  0.64234057  0.77996646  0.76850018  1
  O  O362  1  0.36129894  0.23186181  0.25589970  1
  O  O363  1  0.37637100  0.24786820  0.73781568  1
  O  O364  1  0.37247848  0.74124689  0.23934557  1
  O  O365  1  0.37036832  0.72899769  0.74713686  1
  O  O366  1  0.86895378  0.25115616  0.23486375  1
  O  O367  1  0.88640500  0.25306022  0.74141780  1
  O  O368  1  0.87548618  0.75080551  0.21891531  1
  O  O369  1  0.88362973  0.75079043  0.74175280  1
  O  O370  1  0.39028269  0.50031535  0.50126826  1
  O  O371  1  0.36543665  0.49816562  0.99120691  1
  O  O372  1  0.38193018  0.99284536  0.49568872  1
  O  O373  1  0.37776575  0.99125359  0.99702221  1
  O  O374  1  0.87864258  0.48687040  0.50552492  1
  O  O375  1  0.86505967  0.48022203  0.98830106  1
  O  O376  1  0.88530501  0.99923926  0.48364253  1
  O  O377  1  0.88482227  0.99166263  0.99238548  1
  O  O378  1  0.11684325  -0.00734316  0.00772546  1
  O  O379  1  0.12206441  -0.00486273  0.51920882  1
  O  O380  1  0.11539339  0.48502839  0.02098859  1
  O  O381  1  0.11168318  0.49286055  0.51396883  1
  O  O382  1  0.62507537  0.01794703  0.00511681  1
  O  O383  1  0.61021624  -0.00190436  0.50495728  1
  O  O384  1  0.62990307  0.50939398  -0.00493104  1
  O  O385  1  0.62465495  0.49530038  0.50605978  1
  O  O386  1  0.37501388  0.38251577  0.10586199  1
  O  O387  1  0.37525367  0.36656904  0.62066433  1
  O  O388  1  0.37220467  0.86715198  0.11925519  1
  O  O389  1  0.37221198  0.88054654  0.61325770  1
  O  O390  1  0.86677142  0.36096920  0.12135961  1
  O  O391  1  0.87769712  0.37048497  0.62012650  1
  O  O392  1  0.87970613  0.87381061  0.10478580  1
  O  O393  1  0.85583295  0.86588053  0.63341878  1
  O  O394  1  0.12846772  0.13928603  0.37584879  1
  O  O395  1  0.13719657  0.13699802  0.87285972  1
  O  O396  1  0.07705830  0.66656544  0.39405004  1
  O  O397  1  0.12902125  0.63741197  0.87221645  1
  O  O398  1  0.61921782  0.13826501  0.37890787  1
  O  O399  1  0.64066625  0.12323547  0.87804470  1
  O  O400  1  0.64331395  0.61525638  0.38642671  1
  O  O401  1  0.61087844  0.62645756  0.89049911  1
