# generated using pymatgen
data_V73Zn73O256
_symmetry_space_group_name_H-M   'P 1'
_cell_length_a   16.87079982
_cell_length_b   16.87619277
_cell_length_c   16.90443285
_cell_angle_alpha   90.14760816
_cell_angle_beta   90.29961583
_cell_angle_gamma   89.90162077
_symmetry_Int_Tables_number   1
_chemical_formula_structural   V73Zn73O256
_chemical_formula_sum   'V73 Zn73 O256'
_cell_volume   4812.85463885
_cell_formula_units_Z   1
loop_
 _symmetry_equiv_pos_site_id
 _symmetry_equiv_pos_as_xyz
  1  'x, y, z'
loop_
 _atom_site_type_symbol
 _atom_site_label
 _atom_site_symmetry_multiplicity
 _atom_site_fract_x
 _atom_site_fract_y
 _atom_site_fract_z
 _atom_site_occupancy
  V  V0  1  0.37055726  0.12639739  0.73826006  1
  V  V1  1  -0.00247623  -0.00163199  0.49697160  1
  V  V2  1  0.63916394  0.12281205  0.49176071  1
  V  V3  1  0.73877783  0.00976555  0.24590902  1
  V  V4  1  0.00350404  0.37709833  0.86592542  1
  V  V5  1  0.37558513  0.37975234  -0.01363193  1
  V  V6  1  0.38628425  0.88938475  0.01647016  1
  V  V7  1  0.00547520  0.49639686  0.00101188  1
  V  V8  1  0.25906884  0.25172917  0.00340919  1
  V  V9  1  0.49723444  0.26536973  0.74002662  1
  V  V10  1  0.51246978  0.88934263  0.87678577  1
  V  V11  1  0.75268446  0.36945945  0.62027707  1
  V  V12  1  0.89890038  -0.01289604  0.87104360  1
  V  V13  1  0.86998217  0.49613761  0.37949919  1
  V  V14  1  0.84139094  0.51627309  0.90108146  1
  V  V15  1  -0.00840295  0.85551019  0.37201975  1
  V  V16  1  0.49607107  0.49838956  -0.01106603  1
  V  V17  1  0.25798466  0.12871971  0.87344251  1
  V  V18  1  0.88316813  0.14185300  0.76006602  1
  V  V19  1  0.64472735  0.85240391  0.76011719  1
  V  V20  1  0.12703868  0.85277501  0.26380769  1
  V  V21  1  0.61820413  0.48837519  0.61166667  1
  V  V22  1  0.12378750  0.25704887  0.86027151  1
  V  V23  1  0.24211297  0.74381770  0.50824096  1
  V  V24  1  0.60974504  0.36351812  0.25905398  1
  V  V25  1  0.24675715  0.63563864  0.36766692  1
  V  V26  1  0.25157432  0.00172358  0.75052919  1
  V  V27  1  0.85803786  0.86590221  0.51491880  1
  V  V28  1  0.87805399  0.36757752  0.00537338  1
  V  V29  1  0.85425265  0.62871199  0.73120685  1
  V  V30  1  -0.00297119  0.49033680  0.50089687  1
  V  V31  1  0.22877646  0.86368832  0.12380005  1
  V  V32  1  0.38101354  0.75514245  0.63385379  1
  V  V33  1  0.00514262  0.64030002  0.62424521  1
  V  V34  1  0.00999757  -0.00350519  0.01387256  1
  V  V35  1  0.12807109  0.12728810  0.01800437  1
  V  V36  1  0.87566075  0.62780844  0.24626755  1
  V  V37  1  0.00453136  0.12993824  0.62354186  1
  V  V38  1  0.12120029  0.87437008  0.76402374  1
  V  V39  1  0.73493261  0.35677340  0.11300036  1
  V  V40  1  0.49901073  0.62122004  0.62468173  1
  V  V41  1  0.74246811  0.49227347  0.75332335  1
  V  V42  1  0.49855385  -0.02084718  0.49080880  1
  V  V43  1  0.25318705  0.49531608  0.76388025  1
  V  V44  1  0.38270939  0.61792920  0.76323137  1
  V  V45  1  0.62429244  0.63879167  0.49437019  1
  V  V46  1  0.37238965  0.11554653  0.26626320  1
  V  V47  1  0.51674832  0.10218431  0.63223654  1
  V  V48  1  0.36677473  0.24781235  0.60508046  1
  V  V49  1  0.12448599  0.49281229  0.63042867  1
  V  V50  1  0.12568740  0.00182089  0.61869409  1
  V  V51  1  0.25347603  0.37540449  0.60891693  1
  V  V52  1  0.62498687  0.87028026  0.27092687  1
  V  V53  1  0.48676997  0.11936664  0.10594176  1
  V  V54  1  0.12403415  0.49412629  0.13407030  1
  V  V55  1  0.86506187  0.00764533  0.37086528  1
  V  V56  1  0.01477554  0.37315146  0.36227754  1
  V  V57  1  0.75325900  0.01195132  0.75843865  1
  V  V58  1  0.81827070  0.31633201  0.44028842  1
  V  V59  1  0.74364062  0.63953231  0.37411699  1
  V  V60  1  0.38257371  0.49922088  0.39536144  1
  V  V61  1  0.87514102  0.23109409  0.13158682  1
  V  V62  1  0.25712872  0.37282894  0.13411236  1
  V  V63  1  0.01402070  0.23363532  0.24692811  1
  V  V64  1  0.25195568  0.87619166  0.62599087  1
  V  V65  1  0.61870400  0.50679673  0.12118578  1
  V  V66  1  0.13694595  0.63559390  -0.00896070  1
  V  V67  1  -0.00400339  0.63641027  0.12633311  1
  V  V68  1  0.74281947  0.48758668  0.25085655  1
  V  V69  1  0.25822550  0.50628403  0.25087943  1
  V  V70  1  0.87899668  0.25512389  0.62099224  1
  V  V71  1  0.00008589  0.75251730  0.76782060  1
  V  V72  1  0.48240442  0.63556480  0.12104362  1
  Zn  Zn73  1  0.61196960  -0.00316591  0.09670784  1
  Zn  Zn74  1  0.69285489  0.20291780  -0.03030664  1
  Zn  Zn75  1  0.51750386  0.75903171  0.21891843  1
  Zn  Zn76  1  0.69742174  0.65734586  -0.07464523  1
  Zn  Zn77  1  0.75677469  0.86004564  0.10150134  1
  Zn  Zn78  1  0.62181579  0.27484363  0.84097777  1
  Zn  Zn79  1  0.11706043  0.62849038  0.49446355  1
  Zn  Zn80  1  0.68425540  -0.05177400  0.59240615  1
  Zn  Zn81  1  0.47975327  0.25123961  0.23221535  1
  Zn  Zn82  1  0.20281346  0.19008260  0.19994601  1
  Zn  Zn83  1  0.18746285  0.19086457  0.68011060  1
  Zn  Zn84  1  0.18190344  0.69377940  0.18729705  1
  Zn  Zn85  1  0.21620349  0.71003870  0.74020525  1
  Zn  Zn86  1  0.66976803  0.18012093  0.17754517  1
  Zn  Zn87  1  0.69292953  0.18589958  0.68390746  1
  Zn  Zn88  1  0.69311261  0.68809053  0.18060816  1
  Zn  Zn89  1  0.68175161  0.66717712  0.69817913  1
  Zn  Zn90  1  0.33171727  0.32311470  0.31119053  1
  Zn  Zn91  1  0.31436961  0.31281228  0.80553334  1
  Zn  Zn92  1  0.24407223  0.99138925  0.26202684  1
  Zn  Zn93  1  0.33759467  0.79798261  0.85350496  1
  Zn  Zn94  1  0.81192222  0.17914931  0.30826738  1
  Zn  Zn95  1  0.81475232  0.31732282  0.81654078  1
  Zn  Zn96  1  0.83076064  0.83376270  0.28038165  1
  Zn  Zn97  1  0.81910153  0.81607317  0.80894440  1
  Zn  Zn98  1  0.18661628  0.44857089  0.43391481  1
  Zn  Zn99  1  0.18420932  0.43985950  0.94467995  1
  Zn  Zn100  1  0.18124009  0.92252637  0.43533904  1
  Zn  Zn101  1  0.20617747  0.94803707  0.94725312  1
  Zn  Zn102  1  0.67743238  0.44283659  0.43464666  1
  Zn  Zn103  1  0.68345177  0.38382893  0.93864746  1
  Zn  Zn104  1  0.68243685  0.93925519  0.43030807  1
  Zn  Zn105  1  0.71425822  0.93391693  0.93407589  1
  Zn  Zn106  1  0.31318943  0.04599806  0.08195264  1
  Zn  Zn107  1  0.33166166  0.03046283  0.43003711  1
  Zn  Zn108  1  0.31260310  0.56379125  0.05915603  1
  Zn  Zn109  1  0.31002792  0.56381742  0.56788523  1
  Zn  Zn110  1  0.81444209  0.03253769  0.04901301  1
  Zn  Zn111  1  0.82104778  0.06303372  0.56723630  1
  Zn  Zn112  1  0.80724707  0.55558694  0.06886712  1
  Zn  Zn113  1  0.80721615  0.57249429  0.56694604  1
  Zn  Zn114  1  0.43661058  0.44288527  0.18822631  1
  Zn  Zn115  1  0.42743779  0.44174924  0.67544431  1
  Zn  Zn116  1  0.43747911  0.93950971  0.19269956  1
  Zn  Zn117  1  0.44263769  0.92732277  0.71856681  1
  Zn  Zn118  1  0.92985416  0.43335554  0.18644646  1
  Zn  Zn119  1  0.92865344  0.44148461  0.68513395  1
  Zn  Zn120  1  0.93252099  0.93244421  0.18329282  1
  Zn  Zn121  1  0.93780041  0.94087172  0.68903180  1
  Zn  Zn122  1  0.06264170  0.04615786  0.30780367  1
  Zn  Zn123  1  0.07045119  0.07179582  0.80913946  1
  Zn  Zn124  1  0.06311353  0.56544341  0.31278584  1
  Zn  Zn125  1  0.06579115  0.56410325  0.81097803  1
  Zn  Zn126  1  0.55412271  0.06309223  0.31326330  1
  Zn  Zn127  1  0.60267838  0.06892714  0.87487201  1
  Zn  Zn128  1  0.55424545  0.57130945  0.30473425  1
  Zn  Zn129  1  0.56963402  0.54028265  0.81100503  1
  Zn  Zn130  1  0.44819295  0.17383286  0.44774664  1
  Zn  Zn131  1  0.47207395  0.18015658  0.91813664  1
  Zn  Zn132  1  0.42274434  0.67728463  0.45311050  1
  Zn  Zn133  1  0.50791388  0.67834722  0.91200801  1
  Zn  Zn134  1  0.95567928  0.18506259  0.43386275  1
  Zn  Zn135  1  0.94932346  0.19015707  0.94645456  1
  Zn  Zn136  1  0.92226254  0.68385956  0.44742217  1
  Zn  Zn137  1  0.93595403  0.67896942  0.93394489  1
  Zn  Zn138  1  0.06579269  0.30762145  0.06751283  1
  Zn  Zn139  1  0.05994982  0.32328030  0.56586842  1
  Zn  Zn140  1  0.06300594  0.81605898  0.06133292  1
  Zn  Zn141  1  0.05998714  0.82165145  0.56267423  1
  Zn  Zn142  1  0.55512106  0.31047957  0.06863724  1
  Zn  Zn143  1  0.56261472  0.29800253  0.56367774  1
  Zn  Zn144  1  0.57531989  0.81183148  0.03356013  1
  Zn  Zn145  1  0.56905192  0.80983266  0.57720464  1
  O  O146  1  0.14410945  0.12841553  0.11543147  1
  O  O147  1  0.11749030  0.11501206  0.62921962  1
  O  O148  1  0.10725850  0.61829084  0.12422735  1
  O  O149  1  0.10684080  0.60890614  0.62383466  1
  O  O150  1  0.60036269  0.11534323  0.11655144  1
  O  O151  1  0.61823685  0.11129536  0.63145523  1
  O  O152  1  0.62859069  0.60807409  0.12290573  1
  O  O153  1  0.61848296  0.61575670  0.61566103  1
  O  O154  1  0.36417452  0.39852002  0.38240225  1
  O  O155  1  0.36868237  0.37682428  0.88784259  1
  O  O156  1  0.25938242  0.96926819  0.37393721  1
  O  O157  1  0.41471305  0.87856406  0.83565009  1
  O  O158  1  0.87856096  0.38113080  0.38236393  1
  O  O159  1  0.88391783  0.38892962  0.88821571  1
  O  O160  1  0.87766161  0.88544240  0.38126984  1
  O  O161  1  0.89359221  0.88819058  0.86506440  1
  O  O162  1  0.19441245  0.12387418  0.40110641  1
  O  O163  1  0.23787557  0.01695761  0.85894445  1
  O  O164  1  0.25635933  0.51324852  0.36911933  1
  O  O165  1  0.24534155  0.49258249  0.86267500  1
  O  O166  1  0.76051583  0.00269870  0.37147591  1
  O  O167  1  0.78666940  0.00879154  0.86429595  1
  O  O168  1  0.75432966  0.50169567  0.36714189  1
  O  O169  1  0.74972434  0.46654849  0.85566606  1
  O  O170  1  0.24384847  0.49610947  0.13221909  1
  O  O171  1  0.24327076  0.49067970  0.62772133  1
  O  O172  1  0.25467205  0.96793014  0.14731475  1
  O  O173  1  0.23840491  0.99283642  0.63315032  1
  O  O174  1  0.73491855  0.48949835  0.13121186  1
  O  O175  1  0.74029312  0.48959116  0.62516144  1
  O  O176  1  0.74972951  1.00887936  0.14632310  1
  O  O177  1  0.76333830  1.00651028  0.65079327  1
  O  O178  1  -0.00547306  0.37337242  0.26081294  1
  O  O179  1  -0.00912795  0.38886474  0.76761209  1
  O  O180  1  -0.00573893  0.87552093  0.26947950  1
  O  O181  1  0.00852414  0.86386336  0.74603707  1
  O  O182  1  0.50290707  0.36807720  0.24513921  1
  O  O183  1  0.49475327  0.36377171  0.72295939  1
  O  O184  1  0.51979517  0.87136644  0.23913852  1
  O  O185  1  0.53709156  0.86729972  0.76289549  1
  O  O186  1  0.48618619  0.13309289  0.25235635  1
  O  O187  1  0.48453710  0.13386576  0.73263658  1
  O  O188  1  0.50570045  0.64426791  0.22839240  1
  O  O189  1  0.49359450  0.60705111  0.73391792  1
  O  O190  1  1.01031024  0.13421012  0.25788114  1
  O  O191  1  0.99399489  0.12765593  0.73495868  1
  O  O192  1  0.98543335  0.61430906  0.24000031  1
  O  O193  1  1.00366371  0.63916906  0.74120039  1
  O  O194  1  0.36270741  0.26423512  -0.00355045  1
  O  O195  1  0.36778985  0.23784275  0.50681049  1
  O  O196  1  0.35757473  0.80576331  -0.03120406  1
  O  O197  1  0.35892528  0.74323053  0.52524297  1
  O  O198  1  0.88335463  0.26047292  0.01134868  1
  O  O199  1  0.87703365  0.25242299  0.49923635  1
  O  O200  1  0.84331279  0.74670141  -0.04012848  1
  O  O201  1  0.86299297  0.76571846  0.50067506  1
  O  O202  1  0.13089132  0.24517226  0.49397350  1
  O  O203  1  0.13820907  0.24298828  0.99790175  1
  O  O204  1  0.13750498  0.74745543  0.51668691  1
  O  O205  1  0.11255152  0.73177049  1.00630479  1
  O  O206  1  0.62928649  0.22193689  0.51677043  1
  O  O207  1  0.66268048  0.29694920  1.03270627  1
  O  O208  1  0.63296168  0.73618730  0.51120343  1
  O  O209  1  0.67360552  0.73051582  1.02085022  1
  O  O210  1  0.49459887  0.22996995  0.11819700  1
  O  O211  1  0.48098236  0.23895470  0.62142361  1
  O  O212  1  0.50799849  0.73511685  0.10076779  1
  O  O213  1  0.48823603  0.73943172  0.62606703  1
  O  O214  1  0.98882651  0.25437268  0.13750877  1
  O  O215  1  0.99272283  0.24432674  0.61221886  1
  O  O216  1  0.99152406  0.73388504  0.12094760  1
  O  O217  1  0.99884956  0.74107168  0.62356140  1
  O  O218  1  -0.00039479  0.26225635  0.36105023  1
  O  O219  1  0.01648278  0.26051198  0.87865195  1
  O  O220  1  -0.01921741  0.75648567  0.37953045  1
  O  O221  1  0.00274261  0.74656616  0.86616593  1
  O  O222  1  0.49894446  0.27711632  0.40793649  1
  O  O223  1  0.48124553  0.26211941  0.84125811  1
  O  O224  1  0.45228871  0.76911396  0.36683749  1
  O  O225  1  0.53337925  0.78792001  0.92366764  1
  O  O226  1  0.22909462  0.10492613  0.46871601  1
  O  O227  1  0.24654812  0.13358632  0.99120800  1
  O  O228  1  0.24207761  0.63373048  0.50506960  1
  O  O229  1  0.23615322  0.62639977  1.00697510  1
  O  O230  1  0.73946952  0.10916249  0.50413996  1
  O  O231  1  0.72482129  0.09417774  0.99639145  1
  O  O232  1  0.74139548  0.62157777  0.48236044  1
  O  O233  1  0.77346839  0.57722095  0.96290098  1
  O  O234  1  0.25888056  0.37417091  0.00870465  1
  O  O235  1  0.24647014  0.38414204  0.50990974  1
  O  O236  1  0.20951563  0.86616581  0.02432207  1
  O  O237  1  0.24547698  0.86076540  0.51928708  1
  O  O238  1  0.77009967  0.39483154  0.01170298  1
  O  O239  1  0.75280841  0.37382533  0.49904357  1
  O  O240  1  0.79124321  0.92132047  0.01231878  1
  O  O241  1  0.75541054  0.89047865  0.50937666  1
  O  O242  1  0.13621382  0.50737456  0.24036265  1
  O  O243  1  0.14012385  0.50694471  0.74055066  1
  O  O244  1  0.12679420  0.96953085  0.26397713  1
  O  O245  1  0.12684998  0.99283445  0.73925439  1
  O  O246  1  0.62580197  0.49766324  0.24300086  1
  O  O247  1  0.63535020  0.49741694  0.72696154  1
  O  O248  1  0.62982529  0.98968957  0.25676417  1
  O  O249  1  0.65620803  1.02915907  0.77573805  1
  O  O250  1  0.37959321  0.01087986  0.26237787  1
  O  O251  1  0.35971647  0.01160486  0.74208680  1
  O  O252  1  0.36075905  0.50463787  0.25218748  1
  O  O253  1  0.36908711  0.50695197  0.75003804  1
  O  O254  1  0.86099697  -0.00015279  0.26453114  1
  O  O255  1  0.88446105  0.01769017  0.75902067  1
  O  O256  1  0.86297349  0.50136140  0.25972421  1
  O  O257  1  0.85181210  0.50909046  0.73816471  1
  O  O258  1  0.11365217  0.38568935  0.36749468  1
  O  O259  1  0.12020662  0.36436869  0.88256110  1
  O  O260  1  0.10091941  0.86110976  0.37826960  1
  O  O261  1  0.13111902  0.88681147  0.86029621  1
  O  O262  1  0.62355798  0.38225046  0.35720179  1
  O  O263  1  0.60437048  0.38615186  0.86270550  1
  O  O264  1  0.62081248  0.86323945  0.37011820  1
  O  O265  1  0.63664167  0.88554639  0.86675043  1
  O  O266  1  0.37992852  0.11690839  0.14251141  1
  O  O267  1  0.36333291  0.13812725  0.63075878  1
  O  O268  1  0.38345893  0.62849098  0.12301402  1
  O  O269  1  0.38579205  0.62748561  0.62999630  1
  O  O270  1  0.86480259  0.13612571  0.10530730  1
  O  O271  1  0.88563616  0.13887023  0.63017942  1
  O  O272  1  0.88031716  0.61341409  0.13690976  1
  O  O273  1  0.90941819  0.59584263  0.63191409  1
  O  O274  1  0.24641451  0.26730144  0.11976123  1
  O  O275  1  0.25430661  0.26388678  0.62291591  1
  O  O276  1  0.25498492  0.76449896  0.13772484  1
  O  O277  1  0.25772305  0.75627408  0.63131459  1
  O  O278  1  0.76245385  0.25274593  0.13895646  1
  O  O279  1  0.76308351  0.25815222  0.62347651  1
  O  O280  1  0.73398640  0.73655455  0.07951488  1
  O  O281  1  0.78852377  0.66201992  0.65278588  1
  O  O282  1  0.17947307  0.26842281  0.44312929  1
  O  O283  1  0.24197253  0.25032583  0.88139127  1
  O  O284  1  0.25188746  0.73882350  0.39987248  1
  O  O285  1  0.24005918  0.75343446  0.84129690  1
  O  O286  1  0.76634437  0.26075193  0.37663440  1
  O  O287  1  0.73372705  0.27511303  0.88258461  1
  O  O288  1  0.75250113  0.73488236  0.36518319  1
  O  O289  1  0.78662420  0.74466478  0.90104741  1
  O  O290  1  0.02356897  0.12842124  0.00641692  1
  O  O291  1  -0.00519929  0.11124540  0.51175160  1
  O  O292  1  -0.00568450  0.61447946  0.01409794  1
  O  O293  1  -0.00245954  0.61702813  0.51017869  1
  O  O294  1  0.46607181  0.11440225  0.00691115  1
  O  O295  1  0.51053374  0.10720902  0.52037598  1
  O  O296  1  0.49591558  0.60512160  0.00965000  1
  O  O297  1  0.51426710  0.63191139  0.50662002  1
  O  O298  1  0.50468513  0.33477542  0.45859089  1
  O  O299  1  0.48215221  0.38233207  1.01021921  1
  O  O300  1  0.51203640  0.88032413  0.51142940  1
  O  O301  1  0.48696995  0.90749290  0.99237508  1
  O  O302  1  1.00319989  0.38254437  0.48242223  1
  O  O303  1  0.99687415  0.37944745  0.99848104  1
  O  O304  1  0.98529006  0.87953977  0.49272171  1
  O  O305  1  1.01628177  0.89745842  0.99815299  1
  O  O306  1  0.47906535  0.51635440  0.36821754  1
  O  O307  1  0.49902257  0.49576771  0.89072389  1
  O  O308  1  0.50349399  0.98996468  0.39074800  1
  O  O309  1  0.52038936  0.99137920  0.87028457  1
  O  O310  1  0.99079512  0.49238563  0.37799290  1
  O  O311  1  1.01530287  0.49083809  0.89234849  1
  O  O312  1  0.98744548  0.99364681  0.38475522  1
  O  O313  1  1.00245952  1.00728244  0.87176169  1
  O  O314  1  -0.00908049  0.00051495  0.11304542  1
  O  O315  1  0.00586828  0.00723217  0.61826158  1
  O  O316  1  0.00663979  0.49589244  0.11881875  1
  O  O317  1  0.01154609  0.47890420  0.61510625  1
  O  O318  1  0.49675150  0.01235096  0.12615098  1
  O  O319  1  0.49974149  0.00297760  0.64112061  1
  O  O320  1  0.50603169  0.51442373  0.12892014  1
  O  O321  1  0.51245481  0.50167937  0.61865828  1
  O  O322  1  0.25327196  0.38472624  0.23910634  1
  O  O323  1  0.26128785  0.39136989  0.73716705  1
  O  O324  1  0.22762061  0.85391382  0.25960423  1
  O  O325  1  0.23664396  0.88580265  0.74206490  1
  O  O326  1  0.73456388  0.38314946  0.23760274  1
  O  O327  1  0.75481041  0.38008239  0.73003584  1
  O  O328  1  0.73254042  0.89323692  0.25805833  1
  O  O329  1  0.74908264  0.89525512  0.76023963  1
  O  O330  1  0.26379534  0.11450173  0.25479771  1
  O  O331  1  0.25141628  0.12238926  0.75239475  1
  O  O332  1  0.24569828  0.62572603  0.26243125  1
  O  O333  1  0.27005610  0.60843685  0.74849844  1
  O  O334  1  0.73171899  0.11600020  0.25720255  1
  O  O335  1  0.77491781  0.12697611  0.74798115  1
  O  O336  1  0.75387829  0.61301820  0.25557552  1
  O  O337  1  0.74620283  0.59919196  0.77645330  1
  O  O338  1  0.37948808  0.12196972  0.37436362  1
  O  O339  1  0.36225307  0.13878557  0.85784344  1
  O  O340  1  0.35418820  0.61789763  0.38312936  1
  O  O341  1  0.40507254  0.63698282  0.85864926  1
  O  O342  1  0.87968344  0.11258726  0.37865636  1
  O  O343  1  0.89035038  0.14182247  0.86013255  1
  O  O344  1  0.86310201  0.61488688  0.36666557  1
  O  O345  1  0.89076045  0.59689426  0.85714589  1
  O  O346  1  0.13926768  0.38708291  0.11582229  1
  O  O347  1  0.13931762  0.38039279  0.62538459  1
  O  O348  1  0.12104763  0.86345900  0.14894292  1
  O  O349  1  0.13074329  0.88400730  0.63363600  1
  O  O350  1  0.62258232  0.38700321  0.14187773  1
  O  O351  1  0.63126628  0.38291405  0.60502657  1
  O  O352  1  0.64048648  0.88595557  0.09318761  1
  O  O353  1  0.63776409  0.86423622  0.65178058  1
  O  O354  1  0.11322596  0.25086147  0.23962347  1
  O  O355  1  0.13090433  0.25497592  0.76133181  1
  O  O356  1  0.10886023  0.75100074  0.25681506  1
  O  O357  1  0.11140985  0.76409888  0.74582742  1
  O  O358  1  0.62062494  0.26281105  0.24612269  1
  O  O359  1  0.60314560  0.24558150  0.72960230  1
  O  O360  1  0.63758370  0.76856815  0.23869206  1
  O  O361  1  0.66470435  0.75402938  0.76842060  1
  O  O362  1  0.36645658  0.23463011  0.25975629  1
  O  O363  1  0.37607093  0.24579524  0.73233217  1
  O  O364  1  0.40846503  0.82918604  0.37005201  1
  O  O365  1  0.37307998  0.72846770  0.73819043  1
  O  O366  1  0.88691942  0.23169650  0.23689085  1
  O  O367  1  0.87796423  0.24842956  0.73914400  1
  O  O368  1  0.86686763  0.72478886  0.25425518  1
  O  O369  1  0.88905530  0.73841519  0.75560096  1
  O  O370  1  0.38038667  0.50816970  0.49653467  1
  O  O371  1  0.38236508  0.49003788  1.00251432  1
  O  O372  1  0.39877612  0.99436032  0.51199771  1
  O  O373  1  0.32685570  0.97363366  0.99117090  1
  O  O374  1  0.88274103  0.50931368  0.48884142  1
  O  O375  1  0.89069779  0.49060779  1.00319977  1
  O  O376  1  0.88071953  0.99210310  0.49273234  1
  O  O377  1  0.90667033  1.02123070  0.97800230  1
  O  O378  1  0.12195841  0.01986753  -0.00429463  1
  O  O379  1  0.11070067  -0.01758887  0.51093936  1
  O  O380  1  0.12047305  0.51156573  0.01427077  1
  O  O381  1  0.11240468  0.50311587  0.50851597  1
  O  O382  1  0.66048934  0.03818921  -0.01941829  1
  O  O383  1  0.61909011  0.00157363  0.50930694  1
  O  O384  1  0.60640849  0.48355280  0.01780220  1
  O  O385  1  0.62829656  0.51334099  0.50920957  1
  O  O386  1  0.35974886  0.38309610  0.11968335  1
  O  O387  1  0.36398139  0.36289838  0.61533464  1
  O  O388  1  0.37559837  0.87192108  0.11786531  1
  O  O389  1  0.37086444  0.86046069  0.64575485  1
  O  O390  1  0.86190097  0.36431544  0.12117001  1
  O  O391  1  0.86844996  0.36628225  0.61900815  1
  O  O392  1  0.85230212  0.85558352  0.16663871  1
  O  O393  1  0.87876458  0.87881930  0.61323792  1
  O  O394  1  0.11544379  0.11291164  0.39719103  1
  O  O395  1  0.13637359  0.14350719  0.87586554  1
  O  O396  1  0.13983545  0.61842027  0.38024102  1
  O  O397  1  0.12044586  0.62128920  0.89195601  1
  O  O398  1  0.61809880  0.12002153  0.39301801  1
  O  O399  1  0.59473992  0.17750697  0.90485145  1
  O  O400  1  0.63080367  0.62567054  0.38276767  1
  O  O401  1  0.60371594  0.63037648  0.87097477  1
