# generated using pymatgen
data_V73Zn73O256
_symmetry_space_group_name_H-M   'P 1'
_cell_length_a   16.84919792
_cell_length_b   16.85925416
_cell_length_c   16.83934627
_cell_angle_alpha   90.05644920
_cell_angle_beta   89.97094101
_cell_angle_gamma   89.91079537
_symmetry_Int_Tables_number   1
_chemical_formula_structural   V73Zn73O256
_chemical_formula_sum   'V73 Zn73 O256'
_cell_volume   4783.45864498
_cell_formula_units_Z   1
loop_
 _symmetry_equiv_pos_site_id
 _symmetry_equiv_pos_as_xyz
  1  'x, y, z'
loop_
 _atom_site_type_symbol
 _atom_site_label
 _atom_site_symmetry_multiplicity
 _atom_site_fract_x
 _atom_site_fract_y
 _atom_site_fract_z
 _atom_site_occupancy
  V  V0  1  0.34628731  0.86406454  0.01041821  1
  V  V1  1  0.62367500  0.62337025  0.49968342  1
  V  V2  1  0.00264480  -0.00240713  0.49247972  1
  V  V3  1  0.00530968  0.36874893  0.85970487  1
  V  V4  1  0.23493680  0.63485329  0.87816647  1
  V  V5  1  0.12003929  0.85915769  0.74613845  1
  V  V6  1  0.37242028  0.62817270  0.76789529  1
  V  V7  1  0.00203231  0.49700348  0.00803680  1
  V  V8  1  0.13347925  0.50008396  0.12704660  1
  V  V9  1  0.12591204  0.24675299  0.85755331  1
  V  V10  1  0.13191868  0.12870159  0.49820959  1
  V  V11  1  0.87228753  0.12418289  0.75566513  1
  V  V12  1  0.75204637  0.00216171  0.24190020  1
  V  V13  1  0.49558971  0.74921658  0.24286295  1
  V  V14  1  0.37587141  0.13015118  0.23593495  1
  V  V15  1  0.50345459  0.12166265  0.64369017  1
  V  V16  1  0.88520319  0.50171962  0.37602236  1
  V  V17  1  0.62101162  0.87927178  0.25140399  1
  V  V18  1  0.38010373  0.48746199  0.37202504  1
  V  V19  1  -0.00935628  0.25129877  0.23804985  1
  V  V20  1  0.24759375  0.48899635  0.74648511  1
  V  V21  1  0.49004093  0.63171089  0.62144530  1
  V  V22  1  0.74264592  0.23672387  0.00411669  1
  V  V23  1  0.16127720  0.63082322  0.49305379  1
  V  V24  1  0.13120907  0.00017897  0.62293163  1
  V  V25  1  0.62146082  0.64172221  0.00289290  1
  V  V26  1  0.74095977  0.12403287  0.37440543  1
  V  V27  1  0.87407249  0.63884842  0.74525738  1
  V  V28  1  0.87340551  0.00310085  0.37566399  1
  V  V29  1  0.62259071  0.74802896  0.37483700  1
  V  V30  1  0.24725850  -0.00560051  0.23769713  1
  V  V31  1  0.88302725  -0.02392611  0.87198609  1
  V  V32  1  0.87705022  0.36578046  0.01455731  1
  V  V33  1  0.13138667  0.37815886  0.25171263  1
  V  V34  1  0.25043817  0.26906808  0.50475818  1
  V  V35  1  0.38133251  0.86624924  0.49627468  1
  V  V36  1  0.87436845  0.49308146  0.87364491  1
  V  V37  1  0.50064094  0.28106814  0.75809644  1
  V  V38  1  0.09674810  0.88647882  0.26594433  1
  V  V39  1  0.73283423  0.50117981  0.25537510  1
  V  V40  1  0.38004595  0.00549647  0.37824289  1
  V  V41  1  0.75040594  0.74771940  0.50630689  1
  V  V42  1  0.88445444  0.37601045  0.49350733  1
  V  V43  1  0.74384929  0.24664930  0.49837526  1
  V  V44  1  0.25986212  0.86035196  0.61731752  1
  V  V45  1  0.74168042  0.48939339  0.75233047  1
  V  V46  1  0.61895489  0.26642386  0.37260389  1
  V  V47  1  0.36491300  0.61413803  0.25254991  1
  V  V48  1  0.74186214  0.62899623  0.88466685  1
  V  V49  1  0.50132881  0.61068709  0.12285667  1
  V  V50  1  0.38372632  0.40389657  -0.01472604  1
  V  V51  1  0.88912213  0.74449569  0.11379588  1
  V  V52  1  0.73495078  0.00208464  0.74935699  1
  V  V53  1  -0.01017991  0.74113101  0.28324852  1
  V  V54  1  0.87582179  0.87837858  0.50805030  1
  V  V55  1  -0.00034742  0.12863146  0.62688853  1
  V  V56  1  0.72958423  0.37838520  0.12982067  1
  V  V57  1  0.75296247  0.85959990  0.11810922  1
  V  V58  1  0.62932807  0.24870741  0.86758902  1
  V  V59  1  0.61746680  0.49350429  0.62416954  1
  V  V60  1  0.11327444  0.49821648  0.62010157  1
  V  V61  1  0.50257628  0.26095193  0.24591982  1
  V  V62  1  0.87600317  0.25083394  0.62626992  1
  V  V63  1  0.12297444  0.11552710  0.00056888  1
  V  V64  1  0.11801862  0.63769852  0.00095743  1
  V  V65  1  0.51145552  0.75830510  0.76331755  1
  V  V66  1  0.26197502  0.00881598  0.74842497  1
  V  V67  1  0.51794577  0.12126447  0.11559133  1
  V  V68  1  0.72476097  0.88548949  0.62323370  1
  V  V69  1  0.51277623  0.01296732  0.49944376  1
  V  V70  1  0.39927600  0.37444295  0.50304595  1
  V  V71  1  0.11639928  0.25967053  0.37575519  1
  V  V72  1  0.51597948  -0.02229744  -0.00134551  1
  Zn  Zn73  1  0.86977124  0.62322179  0.24918290  1
  Zn  Zn74  1  0.25685097  0.25226145  0.00278674  1
  Zn  Zn75  1  0.36699910  0.25345120  0.64594347  1
  Zn  Zn76  1  0.26346224  0.13094098  0.87034986  1
  Zn  Zn77  1  0.00879415  0.12976909  0.12237143  1
  Zn  Zn78  1  0.74556881  0.36947633  0.62715783  1
  Zn  Zn79  1  0.25293961  0.13154519  0.37191511  1
  Zn  Zn80  1  0.38364162  -0.00589573  0.87884308  1
  Zn  Zn81  1  0.26041586  0.37219133  0.12159402  1
  Zn  Zn82  1  0.18946467  0.18827770  0.18145181  1
  Zn  Zn83  1  0.18813022  0.19360876  0.68728133  1
  Zn  Zn84  1  0.19737654  0.71101122  0.26707722  1
  Zn  Zn85  1  0.19037024  0.67984478  0.67792799  1
  Zn  Zn86  1  0.68963716  0.19216278  0.18661385  1
  Zn  Zn87  1  0.68294780  0.18360825  0.68666819  1
  Zn  Zn88  1  0.68816590  0.68316806  0.18686740  1
  Zn  Zn89  1  0.68989469  0.68480087  0.68803166  1
  Zn  Zn90  1  0.31122902  0.31376457  0.31499019  1
  Zn  Zn91  1  0.32579384  0.31758815  0.84157826  1
  Zn  Zn92  1  0.32052198  0.81735815  0.31492765  1
  Zn  Zn93  1  0.31500356  0.81499795  0.81388940  1
  Zn  Zn94  1  0.80886340  0.31627667  0.31095765  1
  Zn  Zn95  1  0.81206796  0.30732202  0.81843276  1
  Zn  Zn96  1  0.80923260  0.81556997  0.31995236  1
  Zn  Zn97  1  0.78113070  0.81471958  0.81848553  1
  Zn  Zn98  1  0.18859374  0.45404899  0.43165493  1
  Zn  Zn99  1  0.19456162  0.43849011  0.92758565  1
  Zn  Zn100  1  0.19974728  0.93773239  0.43133944  1
  Zn  Zn101  1  0.18420486  0.93022052  0.93125660  1
  Zn  Zn102  1  0.69264031  0.43747530  0.43983829  1
  Zn  Zn103  1  0.68641274  0.43028823  0.93973396  1
  Zn  Zn104  1  0.68687697  0.93281251  0.43167926  1
  Zn  Zn105  1  0.69258023  0.93412798  0.93097606  1
  Zn  Zn106  1  0.31266231  0.05935806  0.04789020  1
  Zn  Zn107  1  0.32210110  0.07184809  0.56868758  1
  Zn  Zn108  1  0.30975371  0.57487856  0.06392383  1
  Zn  Zn109  1  0.31287514  0.54881665  0.56289301  1
  Zn  Zn110  1  0.81502657  0.04700715  0.05537576  1
  Zn  Zn111  1  0.80735759  0.06391572  0.56316171  1
  Zn  Zn112  1  0.81053074  0.56078804  0.06936630  1
  Zn  Zn113  1  0.81209584  0.55938903  0.56578446  1
  Zn  Zn114  1  0.43563773  0.43680069  0.17531439  1
  Zn  Zn115  1  0.42929171  0.44260147  0.68856480  1
  Zn  Zn116  1  0.43228586  0.94207575  0.17614531  1
  Zn  Zn117  1  0.44501686  0.93582803  0.68261054  1
  Zn  Zn118  1  0.94151031  0.43448324  0.19736003  1
  Zn  Zn119  1  0.93402149  0.44475672  0.68176025  1
  Zn  Zn120  1  0.93187918  0.93001243  0.18624219  1
  Zn  Zn121  1  0.93652146  0.93737069  0.68856214  1
  Zn  Zn122  1  0.06385565  0.07196428  0.31122054  1
  Zn  Zn123  1  0.06274661  0.05671147  0.81345923  1
  Zn  Zn124  1  0.06559885  0.55939235  0.32167150  1
  Zn  Zn125  1  0.05983510  0.56368497  0.80633522  1
  Zn  Zn126  1  0.56059152  0.06568087  0.31052954  1
  Zn  Zn127  1  0.56441424  0.07001276  0.83020700  1
  Zn  Zn128  1  0.55567225  0.55974986  0.31840267  1
  Zn  Zn129  1  0.56360642  0.57013056  0.81249566  1
  Zn  Zn130  1  0.43798887  0.18967863  0.43654016  1
  Zn  Zn131  1  0.43526695  0.18960972  0.93254176  1
  Zn  Zn132  1  0.43863692  0.68000837  0.43043939  1
  Zn  Zn133  1  0.43414493  0.69789011  0.94342444  1
  Zn  Zn134  1  0.93508045  0.18526570  0.43429880  1
  Zn  Zn135  1  0.93989803  0.18771894  0.93834157  1
  Zn  Zn136  1  0.92650893  0.68199248  0.44723520  1
  Zn  Zn137  1  0.93270426  0.67807145  0.93162305  1
  Zn  Zn138  1  0.07362319  0.30706251  0.05687047  1
  Zn  Zn139  1  0.06350125  0.31723206  0.57018052  1
  Zn  Zn140  1  0.10517529  0.77645315  0.12183872  1
  Zn  Zn141  1  0.07603982  0.81502754  0.54056126  1
  Zn  Zn142  1  0.55482800  0.30963301  0.05712760  1
  Zn  Zn143  1  0.56547363  0.29909034  0.56984659  1
  Zn  Zn144  1  0.56638263  0.81093374  0.06860686  1
  Zn  Zn145  1  0.55232093  0.81172149  0.56293312  1
  O  O146  1  0.12730255  0.12400173  0.10724612  1
  O  O147  1  0.11909427  0.12152504  0.61656094  1
  O  O148  1  0.11671125  0.60425829  0.10478431  1
  O  O149  1  0.13548623  0.61490487  0.60534735  1
  O  O150  1  0.61726517  0.12213436  0.12959508  1
  O  O151  1  0.60368677  0.13382737  0.62172533  1
  O  O152  1  0.61929406  0.62447583  0.11097577  1
  O  O153  1  0.61759798  0.61660122  0.61893341  1
  O  O154  1  0.38077344  0.37862531  0.38188404  1
  O  O155  1  0.37935813  0.41059942  0.88161873  1
  O  O156  1  0.37527884  0.89271962  0.38565437  1
  O  O157  1  0.36049350  0.88115444  0.89339313  1
  O  O158  1  0.87205203  0.37841096  0.38791615  1
  O  O159  1  0.88018813  0.37976738  0.88385613  1
  O  O160  1  0.86188754  0.89237383  0.39378806  1
  O  O161  1  0.87215773  0.87754430  0.85554225  1
  O  O162  1  0.26613247  0.00978417  0.36559994  1
  O  O163  1  0.24195468  0.00118787  0.85030267  1
  O  O164  1  0.27650095  0.49712972  0.37544536  1
  O  O165  1  0.23584935  0.52005511  0.85681089  1
  O  O166  1  0.75223529  0.00730930  0.36989419  1
  O  O167  1  0.76093451  -0.00411512  0.85188008  1
  O  O168  1  0.75819482  0.48670280  0.35898879  1
  O  O169  1  0.75294327  0.49690166  0.86715285  1
  O  O170  1  0.23456224  0.50081523  0.12142161  1
  O  O171  1  0.24546298  0.49844421  0.63987607  1
  O  O172  1  0.25471382  1.01163040  0.13975251  1
  O  O173  1  0.24544514  1.00218757  0.62681482  1
  O  O174  1  0.75535930  0.48605945  0.13907363  1
  O  O175  1  0.74085597  0.49883737  0.64007675  1
  O  O176  1  0.75595196  0.98543789  0.13920576  1
  O  O177  1  0.74334322  0.99371611  0.62679664  1
  O  O178  1  0.01679679  0.36222589  0.24665879  1
  O  O179  1  -0.01165322  0.37876392  0.76183157  1
  O  O180  1  -0.00729850  0.88319512  0.27102495  1
  O  O181  1  0.02097573  0.87464891  0.72605686  1
  O  O182  1  0.49344237  0.35911767  0.24318551  1
  O  O183  1  0.50626144  0.38031800  0.75153476  1
  O  O184  1  0.51213877  0.86379720  0.23947707  1
  O  O185  1  0.49484553  0.85715188  0.74502092  1
  O  O186  1  0.49185567  0.12547649  0.23852633  1
  O  O187  1  0.49820176  0.11244791  0.74346216  1
  O  O188  1  0.50684256  0.63279434  0.23819973  1
  O  O189  1  0.48784100  0.62457564  0.74509381  1
  O  O190  1  1.01067950  0.14558245  0.24436466  1
  O  O191  1  0.98626413  0.11671408  0.73456811  1
  O  O192  1  0.99637513  0.63866612  0.26881665  1
  O  O193  1  0.97354867  0.62981440  0.77136825  1
  O  O194  1  0.36033249  0.27312236  -0.04640597  1
  O  O195  1  0.36104722  0.26336202  0.48868961  1
  O  O196  1  0.36219064  0.76175997  -0.00078439  1
  O  O197  1  0.38912885  0.76797339  0.48767283  1
  O  O198  1  0.86652500  0.26246473  -0.00297548  1
  O  O199  1  0.86779480  0.25696587  0.50424586  1
  O  O200  1  0.89401914  0.74633614  0.01379858  1
  O  O201  1  0.85525497  0.76048160  0.49807098  1
  O  O202  1  0.13173423  0.24944301  0.49727093  1
  O  O203  1  0.13210343  0.24476830  0.98071455  1
  O  O204  1  0.13274333  0.72996570  0.49951341  1
  O  O205  1  0.10433272  0.73484504  1.01061807  1
  O  O206  1  0.63260424  0.25232454  0.48600518  1
  O  O207  1  0.63900428  0.24875248  1.00088382  1
  O  O208  1  0.62614511  0.74574711  0.49536593  1
  O  O209  1  0.63097851  0.73981123  1.00188205  1
  O  O210  1  0.50969278  0.23838664  0.14125355  1
  O  O211  1  0.50488998  0.24640081  0.65157798  1
  O  O212  1  0.50742891  0.73982664  0.13916712  1
  O  O213  1  0.50102305  0.73472353  0.63560817  1
  O  O214  1  1.00179618  0.25255954  0.13294362  1
  O  O215  1  0.98892522  0.24063163  0.61799911  1
  O  O216  1  0.98725029  0.75637070  0.14593444  1
  O  O217  1  0.99450539  0.72541474  0.59656694  1
  O  O218  1  0.01182383  0.24785763  0.37066082  1
  O  O219  1  0.00281284  0.26378298  0.87474822  1
  O  O220  1  -0.01241120  0.75337842  0.38373376  1
  O  O221  1  -0.00087473  0.76721516  0.87394313  1
  O  O222  1  0.51336236  0.24425704  0.36508708  1
  O  O223  1  0.51373456  0.24758102  0.86145160  1
  O  O224  1  0.51320960  0.74263004  0.35983265  1
  O  O225  1  0.50074105  0.74248369  0.86322306  1
  O  O226  1  0.24010444  0.13350317  0.50113796  1
  O  O227  1  0.23928609  0.12894642  0.98963711  1
  O  O228  1  0.26264302  0.62766532  0.49774744  1
  O  O229  1  0.23117733  0.62292484  0.98914893  1
  O  O230  1  0.75392864  0.13750467  0.49025110  1
  O  O231  1  0.75917877  0.13978427  1.01939807  1
  O  O232  1  0.74130034  0.64163511  0.51343851  1
  O  O233  1  0.72931365  0.59994959  0.99356714  1
  O  O234  1  0.26327171  0.38189469  -0.00346063  1
  O  O235  1  0.24611724  0.36805655  0.49835255  1
  O  O236  1  0.24483246  0.87867042  0.01124035  1
  O  O237  1  0.26553477  0.88048206  0.50729205  1
  O  O238  1  0.76225695  0.37771265  0.01394606  1
  O  O239  1  0.75679290  0.36020823  0.50305102  1
  O  O240  1  0.74510526  0.87617147  0.02122264  1
  O  O241  1  0.75075643  0.87256583  0.51010502  1
  O  O242  1  0.11427702  0.49078372  0.23695542  1
  O  O243  1  0.13484306  0.51351342  0.73529059  1
  O  O244  1  0.13832047  0.99825073  0.26124616  1
  O  O245  1  0.13182641  0.99673074  0.73176911  1
  O  O246  1  0.63342965  0.49969565  0.25815759  1
  O  O247  1  0.63433355  0.50500387  0.74158334  1
  O  O248  1  0.63242869  0.98598030  0.25690686  1
  O  O249  1  0.63666919  1.01038815  0.75614206  1
  O  O250  1  0.37505633  0.01223930  0.25626896  1
  O  O251  1  0.36306761  -0.00856583  0.74689849  1
  O  O252  1  0.38424597  0.50476647  0.25713338  1
  O  O253  1  0.36195169  0.51691989  0.74461097  1
  O  O254  1  0.85697991  -0.01143091  0.26299306  1
  O  O255  1  0.86907470  0.01090188  0.74960739  1
  O  O256  1  0.87442580  0.49977992  0.26411026  1
  O  O257  1  0.86092221  0.50458230  0.75785095  1
  O  O258  1  0.12985904  0.37557314  0.36158036  1
  O  O259  1  0.11170515  0.36709996  0.87220094  1
  O  O260  1  0.13326490  0.87933236  0.36358610  1
  O  O261  1  0.13283989  0.87481870  0.84569266  1
  O  O262  1  0.62506363  0.36521293  0.37520077  1
  O  O263  1  0.62904499  0.35238728  0.88504908  1
  O  O264  1  0.62437886  0.86400024  0.36100256  1
  O  O265  1  0.67900393  0.84763101  0.86099014  1
  O  O266  1  0.38162131  0.12512433  0.13476544  1
  O  O267  1  0.39618825  0.14415108  0.61498179  1
  O  O268  1  0.39125682  0.61970322  0.13812856  1
  O  O269  1  0.38963018  0.61753724  0.62409448  1
  O  O270  1  0.90157532  0.07617710  0.12861131  1
  O  O271  1  0.88190292  0.13260853  0.62484157  1
  O  O272  1  0.87174881  0.63843657  0.12897210  1
  O  O273  1  0.86385503  0.62207400  0.64499950  1
  O  O274  1  0.24611782  0.25879429  0.11725365  1
  O  O275  1  0.25152836  0.25034719  0.60948629  1
  O  O276  1  0.20147755  0.72489815  0.15502979  1
  O  O277  1  0.25844988  0.76253146  0.62292651  1
  O  O278  1  0.74698964  0.26688086  0.11764204  1
  O  O279  1  0.75593736  0.24743367  0.61594020  1
  O  O280  1  0.76129624  0.75387272  0.12930928  1
  O  O281  1  0.73701290  0.76700985  0.61368440  1
  O  O282  1  0.23744786  0.25120822  0.38638924  1
  O  O283  1  0.23156944  0.24810794  0.85580428  1
  O  O284  1  0.24683398  0.74778965  0.35844733  1
  O  O285  1  0.24579258  0.73359925  0.86659571  1
  O  O286  1  0.73943756  0.24499028  0.37571952  1
  O  O287  1  0.74695896  0.25009933  0.89355157  1
  O  O288  1  0.73569628  0.75661508  0.39383459  1
  O  O289  1  0.76452558  0.72329895  0.89696942  1
  O  O290  1  0.01536353  0.13407637  0.00091115  1
  O  O291  1  0.01004187  0.12074242  0.50609261  1
  O  O292  1  0.00791808  0.60459656  -0.01399926  1
  O  O293  1  -0.01306904  0.66401875  0.55263140  1
  O  O294  1  0.50020264  0.13816883  0.01669816  1
  O  O295  1  0.50315435  0.11597424  0.49773766  1
  O  O296  1  0.50847089  0.63495678  0.01292681  1
  O  O297  1  0.50795809  0.63090380  0.51336236  1
  O  O298  1  0.49744705  0.36041668  0.49704771  1
  O  O299  1  0.48238763  0.37270326  1.00315852  1
  O  O300  1  0.48585157  0.89291410  0.50930108  1
  O  O301  1  0.50301345  0.87672397  1.00260146  1
  O  O302  1  0.98330957  0.37057867  0.50310576  1
  O  O303  1  0.98929950  0.37992435  0.99277626  1
  O  O304  1  0.99441808  0.88902100  0.50475107  1
  O  O305  1  1.01115376  0.82433108  0.91902489  1
  O  O306  1  0.48372927  0.50475631  0.38317093  1
  O  O307  1  0.53873550  0.50150675  0.91021626  1
  O  O308  1  0.48984678  1.00551579  0.38256049  1
  O  O309  1  0.50226322  1.00170318  0.89566509  1
  O  O310  1  0.98500309  0.49467833  0.37704502  1
  O  O311  1  0.99312279  0.48628931  0.88109596  1
  O  O312  1  0.99075462  1.01436887  0.38539212  1
  O  O313  1  0.98365327  0.99407649  0.86255920  1
  O  O314  1  -0.03810938  0.01372034  0.11512291  1
  O  O315  1  0.01054146  0.00977180  0.61206666  1
  O  O316  1  0.00013064  0.49460923  0.11104648  1
  O  O317  1  0.01135301  0.50799677  0.62892557  1
  O  O318  1  0.50100101  0.01195247  0.11087917  1
  O  O319  1  0.49349727  0.01375553  0.61166535  1
  O  O320  1  0.51069448  0.51248720  0.12846291  1
  O  O321  1  0.51361831  0.51053644  0.63195324  1
  O  O322  1  0.23618089  0.37144324  0.24458324  1
  O  O323  1  0.25662027  0.39164059  0.76322050  1
  O  O324  1  0.26706208  0.89614249  0.24838186  1
  O  O325  1  0.24575711  0.88380611  0.72943978  1
  O  O326  1  0.74725517  0.37935911  0.23673320  1
  O  O327  1  0.75320271  0.38577132  0.75072901  1
  O  O328  1  0.73956881  0.88180900  0.24943074  1
  O  O329  1  0.74918921  0.88916732  0.72816137  1
  O  O330  1  0.26420863  0.12339178  0.25017737  1
  O  O331  1  0.25164540  0.11307642  0.74210854  1
  O  O332  1  0.26706236  0.61529627  0.24406048  1
  O  O333  1  0.26035792  0.62575443  0.75722271  1
  O  O334  1  0.74482657  0.10830828  0.25231369  1
  O  O335  1  0.76273884  0.11274211  0.73561981  1
  O  O336  1  0.75039737  0.60601766  0.24616071  1
  O  O337  1  0.75075435  0.61327710  0.76721718  1
  O  O338  1  0.37654644  0.11804356  0.36613701  1
  O  O339  1  0.37427536  0.10874452  0.88104649  1
  O  O340  1  0.38017789  0.61582163  0.35850427  1
  O  O341  1  0.36427596  0.62408356  0.87127309  1
  O  O342  1  0.86098007  0.11376483  0.37763268  1
  O  O343  1  0.87909403  0.12917119  0.85591629  1
  O  O344  1  0.86995574  0.60436839  0.38817373  1
  O  O345  1  0.86063118  0.60610156  0.87798610  1
  O  O346  1  0.12617190  0.38607791  0.13093585  1
  O  O347  1  0.12436644  0.39531266  0.62089851  1
  O  O348  1  0.11972411  0.88123526  0.16510977  1
  O  O349  1  0.14211671  0.88329719  0.61539130  1
  O  O350  1  0.63158850  0.38125887  0.11631612  1
  O  O351  1  0.62461194  0.39010913  0.61831614  1
  O  O352  1  0.64020761  0.86348027  0.14312827  1
  O  O353  1  0.62576704  0.88230285  0.61929555  1
  O  O354  1  0.12208220  0.26111627  0.25761580  1
  O  O355  1  0.11157355  0.24321123  0.75619985  1
  O  O356  1  0.09334374  0.76799926  0.26482960  1
  O  O357  1  0.13082030  0.75971535  0.73352717  1
  O  O358  1  0.61632356  0.24880460  0.26158609  1
  O  O359  1  0.62407019  0.25380444  0.75918800  1
  O  O360  1  0.62309383  0.75389100  0.25746288  1
  O  O361  1  0.61125922  0.74023371  0.74863605  1
  O  O362  1  0.38839086  0.23679544  0.26054023  1
  O  O363  1  0.39492150  0.26635414  0.75983426  1
  O  O364  1  0.39235442  0.73839509  0.25561853  1
  O  O365  1  0.38217268  0.73293704  0.75286543  1
  O  O366  1  0.89173027  0.25919560  0.25522021  1
  O  O367  1  0.86378783  0.23710531  0.73768572  1
  O  O368  1  0.88034170  0.74711640  0.26053056  1
  O  O369  1  0.84919581  0.73563713  0.75954330  1
  O  O370  1  0.37855004  0.47934992  0.49476582  1
  O  O371  1  0.37799567  0.50525628  1.00582121  1
  O  O372  1  0.37983637  1.00480487  0.48701631  1
  O  O373  1  0.38511030  0.98266682  1.00298873  1
  O  O374  1  0.86220240  0.48422241  0.49374613  1
  O  O375  1  0.88312806  0.49037987  0.99515528  1
  O  O376  1  0.88378487  0.99926630  0.49682056  1
  O  O377  1  0.86152080  0.99244917  0.96988971  1
  O  O378  1  0.12558165  0.01688424  -0.01845673  1
  O  O379  1  0.12327792  0.00900619  0.50202605  1
  O  O380  1  0.11132232  0.48891924  0.00583038  1
  O  O381  1  0.13234502  0.51243972  0.51062261  1
  O  O382  1  0.61741520  -0.01134055  -0.00193967  1
  O  O383  1  0.61060466  -0.00411535  0.49022284  1
  O  O384  1  0.59289501  0.50577083  -0.03318476  1
  O  O385  1  0.63868178  0.51013844  0.51490522  1
  O  O386  1  0.37215319  0.37942468  0.10578398  1
  O  O387  1  0.38452986  0.36864701  0.60868285  1
  O  O388  1  0.37472919  0.87243042  0.11151328  1
  O  O389  1  0.36689008  0.88098195  0.61058712  1
  O  O390  1  0.87911765  0.37548397  0.11474761  1
  O  O391  1  0.87140112  0.36635859  0.61695304  1
  O  O392  1  0.86247298  0.85735545  0.13209546  1
  O  O393  1  0.86702142  0.88342292  0.61122215  1
  O  O394  1  0.12762950  0.13817261  0.38600975  1
  O  O395  1  0.11944864  0.13698101  0.87521980  1
  O  O396  1  0.13416471  0.60948359  0.39295287  1
  O  O397  1  0.12531220  0.62808081  0.88489403  1
  O  O398  1  0.63693668  0.13007303  0.37042652  1
  O  O399  1  0.63127424  0.14524107  0.88074657  1
  O  O400  1  0.62099148  0.63007819  0.39129661  1
  O  O401  1  0.63387126  0.62915568  0.88481300  1
