# generated using pymatgen
data_V73Zn73O256
_symmetry_space_group_name_H-M   'P 1'
_cell_length_a   16.92198842
_cell_length_b   16.83938964
_cell_length_c   16.90094910
_cell_angle_alpha   89.81563084
_cell_angle_beta   90.11841542
_cell_angle_gamma   89.96178740
_symmetry_Int_Tables_number   1
_chemical_formula_structural   V73Zn73O256
_chemical_formula_sum   'V73 Zn73 O256'
_cell_volume   4815.98980345
_cell_formula_units_Z   1
loop_
 _symmetry_equiv_pos_site_id
 _symmetry_equiv_pos_as_xyz
  1  'x, y, z'
loop_
 _atom_site_type_symbol
 _atom_site_label
 _atom_site_symmetry_multiplicity
 _atom_site_fract_x
 _atom_site_fract_y
 _atom_site_fract_z
 _atom_site_occupancy
  V  V0  1  0.76451033  0.50502314  0.25005502  1
  V  V1  1  0.03637810  -0.00091339  -0.00089498  1
  V  V2  1  0.74309668  0.13374838  0.37431094  1
  V  V3  1  0.49311671  0.74927022  0.25389141  1
  V  V4  1  0.88138516  0.12473934  0.23859426  1
  V  V5  1  0.74519049  0.25824853  0.49310734  1
  V  V6  1  0.12460919  0.62272372  0.50888898  1
  V  V7  1  0.51458626  0.49759039  0.51822651  1
  V  V8  1  0.63182801  0.74922113  0.37930844  1
  V  V9  1  0.25527304  0.62375452  0.37812926  1
  V  V10  1  0.50917050  0.13750616  0.59835260  1
  V  V11  1  0.87785572  0.90241400  -0.00958980  1
  V  V12  1  0.11167444  0.48739196  0.62678544  1
  V  V13  1  0.62993954  0.63172273  0.00011054  1
  V  V14  1  -0.00129531  0.12460551  0.63191522  1
  V  V15  1  0.75070158  0.76477102  0.00288052  1
  V  V16  1  0.75019957  -0.00008115  0.24472736  1
  V  V17  1  0.12052171  0.63292901  -0.00806130  1
  V  V18  1  0.50687684  0.24724778  0.75345551  1
  V  V19  1  0.24935287  0.37087768  0.12104612  1
  V  V20  1  0.87932137  0.26062374  0.62396609  1
  V  V21  1  0.25058128  0.51017712  0.24790062  1
  V  V22  1  0.12659366  0.13195545  0.49910936  1
  V  V23  1  0.39541731  0.75838026  0.62258457  1
  V  V24  1  0.86802004  0.12639305  0.75758008  1
  V  V25  1  0.50711575  0.37144945  0.87100983  1
  V  V26  1  0.73947254  0.00804884  0.76293144  1
  V  V27  1  0.62420324  0.49721192  0.13105106  1
  V  V28  1  0.36315177  -0.00963794  0.42072261  1
  V  V29  1  0.62500830  0.87726615  0.24632489  1
  V  V30  1  0.36953320  0.37190264  0.00111314  1
  V  V31  1  0.10260121  0.86270460  0.74915813  1
  V  V32  1  -0.00436060  0.49243588  -0.01395972  1
  V  V33  1  0.61482695  0.75462431  0.86335949  1
  V  V34  1  0.62911950  0.62439248  0.50893345  1
  V  V35  1  0.85604087  0.49305032  0.86559974  1
  V  V36  1  0.75872999  0.36346119  0.12654596  1
  V  V37  1  0.25772429  -0.02693606  0.73763754  1
  V  V38  1  0.11352033  0.36174225  0.76003805  1
  V  V39  1  0.25753966  0.75414959  0.00328323  1
  V  V40  1  0.38861562  0.62742199  0.73990411  1
  V  V41  1  0.76235445  0.62396011  0.37270137  1
  V  V42  1  0.50141696  0.87989339  0.39819235  1
  V  V43  1  0.74524477  0.88055861  0.62086709  1
  V  V44  1  0.25761143  0.75298082  0.51261604  1
  V  V45  1  0.24984248  0.49476323  0.73813444  1
  V  V46  1  0.12222039  0.50285873  0.12144680  1
  V  V47  1  0.92723937  0.31302604  -0.04148327  1
  V  V48  1  0.37229797  0.50262315  0.87293115  1
  V  V49  1  0.00303320  0.25029408  0.25458305  1
  V  V50  1  0.38553203  0.89557901  0.00423473  1
  V  V51  1  0.88718374  0.37335099  0.46980259  1
  V  V52  1  0.88191581  -0.00274990  0.37872853  1
  V  V53  1  0.37724786  0.24809476  0.13835441  1
  V  V54  1  -0.01933755  0.62589575  0.12473860  1
  V  V55  1  0.00231534  0.49322321  0.46943949  1
  V  V56  1  0.00012772  -0.00368634  0.50403141  1
  V  V57  1  0.12447859  0.36813664  0.26136405  1
  V  V58  1  0.38864709  0.50118593  0.36403771  1
  V  V59  1  0.49652627  0.88906937  0.86048866  1
  V  V60  1  0.61582009  0.36518209  0.26536252  1
  V  V61  1  0.37080467  0.25759106  0.62387032  1
  V  V62  1  0.37461850  0.38244163  0.49830914  1
  V  V63  1  0.25650293  -0.02913814  0.23359847  1
  V  V64  1  0.61218206  0.00877153  0.12521460  1
  V  V65  1  0.48935204  0.62841022  0.13285722  1
  V  V66  1  0.24592170  0.63092190  0.87019528  1
  V  V67  1  0.18864629  0.18640702  -0.06853438  1
  V  V68  1  0.03919786  0.11949522  0.12439549  1
  V  V69  1  0.74775428  0.25106000  -0.01563416  1
  V  V70  1  0.61652350  0.13377024  -0.01278883  1
  V  V71  1  0.62597320  0.01524397  0.60622784  1
  V  V72  1  0.49802449  0.50321517  0.00205661  1
  Zn  Zn73  1  0.48619007  0.12772715  0.12205765  1
  Zn  Zn74  1  0.86529942  0.75981638  0.13269190  1
  Zn  Zn75  1  0.36293456  0.75680736  0.14028353  1
  Zn  Zn76  1  0.23508713  0.26100746  0.48970377  1
  Zn  Zn77  1  0.87715615  0.63747237  0.73134389  1
  Zn  Zn78  1  0.12587527  0.75066399  0.37664536  1
  Zn  Zn79  1  -0.00496080  0.75447034  0.26899615  1
  Zn  Zn80  1  0.36280673  0.11224412  0.76769183  1
  Zn  Zn81  1  0.86719272  0.85762512  0.50374482  1
  Zn  Zn82  1  0.24692929  0.11842701  0.35801589  1
  Zn  Zn83  1  0.18630201  0.18024406  0.69005198  1
  Zn  Zn84  1  0.17492971  0.70215014  0.18398732  1
  Zn  Zn85  1  0.18646562  0.68943332  0.68861197  1
  Zn  Zn86  1  0.68348380  0.18635341  0.19186446  1
  Zn  Zn87  1  0.69444864  0.20471572  0.68707940  1
  Zn  Zn88  1  0.68604083  0.68837254  0.18805235  1
  Zn  Zn89  1  0.68644958  0.64516273  0.71341176  1
  Zn  Zn90  1  0.30537943  0.31708524  0.31720275  1
  Zn  Zn91  1  0.31335834  0.31543465  0.80872737  1
  Zn  Zn92  1  0.31190583  0.82150202  0.32893361  1
  Zn  Zn93  1  0.32704539  0.80909239  0.81499961  1
  Zn  Zn94  1  0.81311468  0.31049567  0.29853796  1
  Zn  Zn95  1  0.81945853  0.33233995  0.79657714  1
  Zn  Zn96  1  0.81428221  0.81504550  0.31217283  1
  Zn  Zn97  1  0.79485500  0.82572232  0.81981981  1
  Zn  Zn98  1  0.19256952  0.44312044  0.43746664  1
  Zn  Zn99  1  0.18502508  0.43808749  0.93359112  1
  Zn  Zn100  1  0.17537815  0.93064397  0.56635906  1
  Zn  Zn101  1  0.20231651  0.92664557  0.91707826  1
  Zn  Zn102  1  0.69580714  0.44103301  0.43755732  1
  Zn  Zn103  1  0.68209414  0.43270529  0.94590126  1
  Zn  Zn104  1  0.68867940  0.94380005  0.43469418  1
  Zn  Zn105  1  0.67476820  0.93934677  0.94067440  1
  Zn  Zn106  1  0.29285702  0.06626611  0.06984815  1
  Zn  Zn107  1  0.30668279  0.07128553  0.59177382  1
  Zn  Zn108  1  0.30956268  0.56659770  0.06125404  1
  Zn  Zn109  1  0.31664920  0.56113697  0.56357255  1
  Zn  Zn110  1  0.80334936  0.07142362  0.05834954  1
  Zn  Zn111  1  0.81053877  0.07148636  0.56305191  1
  Zn  Zn112  1  0.80791978  0.54975191  0.05552466  1
  Zn  Zn113  1  0.81097906  0.65109766  0.57714631  1
  Zn  Zn114  1  0.43938933  0.43268880  0.18963166  1
  Zn  Zn115  1  0.44020964  0.43661826  0.68806812  1
  Zn  Zn116  1  0.43450247  0.93427932  0.19358008  1
  Zn  Zn117  1  0.44172334  0.94780173  0.67411824  1
  Zn  Zn118  1  0.94237390  0.43507184  0.18239068  1
  Zn  Zn119  1  0.89751281  0.46694744  0.65908053  1
  Zn  Zn120  1  0.93281747  0.94021071  0.17048186  1
  Zn  Zn121  1  0.92428872  0.93919221  0.69213545  1
  Zn  Zn122  1  0.07942278  0.06216223  0.31088365  1
  Zn  Zn123  1  0.11483033  0.03204319  0.82318817  1
  Zn  Zn124  1  0.07351033  0.58842846  0.30011266  1
  Zn  Zn125  1  0.06021226  0.56002104  0.81029961  1
  Zn  Zn126  1  0.56128492  0.05773282  0.32616035  1
  Zn  Zn127  1  0.55850143  0.06720174  0.80558872  1
  Zn  Zn128  1  0.57273376  0.56499998  0.31200378  1
  Zn  Zn129  1  0.56730677  0.55912182  0.81487081  1
  Zn  Zn130  1  0.39636456  0.19035016  0.42059695  1
  Zn  Zn131  1  0.43260376  0.18926137  0.94303510  1
  Zn  Zn132  1  0.44438627  0.68441763  0.44139487  1
  Zn  Zn133  1  0.43896418  0.68990328  0.93514619  1
  Zn  Zn134  1  0.93910900  0.18251193  0.43273771  1
  Zn  Zn135  1  1.00054371  0.14088521  0.89796834  1
  Zn  Zn136  1  0.94827298  0.68634445  0.43761799  1
  Zn  Zn137  1  0.90894436  0.65626612  0.93789558  1
  Zn  Zn138  1  0.07568146  0.30184207  0.06632117  1
  Zn  Zn139  1  0.05911584  0.31468985  0.56610475  1
  Zn  Zn140  1  0.05161402  0.81092312  0.04875906  1
  Zn  Zn141  1  0.03382073  0.80567903  0.57888792  1
  Zn  Zn142  1  0.56118372  0.31105419  0.06778820  1
  Zn  Zn143  1  0.53415075  0.28536953  0.51651701  1
  Zn  Zn144  1  0.55495952  0.81741219  0.06459237  1
  Zn  Zn145  1  0.58621526  0.80582652  0.58234826  1
  O  O146  1  0.13319680  0.11219450  0.13845499  1
  O  O147  1  0.10298823  0.12910711  0.62123363  1
  O  O148  1  0.11453310  0.61610958  0.11090451  1
  O  O149  1  0.13056637  0.60847983  0.61369540  1
  O  O150  1  0.61453738  0.11842676  0.13012249  1
  O  O151  1  0.61498713  0.13482921  0.62403137  1
  O  O152  1  0.61457712  0.61666480  0.11864079  1
  O  O153  1  0.63323944  0.63032940  0.60644125  1
  O  O154  1  0.37527467  0.39203984  0.38408279  1
  O  O155  1  0.37785388  0.38678415  0.88224437  1
  O  O156  1  0.39324261  0.87810936  0.39166910  1
  O  O157  1  0.38902950  0.87030460  0.89021843  1
  O  O158  1  0.88552435  0.36787169  0.37126345  1
  O  O159  1  0.87419234  0.37185874  0.89350471  1
  O  O160  1  0.86443238  0.89378612  0.38445909  1
  O  O161  1  0.86680540  0.87486964  0.89343230  1
  O  O162  1  0.26704901  -0.02614948  0.41341250  1
  O  O163  1  0.23416059  0.00812186  0.84093755  1
  O  O164  1  0.26161174  0.50549841  0.36646378  1
  O  O165  1  0.25978193  0.51018916  0.86952436  1
  O  O166  1  0.75864476  0.01445045  0.36558312  1
  O  O167  1  0.73458237  0.00114073  0.86235488  1
  O  O168  1  0.75064277  0.51549890  0.36527333  1
  O  O169  1  0.75832390  0.48606688  0.88475861  1
  O  O170  1  0.24255997  0.50003684  0.13069574  1
  O  O171  1  0.24446144  0.50184341  0.63312212  1
  O  O172  1  0.24766061  0.98438668  0.13410566  1
  O  O173  1  0.25732739  0.97414319  0.62869213  1
  O  O174  1  0.73982568  0.49348206  0.12916828  1
  O  O175  1  0.66448078  0.44597250  0.68758013  1
  O  O176  1  0.73497333  1.01128077  0.14016580  1
  O  O177  1  0.73796194  1.00761305  0.62690738  1
  O  O178  1  0.01213778  0.36270922  0.24045813  1
  O  O179  1  0.01739351  0.36775999  0.74557841  1
  O  O180  1  0.02674350  0.86518459  0.20425570  1
  O  O181  1  0.00168689  0.87632856  0.74257875  1
  O  O182  1  0.51617551  0.38077815  0.25148211  1
  O  O183  1  0.49659341  0.36846996  0.76323574  1
  O  O184  1  0.51057296  0.86852504  0.26065349  1
  O  O185  1  0.49023490  0.87949816  0.76109514  1
  O  O186  1  0.49266215  0.14653575  0.28156085  1
  O  O187  1  0.47991885  0.14242783  0.76138665  1
  O  O188  1  0.50894602  0.63678613  0.24398068  1
  O  O189  1  0.48553855  0.61718852  0.75695115  1
  O  O190  1  1.00358976  0.12425160  0.24058451  1
  O  O191  1  0.98464743  0.11939073  0.73355182  1
  O  O192  1  0.98748002  0.61444617  0.22514619  1
  O  O193  1  0.99761593  0.65001953  0.76416401  1
  O  O194  1  0.37621983  0.26860638  0.00977094  1
  O  O195  1  0.40251338  0.27365929  0.50269809  1
  O  O196  1  0.36163005  0.74017040  0.00534612  1
  O  O197  1  0.36880549  0.73903365  0.51163663  1
  O  O198  1  0.85606148  0.25147633  0.00629200  1
  O  O199  1  0.87930260  0.26174194  0.49711997  1
  O  O200  1  0.85176207  0.74100063  -0.01120961  1
  O  O201  1  0.88758619  0.73765011  0.52681393  1
  O  O202  1  0.12320912  0.23926617  0.50699506  1
  O  O203  1  0.14563155  0.25920510  0.98615184  1
  O  O204  1  0.13511926  0.72836431  0.50605219  1
  O  O205  1  0.13449655  0.74120997  1.00010906  1
  O  O206  1  0.64697008  0.27070966  0.49985950  1
  O  O207  1  0.63056861  0.24305200  1.00414197  1
  O  O208  1  0.61877756  0.73516567  0.48840486  1
  O  O209  1  0.62966395  0.74270081  1.00734005  1
  O  O210  1  0.48259102  0.25146708  0.12704639  1
  O  O211  1  0.50186236  0.24900641  0.63665901  1
  O  O212  1  0.49915248  0.74367281  0.13664008  1
  O  O213  1  0.49425638  0.74505229  0.61721139  1
  O  O214  1  1.01888630  0.22937606  0.13599542  1
  O  O215  1  0.98622625  0.23911798  0.61713744  1
  O  O216  1  0.99086195  0.72927839  0.10740094  1
  O  O217  1  0.95015595  0.73059267  0.58906420  1
  O  O218  1  0.00728499  0.23755523  0.35354789  1
  O  O219  1  -0.01275033  0.25505002  0.90597631  1
  O  O220  1  0.01091138  0.76105251  0.38465873  1
  O  O221  1  -0.02352051  0.71804416  0.81477481  1
  O  O222  1  0.48434090  0.20682509  0.32925606  1
  O  O223  1  0.48734424  0.26486980  0.86740923  1
  O  O224  1  0.50923615  0.75656447  0.37149992  1
  O  O225  1  0.50851152  0.75990753  0.87970341  1
  O  O226  1  0.22643562  0.11833578  0.51772323  1
  O  O227  1  0.22787400  0.11786916  0.99209249  1
  O  O228  1  0.24425839  0.62107029  0.49584901  1
  O  O229  1  0.24028783  0.62982885  0.99096564  1
  O  O230  1  0.75918232  0.14132623  0.48138238  1
  O  O231  1  0.73383203  0.14292232  1.00401788  1
  O  O232  1  0.73938606  0.62231515  0.48652488  1
  O  O233  1  0.73123504  0.62433083  1.00093987  1
  O  O234  1  0.26125374  0.39347910  0.00853989  1
  O  O235  1  0.26989461  0.37767311  0.49624105  1
  O  O236  1  0.26525874  0.85861396  -0.01158031  1
  O  O237  1  0.24008367  0.84933729  0.50441716  1
  O  O238  1  0.73633258  0.36105508  0.01753861  1
  O  O239  1  0.77348088  0.36748702  0.48502989  1
  O  O240  1  0.75250705  0.86974825  0.00070603  1
  O  O241  1  0.75115438  0.88835087  0.51164511  1
  O  O242  1  0.13007158  0.49822358  0.23709883  1
  O  O243  1  0.12876086  0.49678819  0.73828037  1
  O  O244  1  0.08938131  0.91363077  0.32790966  1
  O  O245  1  0.13831387  0.97392781  0.72747020  1
  O  O246  1  0.63529774  0.49590761  0.24206373  1
  O  O247  1  0.66394912  0.54809397  0.76543974  1
  O  O248  1  0.62913363  0.99767997  0.24740978  1
  O  O249  1  0.63797800  1.02299357  0.73698712  1
  O  O250  1  0.35602356  -0.01396619  0.25781366  1
  O  O251  1  0.36536470  -0.00423210  0.74575766  1
  O  O252  1  0.36706369  0.49516710  0.25854104  1
  O  O253  1  0.36936209  0.50593205  0.75439476  1
  O  O254  1  0.87097744  0.00035654  0.25596415  1
  O  O255  1  0.85738644  0.01859962  0.74569845  1
  O  O256  1  0.86316740  0.49437967  0.24330014  1
  O  O257  1  0.86259909  0.45107289  0.76980614  1
  O  O258  1  0.13295340  0.38173959  0.36011730  1
  O  O259  1  0.12758317  0.37774678  0.86130476  1
  O  O260  1  0.13023023  0.88246228  0.38152169  1
  O  O261  1  0.12264821  0.87704285  0.85063321  1
  O  O262  1  0.63157290  0.38164088  0.36366565  1
  O  O263  1  0.60520936  0.37780926  0.88177667  1
  O  O264  1  0.61942154  0.87046466  0.36980324  1
  O  O265  1  0.60900737  0.86573761  0.87891811  1
  O  O266  1  0.36607129  0.14415713  0.12051666  1
  O  O267  1  0.39649636  0.14941701  0.61062223  1
  O  O268  1  0.38613689  0.62589694  0.12595545  1
  O  O269  1  0.38097751  0.62199645  0.63685344  1
  O  O270  1  0.87353633  0.11653955  0.13844803  1
  O  O271  1  0.88108908  0.13922550  0.62523469  1
  O  O272  1  0.87941087  0.62145806  0.10981508  1
  O  O273  1  0.87233014  0.57327608  0.63710055  1
  O  O274  1  0.25904022  0.27057285  0.12250784  1
  O  O275  1  0.27230467  0.24972451  0.60704411  1
  O  O276  1  0.24883867  0.74277536  0.11011378  1
  O  O277  1  0.26348026  0.73552256  0.61485356  1
  O  O278  1  0.74974039  0.26175105  0.13206900  1
  O  O279  1  0.76780934  0.24227850  0.59871861  1
  O  O280  1  0.74843927  0.74511667  0.10905325  1
  O  O281  1  0.70263691  0.78985600  0.62408245  1
  O  O282  1  0.28158826  0.23036298  0.38861108  1
  O  O283  1  0.28024220  0.22131776  0.87344148  1
  O  O284  1  0.25027326  0.73860712  0.39007306  1
  O  O285  1  0.25880925  0.73629360  0.88418577  1
  O  O286  1  0.75906487  0.24223343  0.37675898  1
  O  O287  1  0.74927735  0.26508034  0.88745755  1
  O  O288  1  0.74042901  0.74211212  0.36817042  1
  O  O289  1  0.72616662  0.75767346  0.89007029  1
  O  O290  1  0.02861749  0.11396456  0.01581575  1
  O  O291  1  0.00589150  0.11921635  0.50546052  1
  O  O292  1  0.00384010  0.61400821  -0.00459868  1
  O  O293  1  0.01812627  0.60507822  0.49294294  1
  O  O294  1  0.51102424  0.13413984  0.00407897  1
  O  O295  1  0.51137743  0.15866921  0.50027871  1
  O  O296  1  0.50325785  0.61830899  0.01032840  1
  O  O297  1  0.51568884  0.60798842  0.49358310  1
  O  O298  1  0.49908250  0.39389447  0.49362256  1
  O  O299  1  0.49154153  0.38575484  0.99371568  1
  O  O300  1  0.51941932  0.86636299  0.49385233  1
  O  O301  1  0.49041064  0.88221667  0.99489028  1
  O  O302  1  1.00007555  0.38111153  0.48847446  1
  O  O303  1  0.99299394  0.37664973  1.01481723  1
  O  O304  1  0.98381707  0.89375353  0.50936854  1
  O  O305  1  0.99096044  0.89565192  0.99586018  1
  O  O306  1  0.48869499  0.50747886  0.36840234  1
  O  O307  1  0.49197711  0.49318355  0.88075931  1
  O  O308  1  0.49877807  0.98451320  0.38498878  1
  O  O309  1  0.50590833  0.98958602  0.87170412  1
  O  O310  1  1.01308955  0.50416887  0.37232712  1
  O  O311  1  0.99529076  0.49417881  0.88199362  1
  O  O312  1  0.98851854  1.00767584  0.38375868  1
  O  O313  1  1.02120980  1.02193566  0.89652891  1
  O  O314  1  0.00557985  0.01117146  0.11291632  1
  O  O315  1  -0.02156294  0.01557156  0.61074955  1
  O  O316  1  0.00395740  0.50602467  0.11034402  1
  O  O317  1  0.01247494  0.49258781  0.62209592  1
  O  O318  1  0.50778961  0.01153189  0.14166060  1
  O  O319  1  0.51080043  0.02940575  0.62263457  1
  O  O320  1  0.50439440  0.50602544  0.12019923  1
  O  O321  1  0.50864670  0.49673369  0.61734185  1
  O  O322  1  0.23959175  0.38766661  0.24269885  1
  O  O323  1  0.24666615  0.39141909  0.75651655  1
  O  O324  1  0.23809373  0.87092679  0.25658177  1
  O  O325  1  0.25671243  0.87119834  0.75086305  1
  O  O326  1  0.74170636  0.38353991  0.24017895  1
  O  O327  1  0.73143685  0.33206394  0.71824223  1
  O  O328  1  0.73529545  0.88736202  0.25807808  1
  O  O329  1  0.74996122  0.89957274  0.74048454  1
  O  O330  1  0.19400762  0.04424032  0.28183946  1
  O  O331  1  0.26561715  0.10612660  0.70654324  1
  O  O332  1  0.24460519  0.61554524  0.25856099  1
  O  O333  1  0.25617718  0.61607692  0.75626926  1
  O  O334  1  0.76060010  0.12231540  0.25707774  1
  O  O335  1  0.75946523  0.12673634  0.74815884  1
  O  O336  1  0.74724436  0.62020995  0.26051060  1
  O  O337  1  0.78498264  0.68880051  0.68535391  1
  O  O338  1  0.36139691  0.09136158  0.38091561  1
  O  O339  1  0.34293883  0.15994788  0.87450354  1
  O  O340  1  0.36755481  0.61098915  0.38389011  1
  O  O341  1  0.36977371  0.61776367  0.86641670  1
  O  O342  1  0.87134316  0.11645524  0.35900614  1
  O  O343  1  0.88690433  0.13736748  0.85382267  1
  O  O344  1  0.86012989  0.63600719  0.38257402  1
  O  O345  1  0.86885450  0.59684741  0.84772737  1
  O  O346  1  0.13214422  0.38742854  0.12787545  1
  O  O347  1  0.12872478  0.38426313  0.63041591  1
  O  O348  1  0.08786992  0.86112117  0.15384559  1
  O  O349  1  0.11463006  0.85930807  0.62925053  1
  O  O350  1  0.62793217  0.38590962  0.13098542  1
  O  O351  1  0.66560894  0.38525500  0.73215942  1
  O  O352  1  0.61421275  0.89325173  0.13554496  1
  O  O353  1  0.62163031  0.91162852  0.62392856  1
  O  O354  1  0.12402182  0.26695870  0.25169382  1
  O  O355  1  0.14163298  0.26429221  0.74447406  1
  O  O356  1  0.10453861  0.70935450  0.26769226  1
  O  O357  1  0.12276800  0.75929656  0.74547248  1
  O  O358  1  0.62859185  0.26553692  0.25136423  1
  O  O359  1  0.60452916  0.23945257  0.75554101  1
  O  O360  1  0.61881308  0.75903864  0.25733235  1
  O  O361  1  0.62514667  0.73692398  0.76707051  1
  O  O362  1  0.36703823  0.26242904  0.23639071  1
  O  O363  1  0.37988168  0.26161731  0.72976301  1
  O  O364  1  0.38877279  0.76053939  0.25694842  1
  O  O365  1  0.37468578  0.73519373  0.73657476  1
  O  O366  1  0.89468049  0.24210145  0.24630109  1
  O  O367  1  0.86626365  0.24650188  0.72954187  1
  O  O368  1  0.88930248  0.77618337  0.24172524  1
  O  O369  1  0.90691267  0.74545529  0.78426178  1
  O  O370  1  0.39050666  0.49531582  0.49580120  1
  O  O371  1  0.38250937  0.50000902  0.99253581  1
  O  O372  1  0.38027514  1.00541307  0.51845690  1
  O  O373  1  0.36758426  0.99339433  1.00541697  1
  O  O374  1  0.89701253  0.48363273  0.48544448  1
  O  O375  1  0.88283610  0.50526236  0.98092192  1
  O  O376  1  0.87897058  1.01495161  0.48437528  1
  O  O377  1  0.86735105  1.00307698  0.99378628  1
  O  O378  1  0.13143647  -0.02652934  0.00368319  1
  O  O379  1  0.10441879  0.00615728  0.50645369  1
  O  O380  1  0.11685029  0.50524088  0.00455093  1
  O  O381  1  0.11922278  0.49657194  0.50907406  1
  O  O382  1  0.62903207  0.01611321  0.01840292  1
  O  O383  1  0.63163007  0.01801201  0.50613294  1
  O  O384  1  0.61475098  0.50945047  0.00782044  1
  O  O385  1  0.62159663  0.50668462  0.49879265  1
  O  O386  1  0.36869773  0.37544581  0.11886275  1
  O  O387  1  0.38437010  0.37082237  0.60996323  1
  O  O388  1  0.38433509  0.86927594  0.10854297  1
  O  O389  1  0.38663526  0.85712968  0.62591173  1
  O  O390  1  0.85736456  0.37979462  0.12506742  1
  O  O391  1  0.88252614  0.36323535  0.61081537  1
  O  O392  1  0.87605761  0.87245026  0.09586391  1
  O  O393  1  0.85100524  0.87676784  0.62565573  1
  O  O394  1  0.12761855  0.12482613  0.39617349  1
  O  O395  1  0.11971514  0.14370322  0.86635188  1
  O  O396  1  0.14321336  0.61219483  0.39320788  1
  O  O397  1  0.13461892  0.61576929  0.88239696  1
  O  O398  1  0.64425437  0.12587145  0.36745393  1
  O  O399  1  0.61823343  0.12495997  0.88946556  1
  O  O400  1  0.63517465  0.63327878  0.38000711  1
  O  O401  1  0.60866901  0.63918538  0.89624272  1
