# generated using pymatgen
data_V73Zn73O256
_symmetry_space_group_name_H-M   'P 1'
_cell_length_a   16.91363838
_cell_length_b   16.86767564
_cell_length_c   16.88152474
_cell_angle_alpha   89.89694131
_cell_angle_beta   90.05631501
_cell_angle_gamma   89.97857498
_symmetry_Int_Tables_number   1
_chemical_formula_structural   V73Zn73O256
_chemical_formula_sum   'V73 Zn73 O256'
_cell_volume   4816.18331135
_cell_formula_units_Z   1
loop_
 _symmetry_equiv_pos_site_id
 _symmetry_equiv_pos_as_xyz
  1  'x, y, z'
loop_
 _atom_site_type_symbol
 _atom_site_label
 _atom_site_symmetry_multiplicity
 _atom_site_fract_x
 _atom_site_fract_y
 _atom_site_fract_z
 _atom_site_occupancy
  V  V0  1  0.87230060  0.13802906  0.24558976  1
  V  V1  1  0.74812748  0.12442962  0.38395359  1
  V  V2  1  -0.01514120  -0.00471927  -0.00005472  1
  V  V3  1  0.73648688  0.85703283  0.62464131  1
  V  V4  1  0.75277645  0.26716254  0.50928328  1
  V  V5  1  0.24342242  0.74362732  0.00443538  1
  V  V6  1  0.24488899  0.62229901  0.87862979  1
  V  V7  1  0.49427291  0.37559124  0.37227926  1
  V  V8  1  0.62987835  0.37943439  0.23982342  1
  V  V9  1  0.86811022  0.50000239  0.87969728  1
  V  V10  1  0.24694684  0.87045624  0.12355178  1
  V  V11  1  0.64036454  0.38256869  0.75500735  1
  V  V12  1  0.52300365  0.86831464  0.87548277  1
  V  V13  1  0.37177010  0.87797577  -0.01059976  1
  V  V14  1  0.61538311  0.86159010  0.24797359  1
  V  V15  1  0.62683794  0.24689378  0.38115744  1
  V  V16  1  -0.01110547  0.74255445  0.74520695  1
  V  V17  1  0.75642051  0.50818677  0.24567787  1
  V  V18  1  0.37423566  0.37615957  0.50389240  1
  V  V19  1  0.74953689  -0.00279431  0.24918542  1
  V  V20  1  0.24392515  0.24732197  0.50226728  1
  V  V21  1  0.25139196  0.00395687  0.24963872  1
  V  V22  1  0.88467482  0.63238516  0.23884170  1
  V  V23  1  0.25894691  0.50501818  0.26006255  1
  V  V24  1  0.74783353  0.14270622  0.87597054  1
  V  V25  1  0.76556531  0.36656977  0.11654729  1
  V  V26  1  0.38338606  -0.00416974  0.37683719  1
  V  V27  1  0.23756882  0.47926211  0.75284552  1
  V  V28  1  0.49322317  0.62624272  0.62611740  1
  V  V29  1  0.76356796  0.86597991  0.11939675  1
  V  V30  1  -0.01080249  0.13716355  0.12241774  1
  V  V31  1  0.39666169  0.24343440  0.62109090  1
  V  V32  1  0.12005669  0.52426945  0.12908721  1
  V  V33  1  0.38530666  0.50074851  0.87537900  1
  V  V34  1  0.49437723  0.12493855  0.12241194  1
  V  V35  1  0.01546237  0.00858524  0.53111379  1
  V  V36  1  -0.01100949  0.50490723  0.49372464  1
  V  V37  1  0.88873631  0.26783125  0.62487395  1
  V  V38  1  0.38644474  0.74107264  0.13117771  1
  V  V39  1  0.12753944  0.50050943  0.61012120  1
  V  V40  1  0.49876220  0.00146066  -0.00855476  1
  V  V41  1  0.38972092  0.11772280  0.75953795  1
  V  V42  1  0.63028426  0.00105935  0.12265864  1
  V  V43  1  0.64122509  0.49939048  0.62260369  1
  V  V44  1  0.38362519  0.38095744  0.00046389  1
  V  V45  1  0.62906411  0.13969173  -0.00415123  1
  V  V46  1  0.87850771  0.12813642  0.73863576  1
  V  V47  1  0.49835483  0.24772807  0.24639139  1
  V  V48  1  0.75752806  0.74231353  -0.01404835  1
  V  V49  1  0.86999379  -0.00208905  0.87494999  1
  V  V50  1  0.88695016  -0.00256654  0.37861591  1
  V  V51  1  0.13251129  0.88619005  0.74624066  1
  V  V52  1  0.11918527  0.74692847  0.88418666  1
  V  V53  1  0.37379922  0.87060120  0.52216974  1
  V  V54  1  0.12247579  0.12550108  -0.00983613  1
  V  V55  1  0.73459810  -0.00267085  0.74048521  1
  V  V56  1  0.52189460  0.00857600  0.51382117  1
  V  V57  1  0.22750414  0.37038229  0.13317788  1
  V  V58  1  0.24439926  0.12286600  0.38399328  1
  V  V59  1  0.50538370  0.50344247  0.49628378  1
  V  V60  1  0.85701142  0.61928480  0.74921660  1
  V  V61  1  0.50828297  0.26563631  0.76860088  1
  V  V62  1  -0.00736903  0.75465286  0.25279011  1
  V  V63  1  0.23715804  0.25319834  -0.01085447  1
  V  V64  1  -0.01045735  0.87416213  0.87980794  1
  V  V65  1  0.11677521  0.87810427  0.26796363  1
  V  V66  1  0.87386528  0.87104552  0.50971816  1
  V  V67  1  0.63070403  0.72477785  0.39564335  1
  V  V68  1  0.00269404  0.50921422  0.00331316  1
  V  V69  1  0.11951339  -0.00047399  0.12278129  1
  V  V70  1  0.01060370  0.35988490  0.36288375  1
  V  V71  1  0.00725937  0.37233129  0.86485651  1
  V  V72  1  0.61249158  0.63233609  0.01524446  1
  Zn  Zn73  1  0.50322391  0.74973045  0.75745660  1
  Zn  Zn74  1  0.87263225  0.49340364  0.37384686  1
  Zn  Zn75  1  0.25592730  0.09385566  0.85451107  1
  Zn  Zn76  1  0.12505666  0.26503534  0.83054065  1
  Zn  Zn77  1  0.50292350  0.86544262  0.37685779  1
  Zn  Zn78  1  0.36707031  0.24979666  0.12210268  1
  Zn  Zn79  1  0.37454285  0.12442063  0.24921517  1
  Zn  Zn80  1  0.36206091  0.63373677  0.73285227  1
  Zn  Zn81  1  0.08573672  0.69693692  0.42738753  1
  Zn  Zn82  1  0.17791403  0.19143841  0.18851749  1
  Zn  Zn83  1  0.21276616  0.19621659  0.68274150  1
  Zn  Zn84  1  0.17178048  0.67253108  0.24426188  1
  Zn  Zn85  1  0.15979584  0.67225869  0.70946349  1
  Zn  Zn86  1  0.68398038  0.18859054  0.18910343  1
  Zn  Zn87  1  0.68417118  0.19109969  0.68862590  1
  Zn  Zn88  1  0.68577920  0.68428369  0.17762491  1
  Zn  Zn89  1  0.67342809  0.68197782  0.69142604  1
  Zn  Zn90  1  0.30654744  0.31163182  0.31367052  1
  Zn  Zn91  1  0.32265667  0.31079812  0.81419924  1
  Zn  Zn92  1  0.31680800  0.81811940  0.30664346  1
  Zn  Zn93  1  0.31547353  0.81005537  0.80460460  1
  Zn  Zn94  1  0.81676566  0.31820781  0.32131288  1
  Zn  Zn95  1  0.82494045  0.32121486  0.80780560  1
  Zn  Zn96  1  0.80653648  0.81237428  0.31749421  1
  Zn  Zn97  1  0.80448639  0.81172507  0.80782206  1
  Zn  Zn98  1  0.18244660  0.42950389  0.43146091  1
  Zn  Zn99  1  0.18043441  0.43888648  0.94313443  1
  Zn  Zn100  1  0.16501490  0.88414279  0.47917835  1
  Zn  Zn101  1  0.17796288  0.93545902  0.93147886  1
  Zn  Zn102  1  0.68634993  0.44049589  0.42969376  1
  Zn  Zn103  1  0.68680606  0.42911626  0.93745252  1
  Zn  Zn104  1  0.69295806  0.92632869  0.43496503  1
  Zn  Zn105  1  0.69507935  0.94191505  0.94295379  1
  Zn  Zn106  1  0.29676183  0.04946963  0.03326851  1
  Zn  Zn107  1  0.33496341  0.06767483  0.55946988  1
  Zn  Zn108  1  0.30904365  0.56016729  0.06891391  1
  Zn  Zn109  1  0.31322503  0.54699231  0.56764436  1
  Zn  Zn110  1  0.81481464  0.20123134  0.05227397  1
  Zn  Zn111  1  0.80718383  0.06222941  0.56208423  1
  Zn  Zn112  1  0.80745701  0.55886116  0.06244939  1
  Zn  Zn113  1  0.81910334  0.58273870  0.55897585  1
  Zn  Zn114  1  0.42889793  0.42983833  0.18726502  1
  Zn  Zn115  1  0.43611227  0.44307719  0.69015544  1
  Zn  Zn116  1  0.43625713  0.93471267  0.17881148  1
  Zn  Zn117  1  0.45904430  0.93671140  0.69028008  1
  Zn  Zn118  1  0.94213417  0.43112874  0.18647587  1
  Zn  Zn119  1  0.94482333  0.45125215  0.68561857  1
  Zn  Zn120  1  0.93818156  0.94099239  0.19193825  1
  Zn  Zn121  1  0.93313762  0.93617676  0.69134358  1
  Zn  Zn122  1  0.06589386  0.09116669  0.30855648  1
  Zn  Zn123  1  0.08529801  0.09271402  0.76699387  1
  Zn  Zn124  1  0.06805528  0.55036325  0.31669564  1
  Zn  Zn125  1  0.05873974  0.55951408  0.81625526  1
  Zn  Zn126  1  0.56638320  0.06162953  0.31232326  1
  Zn  Zn127  1  0.56156294  0.07035051  0.81116767  1
  Zn  Zn128  1  0.56564927  0.55861444  0.31140602  1
  Zn  Zn129  1  0.57753952  0.57982514  0.80405492  1
  Zn  Zn130  1  0.44022841  0.18226213  0.43423903  1
  Zn  Zn131  1  0.43675682  0.19417231  0.93985155  1
  Zn  Zn132  1  0.44758333  0.69869493  0.43856027  1
  Zn  Zn133  1  0.43145941  0.68824556  0.94104541  1
  Zn  Zn134  1  0.94202141  0.18792721  0.45210173  1
  Zn  Zn135  1  0.94077979  0.18932812  0.92294448  1
  Zn  Zn136  1  0.91431914  0.67871641  0.42936746  1
  Zn  Zn137  1  0.93165206  0.68219489  0.93938833  1
  Zn  Zn138  1  0.04299345  0.31390024  0.04986808  1
  Zn  Zn139  1  0.06350941  0.32706727  0.56342575  1
  Zn  Zn140  1  0.05516234  0.80973877  0.06733109  1
  Zn  Zn141  1  0.04521693  0.81660231  0.56936187  1
  Zn  Zn142  1  0.56300857  0.31504698  0.06075452  1
  Zn  Zn143  1  0.56966250  0.32013715  0.56373094  1
  Zn  Zn144  1  0.56647894  0.81211973  0.05833478  1
  Zn  Zn145  1  0.55702007  0.81253916  0.55595761  1
  O  O146  1  0.11161249  0.11424315  0.11682768  1
  O  O147  1  0.18270751  0.06858637  0.62776009  1
  O  O148  1  0.12706198  0.62234825  0.13461222  1
  O  O149  1  0.12519815  0.60398634  0.63207591  1
  O  O150  1  0.61896107  0.11998000  0.11698269  1
  O  O151  1  0.63933777  0.12284898  0.61316614  1
  O  O152  1  0.62625698  0.61143821  0.11421032  1
  O  O153  1  0.60753441  0.60440288  0.62115175  1
  O  O154  1  0.38903145  0.36133546  0.38342606  1
  O  O155  1  0.36967175  0.38705961  0.88919687  1
  O  O156  1  0.37948422  0.88731944  0.37280285  1
  O  O157  1  0.37170674  0.87577630  0.88880507  1
  O  O158  1  0.89036950  0.37993683  0.37488089  1
  O  O159  1  0.89115529  0.38895526  0.87044802  1
  O  O160  1  0.86396874  0.89162901  0.38578528  1
  O  O161  1  0.87887230  0.88551911  0.86741321  1
  O  O162  1  0.26720300  0.00864585  0.36472430  1
  O  O163  1  0.25596791  0.01317399  0.92779657  1
  O  O164  1  0.24237525  0.49425379  0.35893007  1
  O  O165  1  0.24665673  0.50661761  0.87077547  1
  O  O166  1  0.75133506  0.00843303  0.36512909  1
  O  O167  1  0.75739463  0.00193400  0.86650319  1
  O  O168  1  0.75337923  0.48704270  0.35144595  1
  O  O169  1  0.77021251  0.48948124  0.88323256  1
  O  O170  1  0.23458815  0.48623944  0.12369392  1
  O  O171  1  0.24563265  0.49879086  0.64567092  1
  O  O172  1  0.24021776  0.99438008  0.12796607  1
  O  O173  1  0.23816722  1.01850971  0.62103997  1
  O  O174  1  0.75086779  0.48065992  0.13801256  1
  O  O175  1  0.73779990  0.51347572  0.60588709  1
  O  O176  1  0.73924499  0.99134053  0.13274854  1
  O  O177  1  0.74478649  1.00307419  0.63815934  1
  O  O178  1  0.00023394  0.37060640  0.26033551  1
  O  O179  1  0.00606536  0.39192964  0.76523465  1
  O  O180  1  0.00885770  0.87587467  0.25872461  1
  O  O181  1  -0.00214364  0.86434759  0.76432965  1
  O  O182  1  0.50769350  0.36864337  0.25217537  1
  O  O183  1  0.50384460  0.36821460  0.74514504  1
  O  O184  1  0.51388725  0.88154996  0.24495554  1
  O  O185  1  0.50528568  0.87249316  0.77146234  1
  O  O186  1  0.50266568  0.13227675  0.23962024  1
  O  O187  1  0.49803998  0.14949420  0.75627228  1
  O  O188  1  0.49662483  0.58343731  0.21389171  1
  O  O189  1  0.48507245  0.59870504  0.72596777  1
  O  O190  1  0.97840066  0.11187241  0.23268362  1
  O  O191  1  0.97455184  0.12128184  0.75985251  1
  O  O192  1  0.99117067  0.63933097  0.24125027  1
  O  O193  1  1.00271566  0.64120656  0.75847089  1
  O  O194  1  0.35997206  0.26270289  -0.00102326  1
  O  O195  1  0.38430438  0.25483895  0.50833722  1
  O  O196  1  0.36013795  0.76010884  0.00739146  1
  O  O197  1  0.39289445  0.77172686  0.50544183  1
  O  O198  1  0.89749655  0.25299530  0.00209062  1
  O  O199  1  0.86119509  0.24631271  0.51520488  1
  O  O200  1  0.85876441  0.74651618  -0.00219510  1
  O  O201  1  0.89338858  0.77508234  0.49694520  1
  O  O202  1  0.14681956  0.25413074  0.51402121  1
  O  O203  1  0.12978092  0.24368886  1.00108411  1
  O  O204  1  0.11928717  0.77872007  0.49544572  1
  O  O205  1  0.13054788  0.75860376  0.99458981  1
  O  O206  1  0.63452178  0.25732052  0.48837750  1
  O  O207  1  0.61767257  0.23892414  0.99814552  1
  O  O208  1  0.62574721  0.74133817  0.49538636  1
  O  O209  1  0.63772872  0.73926763  1.00842933  1
  O  O210  1  0.50059707  0.24184397  0.13157781  1
  O  O211  1  0.49766484  0.25274087  0.62451402  1
  O  O212  1  0.48418069  0.76019884  0.11810053  1
  O  O213  1  0.50981676  0.72839799  0.62693363  1
  O  O214  1  1.00650581  0.23403218  0.12519912  1
  O  O215  1  0.98683648  0.25433340  0.61169055  1
  O  O216  1  0.99572592  0.76511569  0.14949440  1
  O  O217  1  0.99064265  0.75348943  0.64681537  1
  O  O218  1  -0.00686868  0.26029348  0.38605660  1
  O  O219  1  0.00587375  0.26556493  0.86743013  1
  O  O220  1  -0.00572385  0.74327566  0.36006754  1
  O  O221  1  0.00286026  0.75740088  0.88011326  1
  O  O222  1  0.50798624  0.25266291  0.36587435  1
  O  O223  1  0.49848124  0.26300013  0.86797672  1
  O  O224  1  0.52338424  0.74995010  0.37200009  1
  O  O225  1  0.49971752  0.76939589  0.89092677  1
  O  O226  1  0.26421810  0.13398436  0.49199357  1
  O  O227  1  0.23808329  0.14701133  1.01280298  1
  O  O228  1  0.24812662  0.65619667  0.52547882  1
  O  O229  1  0.24884031  0.63536400  0.99425080  1
  O  O230  1  0.75298079  0.13344182  0.48632685  1
  O  O231  1  0.74456150  0.13175549  0.98592358  1
  O  O232  1  0.80914385  0.65364002  0.47479338  1
  O  O233  1  0.74314230  0.63765938  1.00616394  1
  O  O234  1  0.24564892  0.36298104  0.01090129  1
  O  O235  1  0.26864330  0.35787581  0.48485032  1
  O  O236  1  0.25189678  0.86774661  0.00728492  1
  O  O237  1  0.27508413  0.88284396  0.50228249  1
  O  O238  1  0.74126116  0.37586864  0.01860924  1
  O  O239  1  0.75030027  0.36538268  0.49218744  1
  O  O240  1  0.74555500  0.86496729  0.01367626  1
  O  O241  1  0.75940777  0.87695966  0.51421261  1
  O  O242  1  0.13276465  0.49775143  0.23165408  1
  O  O243  1  0.13703439  0.50059069  0.75502509  1
  O  O244  1  0.12994733  0.99664143  0.24142094  1
  O  O245  1  0.12070484  0.98648039  0.76607988  1
  O  O246  1  0.63443236  0.48352618  0.25279328  1
  O  O247  1  0.62740379  0.49458856  0.73353630  1
  O  O248  1  0.63371219  0.99903770  0.24043370  1
  O  O249  1  0.63635001  1.00398396  0.75501935  1
  O  O250  1  0.36615160  -0.00239264  0.25140881  1
  O  O251  1  0.40112989  0.01975476  0.74855604  1
  O  O252  1  0.35873359  0.48546960  0.25297701  1
  O  O253  1  0.35883828  0.49608148  0.76479186  1
  O  O254  1  0.86268383  0.00107264  0.25987446  1
  O  O255  1  0.86229328  0.01056707  0.75661189  1
  O  O256  1  0.86562867  0.50531295  0.24069396  1
  O  O257  1  0.88219075  0.51036357  0.76446063  1
  O  O258  1  0.11419275  0.36542605  0.37192667  1
  O  O259  1  0.11657295  0.37167080  0.87637796  1
  O  O260  1  0.13564945  0.88836207  0.36315297  1
  O  O261  1  0.11067003  0.86547677  0.87143528  1
  O  O262  1  0.61502365  0.36511682  0.36376388  1
  O  O263  1  0.62246062  0.38962883  0.85425297  1
  O  O264  1  0.62490541  0.87675223  0.35369018  1
  O  O265  1  0.62158107  0.87387996  0.88471540  1
  O  O266  1  0.38890335  0.12544200  0.12180194  1
  O  O267  1  0.38551044  0.13862129  0.63493287  1
  O  O268  1  0.37241465  0.64193676  0.11340893  1
  O  O269  1  0.38565505  0.61993378  0.61565555  1
  O  O270  1  0.87940289  0.13037495  0.13155240  1
  O  O271  1  0.86821814  0.12845282  0.63604619  1
  O  O272  1  0.86604918  0.62272013  0.13947718  1
  O  O273  1  0.87872997  0.61543002  0.65053158  1
  O  O274  1  0.24664081  0.25853725  0.12353206  1
  O  O275  1  0.27425215  0.24791771  0.60671137  1
  O  O276  1  0.24751170  0.76242513  0.11886817  1
  O  O277  1  0.24465277  0.71020306  0.57559675  1
  O  O278  1  0.74692939  0.25837479  0.12583320  1
  O  O279  1  0.74819167  0.25617260  0.61138780  1
  O  O280  1  0.75312899  0.76429074  0.12725680  1
  O  O281  1  0.74322520  0.75764942  0.63865135  1
  O  O282  1  0.25751486  0.23316964  0.38431349  1
  O  O283  1  0.24385996  0.25250468  0.88560016  1
  O  O284  1  0.28332380  0.72069171  0.37809939  1
  O  O285  1  0.23984362  0.74378087  0.88628634  1
  O  O286  1  0.74489957  0.24496086  0.38243619  1
  O  O287  1  0.75652779  0.24020844  0.86567855  1
  O  O288  1  0.72497962  0.75390005  0.36691108  1
  O  O289  1  0.74572490  0.75515794  0.88669968  1
  O  O290  1  0.00271112  0.11677032  0.00864809  1
  O  O291  1  -0.00013809  0.10495665  0.49948514  1
  O  O292  1  0.00376227  0.61059214  -0.00487609  1
  O  O293  1  0.00736171  0.60928645  0.47502185  1
  O  O294  1  0.50660896  0.12081533  0.00353296  1
  O  O295  1  0.50017972  0.10730040  0.49337948  1
  O  O296  1  0.51262678  0.63698828  0.00245691  1
  O  O297  1  0.48928355  0.60680349  0.49862239  1
  O  O298  1  0.49295515  0.38007119  0.49087622  1
  O  O299  1  0.48280377  0.37655210  1.00838330  1
  O  O300  1  0.49388120  0.89184858  0.49545451  1
  O  O301  1  0.49460163  0.88419599  0.99342823  1
  O  O302  1  1.01271784  0.39642287  0.48656340  1
  O  O303  1  1.00275414  0.39363810  0.98517325  1
  O  O304  1  0.97932597  0.90080854  0.51301499  1
  O  O305  1  1.00034338  0.88326822  0.99194878  1
  O  O306  1  0.50446773  0.48794158  0.38379625  1
  O  O307  1  0.48160053  0.51020845  0.86775042  1
  O  O308  1  0.48758314  0.99940225  0.36605167  1
  O  O309  1  0.50973657  0.99218677  0.88663346  1
  O  O310  1  0.99923117  0.48665147  0.37715134  1
  O  O311  1  0.99959103  0.49474500  0.88738217  1
  O  O312  1  0.98462205  1.00996059  0.36487042  1
  O  O313  1  0.98723023  0.99057713  0.88271428  1
  O  O314  1  0.00225331  0.00304126  0.11737223  1
  O  O315  1  0.00183524  0.00793373  0.63226929  1
  O  O316  1  0.01123889  0.49735960  0.11731735  1
  O  O317  1  0.01179552  0.50112266  0.60284504  1
  O  O318  1  0.51142905  0.00784570  0.11816313  1
  O  O319  1  0.51594444  0.00044792  0.61407606  1
  O  O320  1  0.49501952  0.53122312  0.15835077  1
  O  O321  1  0.49826536  0.49895977  0.60540311  1
  O  O322  1  0.24798556  0.37463488  0.23629719  1
  O  O323  1  0.24575214  0.37928985  0.76058036  1
  O  O324  1  0.23876184  0.88418054  0.24255813  1
  O  O325  1  0.23183727  0.87000875  0.76012863  1
  O  O326  1  0.73843690  0.36922877  0.24159239  1
  O  O327  1  0.73910210  0.37129692  0.74921916  1
  O  O328  1  0.74007758  0.88193879  0.24034000  1
  O  O329  1  0.75226521  0.88738773  0.73644075  1
  O  O330  1  0.25219580  0.11649376  0.25666492  1
  O  O331  1  0.28078001  0.13008344  0.75081617  1
  O  O332  1  0.26055958  0.60464930  0.23741504  1
  O  O333  1  0.25003480  0.62286737  0.76617741  1
  O  O334  1  0.75822099  0.11758458  0.25090847  1
  O  O335  1  0.75219052  0.11759288  0.76063981  1
  O  O336  1  0.74924448  0.61012269  0.24250360  1
  O  O337  1  0.75811985  0.62399509  0.75167163  1
  O  O338  1  0.37159006  0.11146535  0.36985943  1
  O  O339  1  0.37989751  0.12996473  0.86450688  1
  O  O340  1  0.33464999  0.66509093  0.38604762  1
  O  O341  1  0.36110408  0.61060249  0.88518349  1
  O  O342  1  0.86586190  0.11592273  0.36266813  1
  O  O343  1  0.86162896  0.11920964  0.86694633  1
  O  O344  1  0.87595567  0.60759467  0.34473807  1
  O  O345  1  0.87836244  0.60949589  0.86749259  1
  O  O346  1  0.12865218  0.36631504  0.12362575  1
  O  O347  1  0.12364764  0.39769858  0.62979527  1
  O  O348  1  0.12909692  0.88653614  0.12790212  1
  O  O349  1  0.11546064  0.87283618  0.64822816  1
  O  O350  1  0.62383888  0.37250310  0.13795805  1
  O  O351  1  0.62577886  0.39133618  0.63145350  1
  O  O352  1  0.63012694  0.88481813  0.13128266  1
  O  O353  1  0.63747610  0.87093555  0.61905606  1
  O  O354  1  0.10352622  0.19434743  0.26934425  1
  O  O355  1  0.12178785  0.19820769  0.74148267  1
  O  O356  1  0.11567924  0.77247041  0.25155659  1
  O  O357  1  0.10961391  0.75939465  0.76512031  1
  O  O358  1  0.61605420  0.25831492  0.25667369  1
  O  O359  1  0.61523833  0.26676573  0.74542864  1
  O  O360  1  0.62302241  0.76173981  0.23830354  1
  O  O361  1  0.59956622  0.69202405  0.77558387  1
  O  O362  1  0.38839886  0.24956065  0.24685313  1
  O  O363  1  0.39117638  0.25487055  0.73765528  1
  O  O364  1  0.37019621  0.75562288  0.23069338  1
  O  O365  1  0.38944536  0.73857351  0.76557111  1
  O  O366  1  0.86956135  0.23518603  0.25546594  1
  O  O367  1  0.86665921  0.23965385  0.73389620  1
  O  O368  1  0.87971778  0.74403382  0.25624201  1
  O  O369  1  0.88240645  0.73522673  0.76606120  1
  O  O370  1  0.37966327  0.48197328  0.49739508  1
  O  O371  1  0.36551566  0.48882800  0.99197010  1
  O  O372  1  0.38710675  0.99458447  0.48754819  1
  O  O373  1  0.39285673  0.99053107  1.01330831  1
  O  O374  1  0.88713610  0.50340641  0.49851506  1
  O  O375  1  0.88773164  0.50614099  0.99227418  1
  O  O376  1  0.87541337  1.00298752  0.48681315  1
  O  O377  1  0.88176410  1.00733024  0.98762375  1
  O  O378  1  0.10939288  0.00524384  0.00823301  1
  O  O379  1  0.11072937  -0.01711334  0.50927553  1
  O  O380  1  0.11800047  0.50355635  0.01617435  1
  O  O381  1  0.14718890  0.50517935  0.50956528  1
  O  O382  1  0.61992791  0.00972800  0.00772954  1
  O  O383  1  0.61732547  -0.00412084  0.48397425  1
  O  O384  1  0.62109169  0.52424581  -0.03060161  1
  O  O385  1  0.61138475  0.48990638  0.50472736  1
  O  O386  1  0.36126192  0.37491638  0.11104509  1
  O  O387  1  0.38185735  0.36549487  0.60924295  1
  O  O388  1  0.36198795  0.87047961  0.11542664  1
  O  O389  1  0.38245614  0.88568559  0.62188642  1
  O  O390  1  0.86475334  0.36894884  0.12716409  1
  O  O391  1  0.87978272  0.36644400  0.63644989  1
  O  O392  1  0.86093435  0.88368872  0.12996480  1
  O  O393  1  0.86053081  0.88180289  0.61692486  1
  O  O394  1  0.14751204  0.10561436  0.38926670  1
  O  O395  1  0.12341969  0.12108415  0.88941388  1
  O  O396  1  0.13272666  0.63567514  0.34670661  1
  O  O397  1  0.13135102  0.63769441  0.87288175  1
  O  O398  1  0.63654619  0.13763756  0.36306805  1
  O  O399  1  0.64006568  0.12270948  0.88201350  1
  O  O400  1  0.62588435  0.62400561  0.37695073  1
  O  O401  1  0.63478243  0.58261688  0.90902487  1
