# generated using pymatgen
data_V73Zn73O256
_symmetry_space_group_name_H-M   'P 1'
_cell_length_a   16.87666782
_cell_length_b   16.91255545
_cell_length_c   16.88383286
_cell_angle_alpha   90.12609354
_cell_angle_beta   89.83902398
_cell_angle_gamma   89.92379691
_symmetry_Int_Tables_number   1
_chemical_formula_structural   V73Zn73O256
_chemical_formula_sum   'V73 Zn73 O256'
_cell_volume   4819.07656906
_cell_formula_units_Z   1
loop_
 _symmetry_equiv_pos_site_id
 _symmetry_equiv_pos_as_xyz
  1  'x, y, z'
loop_
 _atom_site_type_symbol
 _atom_site_label
 _atom_site_symmetry_multiplicity
 _atom_site_fract_x
 _atom_site_fract_y
 _atom_site_fract_z
 _atom_site_occupancy
  V  V0  1  0.11971566  0.87616205  0.26760150  1
  V  V1  1  0.48836997  0.00228085  -0.00252458  1
  V  V2  1  0.74966628  0.49976845  0.73640145  1
  V  V3  1  0.25980719  0.00017269  0.26260235  1
  V  V4  1  0.24493055  0.74182072  0.49511550  1
  V  V5  1  0.50874192  0.26421283  0.26152834  1
  V  V6  1  0.00414287  0.23796662  0.25218951  1
  V  V7  1  0.49018428  0.50089179  0.50105178  1
  V  V8  1  0.63203931  0.73261196  0.37081484  1
  V  V9  1  0.62629541  0.62436435  0.51711125  1
  V  V10  1  0.00108065  0.72368764  0.74332224  1
  V  V11  1  0.87525856  0.75675817  0.15591684  1
  V  V12  1  0.62108861  0.00234398  0.12711074  1
  V  V13  1  0.75033815  0.13832435  0.37285484  1
  V  V14  1  0.50395102  -0.00147982  0.48115145  1
  V  V15  1  0.75639329  0.12158786  0.86257248  1
  V  V16  1  0.64176364  0.48929336  0.12300072  1
  V  V17  1  0.76526998  0.75369723  -0.00339461  1
  V  V18  1  0.49671982  0.50692989  -0.00266555  1
  V  V19  1  0.24735601  0.14704547  0.38299203  1
  V  V20  1  0.24632637  0.00757877  0.77538526  1
  V  V21  1  0.88466025  0.23426488  0.12635187  1
  V  V22  1  0.36210415  0.24998099  0.62160418  1
  V  V23  1  0.00716707  0.51008564  0.51920826  1
  V  V24  1  0.50498794  0.11853636  0.62461841  1
  V  V25  1  0.86271827  0.25136530  0.62634647  1
  V  V26  1  0.13520833  0.37770014  0.73894247  1
  V  V27  1  0.11705791  0.87870300  0.75310916  1
  V  V28  1  0.74947212  0.25191823  0.00972119  1
  V  V29  1  0.36818854  0.12453372  0.76163157  1
  V  V30  1  0.37850810  0.88421146  0.48747259  1
  V  V31  1  0.12420975  0.37502062  0.24473188  1
  V  V32  1  0.37171320  0.62860244  0.25805881  1
  V  V33  1  0.63091034  0.37730093  0.73257724  1
  V  V34  1  0.62916856  0.13170159  0.49387923  1
  V  V35  1  0.74908167  0.62562793  0.87691201  1
  V  V36  1  0.48921573  0.13583597  0.12589826  1
  V  V37  1  0.51686232  0.75530706  0.75182137  1
  V  V38  1  0.62601003  0.25409228  0.87420629  1
  V  V39  1  0.36935671  0.75176516  0.11777541  1
  V  V40  1  0.62340547  0.12330689  0.00024779  1
  V  V41  1  0.75080657  0.87938445  0.11510689  1
  V  V42  1  0.51611715  0.87745819  0.87262452  1
  V  V43  1  0.89255439  0.00157007  0.37583989  1
  V  V44  1  0.87546629  -0.01441128  0.88278282  1
  V  V45  1  0.49664326  0.75811783  0.25594997  1
  V  V46  1  0.36812568  0.36581527  -0.00110360  1
  V  V47  1  0.00311848  0.24375871  0.74326181  1
  V  V48  1  0.61975658  0.87920992  0.26279273  1
  V  V49  1  0.87408593  0.37894575  0.00545391  1
  V  V50  1  0.86578681  0.37300028  0.50694404  1
  V  V51  1  0.00609779  0.36770533  0.87676090  1
  V  V52  1  0.62500951  0.64116069  -0.00386986  1
  V  V53  1  0.24978382  0.89590123  0.62255876  1
  V  V54  1  0.00368401  0.38122565  0.38051139  1
  V  V55  1  0.00990976  0.74377935  0.26611004  1
  V  V56  1  0.14848556  0.64194499  0.00114100  1
  V  V57  1  0.24254829  0.50899515  0.24868421  1
  V  V58  1  0.37578410  0.75140637  0.63499565  1
  V  V59  1  0.37367092  0.13486734  0.25364648  1
  V  V60  1  0.12049565  0.00425897  0.12062366  1
  V  V61  1  0.36760202  0.87770684  -0.00614375  1
  V  V62  1  0.87590912  0.49734519  0.87270195  1
  V  V63  1  0.49997534  0.62892931  0.12694599  1
  V  V64  1  0.24811651  0.36961149  0.11851934  1
  V  V65  1  0.36289233  0.51114710  0.86383794  1
  V  V66  1  0.88522009  0.87489062  0.50813951  1
  V  V67  1  -0.00237434  0.11095353  0.62182851  1
  V  V68  1  0.75784713  0.00556504  0.25620105  1
  V  V69  1  0.24746865  0.87590901  0.12647358  1
  V  V70  1  0.11944207  0.12653860  0.50391587  1
  V  V71  1  0.87321949  0.72711319  0.62039789  1
  V  V72  1  0.50401266  0.37793575  0.87640437  1
  Zn  Zn73  1  0.49790061  0.62633272  0.63499658  1
  Zn  Zn74  1  0.00797800  0.59537045  0.10903454  1
  Zn  Zn75  1  -0.00313493  -0.02387750  0.01186530  1
  Zn  Zn76  1  0.40119081  0.47833608  0.35988111  1
  Zn  Zn77  1  -0.00617795  0.86193593  0.87906624  1
  Zn  Zn78  1  0.73495938  -0.12981024  0.63817085  1
  Zn  Zn79  1  0.77241497  0.58763595  0.34335953  1
  Zn  Zn80  1  0.35470382  0.36859508  0.49414235  1
  Zn  Zn81  1  0.50246632  0.25128840  0.74152269  1
  Zn  Zn82  1  0.18895531  0.18990366  0.18153445  1
  Zn  Zn83  1  0.18073131  0.18472177  0.69006320  1
  Zn  Zn84  1  0.18023315  0.68898306  0.18179373  1
  Zn  Zn85  1  0.16533878  0.71314223  0.64726958  1
  Zn  Zn86  1  0.68410283  0.19322335  0.18945323  1
  Zn  Zn87  1  0.68712472  0.05813919  0.68029459  1
  Zn  Zn88  1  0.68808004  0.68658445  0.18836757  1
  Zn  Zn89  1  0.69499429  0.69018559  0.69300380  1
  Zn  Zn90  1  0.31507159  0.31510609  0.30346102  1
  Zn  Zn91  1  0.33681713  0.35375437  0.77034411  1
  Zn  Zn92  1  0.30742769  0.80640408  0.31511378  1
  Zn  Zn93  1  0.31666694  0.82462099  0.80391358  1
  Zn  Zn94  1  0.82775277  0.30733280  0.31964254  1
  Zn  Zn95  1  0.81208889  0.30989163  0.81004920  1
  Zn  Zn96  1  0.80601522  0.82656143  0.33855001  1
  Zn  Zn97  1  0.82274367  0.80056445  0.80397674  1
  Zn  Zn98  1  0.19449598  0.42329683  0.42810809  1
  Zn  Zn99  1  0.18219480  0.45168346  0.94015049  1
  Zn  Zn100  1  0.18666354  0.94399642  0.44487056  1
  Zn  Zn101  1  0.14872865  0.86577018  0.96750583  1
  Zn  Zn102  1  0.67521830  0.43345134  0.45706081  1
  Zn  Zn103  1  0.69020700  0.44308533  0.94726087  1
  Zn  Zn104  1  0.68598190  0.91432641  0.46769585  1
  Zn  Zn105  1  0.69392849  0.93579501  0.81446783  1
  Zn  Zn106  1  0.30156825  0.06751150  0.06605726  1
  Zn  Zn107  1  0.31917827  0.06943439  0.55738318  1
  Zn  Zn108  1  0.31262717  0.55626698  0.06472877  1
  Zn  Zn109  1  0.28530200  0.53597770  0.52614686  1
  Zn  Zn110  1  0.81030858  0.06113427  0.05858685  1
  Zn  Zn111  1  0.82073521  0.06701222  0.55105255  1
  Zn  Zn112  1  0.82826678  0.56214747  0.16219271  1
  Zn  Zn113  1  0.82941490  0.57293795  0.51113509  1
  Zn  Zn114  1  0.43540441  0.44050133  0.18263175  1
  Zn  Zn115  1  0.44692924  0.44024656  0.67981684  1
  Zn  Zn116  1  0.43474519  0.94080857  0.18738759  1
  Zn  Zn117  1  0.43579249  0.94237865  0.68722065  1
  Zn  Zn118  1  0.93545690  0.42178699  0.19029557  1
  Zn  Zn119  1  0.94310848  0.43593943  0.68847594  1
  Zn  Zn120  1  0.93896545  0.93510636  0.19415607  1
  Zn  Zn121  1  0.85544502  0.96207730  0.69583119  1
  Zn  Zn122  1  0.07800615  0.06687909  0.31004912  1
  Zn  Zn123  1  0.03484688  0.04155636  0.80186681  1
  Zn  Zn124  1  0.06214369  0.55923220  0.31487832  1
  Zn  Zn125  1  0.07077282  0.55368502  0.82070186  1
  Zn  Zn126  1  0.56230612  0.07200791  0.31182767  1
  Zn  Zn127  1  0.55805067  0.06249377  0.81382481  1
  Zn  Zn128  1  0.60488989  0.51698112  0.32950555  1
  Zn  Zn129  1  0.56686570  0.56404801  0.80958918  1
  Zn  Zn130  1  0.43386408  0.19109107  0.43692783  1
  Zn  Zn131  1  0.43727081  0.19110961  0.93636246  1
  Zn  Zn132  1  0.43735291  0.68937719  0.44542049  1
  Zn  Zn133  1  0.43327873  0.69228675  0.92967687  1
  Zn  Zn134  1  0.93801573  0.18988704  0.43785149  1
  Zn  Zn135  1  0.93438054  0.19283140  0.93390075  1
  Zn  Zn136  1  0.93583651  0.68584544  0.43665776  1
  Zn  Zn137  1  0.94212365  0.67957772  0.92947018  1
  Zn  Zn138  1  0.06656650  0.30861162  0.05927558  1
  Zn  Zn139  1  0.07480049  0.30844940  0.56350530  1
  Zn  Zn140  1  0.03491402  0.76812140  0.04806656  1
  Zn  Zn141  1  0.05673730  0.81889906  0.56410597  1
  Zn  Zn142  1  0.55769155  0.31465387  0.06400931  1
  Zn  Zn143  1  0.55184980  0.31495057  0.54797117  1
  Zn  Zn144  1  0.56073544  0.81879719  0.06382037  1
  Zn  Zn145  1  0.56293207  0.81134130  0.55801461  1
  O  O146  1  0.13194442  0.10284640  0.13785530  1
  O  O147  1  0.11052570  0.12356543  0.61789660  1
  O  O148  1  0.12232622  0.62589585  0.10904231  1
  O  O149  1  0.16888805  0.59106394  0.64957688  1
  O  O150  1  0.61527790  0.12056235  0.11899088  1
  O  O151  1  0.61150814  0.11710704  0.61168811  1
  O  O152  1  0.61290984  0.62552340  0.11444263  1
  O  O153  1  0.62015437  0.64351779  0.61881983  1
  O  O154  1  0.36485717  0.37473928  0.38092616  1
  O  O155  1  0.38753618  0.38179179  0.88228591  1
  O  O156  1  0.36965409  0.87183081  0.38914983  1
  O  O157  1  0.37169824  0.87112539  0.89125746  1
  O  O158  1  0.89355585  0.36453138  0.39521544  1
  O  O159  1  0.87857863  0.37667802  0.88244732  1
  O  O160  1  0.89256128  0.90253779  0.35069785  1
  O  O161  1  0.86949235  0.88354264  0.87882473  1
  O  O162  1  0.25067858  0.00612097  0.36314457  1
  O  O163  1  0.25334265  0.00224000  0.87023004  1
  O  O164  1  0.25306431  0.49511179  0.34846360  1
  O  O165  1  0.26451090  0.49986652  0.87612661  1
  O  O166  1  0.75641535  0.00573106  0.35987857  1
  O  O167  1  0.76115187  0.01312307  0.88003172  1
  O  O168  1  0.71031940  0.49456513  0.36974071  1
  O  O169  1  0.75893322  0.50570934  0.87633982  1
  O  O170  1  0.26037010  0.48494106  0.13809089  1
  O  O171  1  0.23681373  0.55772870  0.65090798  1
  O  O172  1  0.24603049  0.99372326  0.13821697  1
  O  O173  1  0.25341904  0.99622143  0.62047399  1
  O  O174  1  0.74034738  0.50368333  0.11180771  1
  O  O175  1  0.75598060  0.50371225  0.64082612  1
  O  O176  1  0.73916202  1.00053048  0.13087096  1
  O  O177  1  0.76948190  1.00219645  0.62808833  1
  O  O178  1  0.00765921  0.36759219  0.25689334  1
  O  O179  1  0.01049212  0.36636854  0.75899441  1
  O  O180  1  0.01747965  0.87607639  0.25871181  1
  O  O181  1  0.01763185  0.88962059  0.75584256  1
  O  O182  1  0.48746995  0.36272224  0.24488789  1
  O  O183  1  0.51676310  0.37679682  0.76075131  1
  O  O184  1  0.50764494  0.86996078  0.24169630  1
  O  O185  1  0.49357911  0.87879279  0.76810220  1
  O  O186  1  0.49186803  0.13246691  0.24268867  1
  O  O187  1  0.49127692  0.12251615  0.73751156  1
  O  O188  1  0.48908572  0.63843814  0.23521793  1
  O  O189  1  0.51210759  0.64958058  0.75316633  1
  O  O190  1  1.01034161  0.13998886  0.24898813  1
  O  O191  1  1.00453219  0.13536446  0.73788046  1
  O  O192  1  1.02049934  0.64336180  0.24978612  1
  O  O193  1  1.01550060  0.62554137  0.74648073  1
  O  O194  1  0.37352804  0.26678949  -0.00789681  1
  O  O195  1  0.37834288  0.25464101  0.51692335  1
  O  O196  1  0.37984927  0.76058271  0.01026090  1
  O  O197  1  0.37081348  0.76716563  0.50995191  1
  O  O198  1  0.86846200  0.25112412  0.00930302  1
  O  O199  1  0.88378564  0.26359492  0.51168608  1
  O  O200  1  0.86525612  0.75637965  -0.00451600  1
  O  O201  1  0.88593248  0.75872197  0.51575166  1
  O  O202  1  0.12995143  0.23048123  0.50352825  1
  O  O203  1  0.14182219  0.21445297  1.03578095  1
  O  O204  1  0.14473812  0.74750369  0.53270156  1
  O  O205  1  0.14517378  0.74757722  1.00120715  1
  O  O206  1  0.62471993  0.22838848  0.50772993  1
  O  O207  1  0.62852233  0.24242857  0.99658584  1
  O  O208  1  0.61280144  0.73670595  0.47684712  1
  O  O209  1  0.62974228  0.74531647  1.00511301  1
  O  O210  1  0.50080050  0.23927294  0.12875629  1
  O  O211  1  0.49704208  0.23473992  0.62238545  1
  O  O212  1  0.49089034  0.74765785  0.12999418  1
  O  O213  1  0.49291979  0.76678127  0.63834259  1
  O  O214  1  0.99150771  0.24997957  0.12862746  1
  O  O215  1  0.99773961  0.24847911  0.63577256  1
  O  O216  1  0.98302397  0.77132698  0.15187916  1
  O  O217  1  0.98863093  0.74967798  0.63375118  1
  O  O218  1  -0.00457883  0.25644859  0.35803251  1
  O  O219  1  -0.01143994  0.26048701  0.85782898  1
  O  O220  1  -0.00105674  0.74896394  0.36561270  1
  O  O221  1  -0.01237078  0.75009262  0.84730474  1
  O  O222  1  0.49777160  0.24586965  0.36040906  1
  O  O223  1  0.50980369  0.26070412  0.87488725  1
  O  O224  1  0.50411883  0.74908310  0.35862899  1
  O  O225  1  0.49821039  0.76653264  0.86487472  1
  O  O226  1  0.25032215  0.12874602  0.48671182  1
  O  O227  1  0.24361530  0.13823379  0.98550197  1
  O  O228  1  0.26201344  0.64424782  0.50778369  1
  O  O229  1  0.24913765  0.62745721  1.00531622  1
  O  O230  1  0.73728126  0.11741197  0.48615635  1
  O  O231  1  0.73656116  0.13218923  0.99653419  1
  O  O232  1  0.72514005  0.62005129  0.50021426  1
  O  O233  1  0.74071823  0.64004090  0.99275995  1
  O  O234  1  0.25711970  0.38217778  0.00617540  1
  O  O235  1  0.25879413  0.42710157  0.51896158  1
  O  O236  1  0.25638410  0.87985078  0.01637762  1
  O  O237  1  0.25819633  0.87532927  0.51010093  1
  O  O238  1  0.76290250  0.36130553  -0.00765344  1
  O  O239  1  0.76835894  0.38286638  0.50386373  1
  O  O240  1  0.74143610  0.86740675  0.01377879  1
  O  O241  1  0.78969585  0.86480579  0.45586581  1
  O  O242  1  0.13407057  0.49349866  0.24481839  1
  O  O243  1  0.12770100  0.47632784  0.76269361  1
  O  O244  1  0.13825957  0.98950613  0.24769849  1
  O  O245  1  0.13744365  0.99514218  0.75763364  1
  O  O246  1  0.61021788  0.50243352  0.21797668  1
  O  O247  1  0.63453433  0.48676979  0.75206117  1
  O  O248  1  0.62465470  0.99800725  0.24221730  1
  O  O249  1  0.62395398  0.99836331  0.75135140  1
  O  O250  1  0.36454331  0.01033710  0.24819401  1
  O  O251  1  0.36164035  0.01580294  0.74567082  1
  O  O252  1  0.37199759  0.51318379  0.24972418  1
  O  O253  1  0.37653905  0.47853131  0.76530928  1
  O  O254  1  0.86059430  0.00966621  0.24733690  1
  O  O255  1  0.89755296  0.01501076  0.78458410  1
  O  O256  1  0.82849614  0.44877005  0.25574446  1
  O  O257  1  0.86084358  0.48528575  0.76247388  1
  O  O258  1  0.11732955  0.37459951  0.35781642  1
  O  O259  1  0.10596401  0.37363134  0.88948993  1
  O  O260  1  0.13483143  0.87983085  0.36602366  1
  O  O261  1  0.14377452  0.86206667  0.85018914  1
  O  O262  1  0.59974004  0.35204829  0.44871054  1
  O  O263  1  0.61712711  0.36959248  0.88810727  1
  O  O264  1  0.62931514  0.86851478  0.36460245  1
  O  O265  1  0.61448101  0.87651642  0.87928518  1
  O  O266  1  0.38129503  0.12081666  0.13362821  1
  O  O267  1  0.38406231  0.13420881  0.62944829  1
  O  O268  1  0.38090449  0.63582136  0.12795603  1
  O  O269  1  0.37955760  0.65272445  0.62455726  1
  O  O270  1  0.87807000  0.13533899  0.11910732  1
  O  O271  1  0.88972943  0.14196746  0.61054872  1
  O  O272  1  0.87538657  0.66352885  0.12090793  1
  O  O273  1  0.86748470  0.62898891  0.60951205  1
  O  O274  1  0.25792487  0.27049961  0.13411919  1
  O  O275  1  0.26319663  0.23733076  0.62919677  1
  O  O276  1  0.26151828  0.76345147  0.13830107  1
  O  O277  1  0.26662450  0.76839505  0.62660840  1
  O  O278  1  0.76098161  0.24310070  0.11719048  1
  O  O279  1  0.76716868  0.24632178  0.62852046  1
  O  O280  1  0.75752617  0.76276200  0.12277940  1
  O  O281  1  0.77067434  0.75364845  0.63561015  1
  O  O282  1  0.24627027  0.24510540  0.36821254  1
  O  O283  1  0.20565291  0.20844513  0.98591518  1
  O  O284  1  0.24366674  0.75516973  0.39536659  1
  O  O285  1  0.24866302  0.72304982  0.83741269  1
  O  O286  1  0.75246662  0.23747434  0.36713640  1
  O  O287  1  0.74275692  0.24194152  0.88547331  1
  O  O288  1  0.73216059  0.74162577  0.35818931  1
  O  O289  1  0.76140954  0.73422787  0.87790656  1
  O  O290  1  0.03511817  0.13037865  -0.03931103  1
  O  O291  1  0.00874963  0.12765070  0.50802095  1
  O  O292  1  0.01113120  0.65924907  0.01368822  1
  O  O293  1  -0.00493843  0.60773272  0.50510515  1
  O  O294  1  0.50181137  0.12190280  0.00553078  1
  O  O295  1  0.50408314  0.11656126  0.50280435  1
  O  O296  1  0.50357947  0.62561839  0.00310291  1
  O  O297  1  0.50899630  0.62624863  0.50604694  1
  O  O298  1  0.47058511  0.39916120  0.52259047  1
  O  O299  1  0.48906970  0.38489367  0.99496984  1
  O  O300  1  0.48866836  0.88820522  0.49977453  1
  O  O301  1  0.49144136  0.88308867  0.99251320  1
  O  O302  1  1.02092801  0.38363362  0.48653291  1
  O  O303  1  0.98662720  0.35795809  0.98716639  1
  O  O304  1  0.98709466  0.87351986  0.49348059  1
  O  O305  1  1.03065919  0.86461066  0.98877518  1
  O  O306  1  0.51244692  0.49538912  0.39261020  1
  O  O307  1  0.50218389  0.49448704  0.88254287  1
  O  O308  1  0.49452356  1.00805470  0.38199156  1
  O  O309  1  0.50030410  0.99118803  0.88852336  1
  O  O310  1  0.99313802  0.48113710  0.36721998  1
  O  O311  1  0.98258480  0.48230692  0.86632362  1
  O  O312  1  0.98822432  1.02531307  0.36505590  1
  O  O313  1  0.99234101  0.98535560  0.89227685  1
  O  O314  1  0.01377431  -0.00907216  0.12742461  1
  O  O315  1  -0.01816285  0.01616411  0.63236031  1
  O  O316  1  -0.06263026  0.52515710  0.15607243  1
  O  O317  1  0.01526826  0.49518931  0.61799012  1
  O  O318  1  0.50462253  0.00944536  0.11945938  1
  O  O319  1  0.48947509  0.01493558  0.61315694  1
  O  O320  1  0.49167864  0.51400317  0.10924852  1
  O  O321  1  0.49035594  0.51571043  0.61361827  1
  O  O322  1  0.24189224  0.38278074  0.23785788  1
  O  O323  1  0.22685862  0.35002467  0.77284322  1
  O  O324  1  0.25242695  0.88739658  0.24885664  1
  O  O325  1  0.25355461  0.89575565  0.73951112  1
  O  O326  1  0.77296011  0.39496702  0.25959185  1
  O  O327  1  0.73797857  0.38362639  0.75486087  1
  O  O328  1  0.73858522  0.89326051  0.24421577  1
  O  O329  1  0.77065026  0.88441005  0.74693686  1
  O  O330  1  0.25419415  0.11852249  0.25721936  1
  O  O331  1  0.25594938  0.11842540  0.75392180  1
  O  O332  1  0.25472617  0.61575143  0.23883486  1
  O  O333  1  0.23814323  0.66951991  0.78677425  1
  O  O334  1  0.73666235  0.11558581  0.26071047  1
  O  O335  1  0.74249238  0.12832908  0.76515027  1
  O  O336  1  0.76027302  0.61688518  0.23645250  1
  O  O337  1  0.73946593  0.60839940  0.76278307  1
  O  O338  1  0.36020658  0.13078417  0.36616649  1
  O  O339  1  0.38388005  0.12651170  0.86013480  1
  O  O340  1  0.37645811  0.64079796  0.35694983  1
  O  O341  1  0.38416150  0.61046178  0.86824409  1
  O  O342  1  0.85726820  0.11847434  0.38414459  1
  O  O343  1  0.85702341  0.13127885  0.87914847  1
  O  O344  1  0.86137330  0.60849767  0.40598907  1
  O  O345  1  0.86874818  0.60376325  0.88114624  1
  O  O346  1  0.13741106  0.37567902  0.12448313  1
  O  O347  1  0.13259404  0.37260510  0.63813843  1
  O  O348  1  0.14105965  0.88268008  0.14326790  1
  O  O349  1  0.14346201  0.87760496  0.63567863  1
  O  O350  1  0.62908356  0.38978131  0.10463843  1
  O  O351  1  0.62043330  0.36754639  0.63599396  1
  O  O352  1  0.62916348  0.88726065  0.13292701  1
  O  O353  1  0.64979317  0.87816404  0.57025214  1
  O  O354  1  0.11237065  0.26159105  0.23579356  1
  O  O355  1  0.10839269  0.25492688  0.74983387  1
  O  O356  1  0.12009752  0.76512800  0.25053337  1
  O  O357  1  0.10589435  0.76251596  0.73266461  1
  O  O358  1  0.60946472  0.25495602  0.24565275  1
  O  O359  1  0.62650529  0.26756120  0.76657703  1
  O  O360  1  0.61571352  0.75967804  0.25180869  1
  O  O361  1  0.61581768  0.76735607  0.74193636  1
  O  O362  1  0.38256916  0.23881382  0.24579223  1
  O  O363  1  0.37995680  0.23445016  0.74472552  1
  O  O364  1  0.37911686  0.74955039  0.24011236  1
  O  O365  1  0.38748093  0.76211471  0.74011783  1
  O  O366  1  0.88783140  0.25402627  0.23476605  1
  O  O367  1  0.88643135  0.25864025  0.73647828  1
  O  O368  1  0.88205921  0.75544119  0.25903253  1
  O  O369  1  0.88903026  0.73658014  0.73372126  1
  O  O370  1  0.39113794  0.52856355  0.47765121  1
  O  O371  1  0.38303588  0.49626904  0.98558299  1
  O  O372  1  0.38220010  0.99122440  0.49732279  1
  O  O373  1  0.38146099  0.99526063  1.01042746  1
  O  O374  1  0.89927083  0.47857127  0.51023792  1
  O  O375  1  0.87375665  0.47985470  0.98849475  1
  O  O376  1  0.87909174  0.99074065  0.48207147  1
  O  O377  1  0.88347913  1.01071559  0.98992079  1
  O  O378  1  0.13233265  -0.01019425  0.02135380  1
  O  O379  1  0.13130800  0.02303678  0.49878384  1
  O  O380  1  0.11439623  0.52850508  -0.01167013  1
  O  O381  1  0.11388031  0.51700280  0.46905650  1
  O  O382  1  0.61049436  0.01249548  0.01160911  1
  O  O383  1  0.60847518  0.00645807  0.48989170  1
  O  O384  1  0.61402070  0.51411115  0.00655171  1
  O  O385  1  0.60809292  0.51783078  0.51021108  1
  O  O386  1  0.36912027  0.38030675  0.10472214  1
  O  O387  1  0.37627232  0.35127601  0.65211052  1
  O  O388  1  0.36953888  0.87065960  0.11813634  1
  O  O389  1  0.36581134  0.87790059  0.61773205  1
  O  O390  1  0.87865685  0.36148277  0.10829513  1
  O  O391  1  0.88398462  0.36443611  0.61660170  1
  O  O392  1  0.86053789  0.87094652  0.13552590  1
  O  O393  1  0.86964622  0.87999803  0.60893527  1
  O  O394  1  0.14027756  0.12771598  0.38302387  1
  O  O395  1  0.08293109  0.12385490  0.90122426  1
  O  O396  1  0.12264759  0.57893924  0.41546178  1
  O  O397  1  0.12017194  0.61806853  0.89829008  1
  O  O398  1  0.63472168  0.12522488  0.38358703  1
  O  O399  1  0.62782339  0.13374826  0.88405873  1
  O  O400  1  0.61926540  0.63381703  0.36168718  1
  O  O401  1  0.63539853  0.61939918  0.88664717  1
