# generated using pymatgen
data_V73Zn73O256
_symmetry_space_group_name_H-M   'P 1'
_cell_length_a   16.85939591
_cell_length_b   16.92651563
_cell_length_c   16.87441495
_cell_angle_alpha   90.00231479
_cell_angle_beta   90.00824182
_cell_angle_gamma   89.92941943
_symmetry_Int_Tables_number   1
_chemical_formula_structural   V73Zn73O256
_chemical_formula_sum   'V73 Zn73 O256'
_cell_volume   4815.46206435
_cell_formula_units_Z   1
loop_
 _symmetry_equiv_pos_site_id
 _symmetry_equiv_pos_as_xyz
  1  'x, y, z'
loop_
 _atom_site_type_symbol
 _atom_site_label
 _atom_site_symmetry_multiplicity
 _atom_site_fract_x
 _atom_site_fract_y
 _atom_site_fract_z
 _atom_site_occupancy
  V  V0  1  0.12168931  -0.00000505  0.63603206  1
  V  V1  1  -0.01468118  0.75779466  0.24662933  1
  V  V2  1  0.11569502  0.74835420  0.87188131  1
  V  V3  1  0.37756483  0.61406204  0.25611446  1
  V  V4  1  0.63159706  0.39299763  0.75222596  1
  V  V5  1  0.23733623  0.26764946  -0.01285370  1
  V  V6  1  0.10792167  0.49907564  0.61367883  1
  V  V7  1  0.25499501  0.87721877  0.62831176  1
  V  V8  1  0.62660879  0.62087998  0.50993710  1
  V  V9  1  0.37421781  0.11999958  0.24295228  1
  V  V10  1  0.11388262  0.62598684  0.49641835  1
  V  V11  1  0.49916962  0.13848303  0.65355875  1
  V  V12  1  0.74491331  0.24115469  0.00278550  1
  V  V13  1  0.51052734  0.61779473  0.13480437  1
  V  V14  1  0.25989726  0.74034041  -0.00365237  1
  V  V15  1  0.62681882  0.24407983  0.86410965  1
  V  V16  1  -0.00175156  0.78291379  0.71598201  1
  V  V17  1  0.73835062  0.00368394  0.24727270  1
  V  V18  1  0.74106850  0.63524484  0.37637753  1
  V  V19  1  0.25131183  0.12575788  0.37067162  1
  V  V20  1  0.49503939  0.86192850  0.89082038  1
  V  V21  1  0.23803946  -0.01220817  0.23670077  1
  V  V22  1  0.75588421  0.11197284  0.87439284  1
  V  V23  1  0.87540888  0.00156787  0.37056834  1
  V  V24  1  0.12502505  0.75690510  0.36204098  1
  V  V25  1  0.74404807  0.39088746  0.62522535  1
  V  V26  1  0.74809782  0.13005126  0.38836852  1
  V  V27  1  0.62395304  0.61286421  -0.00545246  1
  V  V28  1  0.00258613  0.88373336  0.36081317  1
  V  V29  1  0.26490790  0.25882245  0.50315636  1
  V  V30  1  0.88853708  0.25214514  0.11667255  1
  V  V31  1  0.26003865  0.01677103  0.75542932  1
  V  V32  1  0.60276359  0.89059797  0.74668001  1
  V  V33  1  0.86018821  0.24044239  0.62535523  1
  V  V34  1  0.74790405  0.37853990  0.11845545  1
  V  V35  1  0.37916198  0.00289402  0.89293494  1
  V  V36  1  0.88222612  0.13586331  0.24344778  1
  V  V37  1  0.26147233  0.61935020  0.37602886  1
  V  V38  1  0.87200735  0.50020158  0.38052466  1
  V  V39  1  0.54157764  0.00312480  0.53921693  1
  V  V40  1  0.62382770  0.37319466  0.24753692  1
  V  V41  1  0.36265248  0.26527558  0.11277498  1
  V  V42  1  0.89910075  0.61481171  0.73117715  1
  V  V43  1  0.00444363  0.24917492  0.74147395  1
  V  V44  1  0.87021440  0.50472529  0.88383520  1
  V  V45  1  0.36944243  0.76122944  0.13365776  1
  V  V46  1  0.49870087  0.37512541  0.87964822  1
  V  V47  1  0.38193996  -0.01135587  0.37511848  1
  V  V48  1  0.48377348  0.49390459  0.50781718  1
  V  V49  1  0.62089519  0.00474241  0.10121364  1
  V  V50  1  0.87371539  0.36888956  0.50342740  1
  V  V51  1  0.87180880  0.75346177  0.11366158  1
  V  V52  1  0.73616172  0.74564470  -0.00457834  1
  V  V53  1  -0.00569347  0.37181428  0.36622714  1
  V  V54  1  0.11684474  0.25153192  0.36224207  1
  V  V55  1  0.50110632  0.12592496  0.10449704  1
  V  V56  1  0.48899240  0.63521887  0.63020357  1
  V  V57  1  0.12187446  0.38153527  0.74808631  1
  V  V58  1  0.13373304  0.11565469  0.00633071  1
  V  V59  1  0.74010277  0.87464245  0.12566807  1
  V  V60  1  0.62612949  0.24808878  0.39178635  1
  V  V61  1  0.26003259  0.38461220  0.61833483  1
  V  V62  1  0.12501791  0.12902951  0.50736696  1
  V  V63  1  -0.00948497  0.37789166  0.88008989  1
  V  V64  1  0.48696543  0.25536868  0.26269963  1
  V  V65  1  -0.00029660  0.61038799  0.11823919  1
  V  V66  1  0.25858381  0.76303105  0.49549248  1
  V  V67  1  0.00171085  0.00790515  0.49889569  1
  V  V68  1  0.18576610  0.44398438  0.19897606  1
  V  V69  1  0.87649327  0.11563100  0.75344024  1
  V  V70  1  0.51110140  0.76559765  0.26140014  1
  V  V71  1  0.36860743  0.50264018  0.87853941  1
  V  V72  1  0.87386240  0.86610657  0.51054890  1
  Zn  Zn73  1  0.47567696  0.38013993  0.39873948  1
  Zn  Zn74  1  0.37921661  0.61664639  0.75437585  1
  Zn  Zn75  1  0.74429785  0.49662688  0.25119931  1
  Zn  Zn76  1  0.73346650  0.88550166  0.61621140  1
  Zn  Zn77  1  0.87076507  0.61735180  0.24863894  1
  Zn  Zn78  1  0.50044989  0.48284207  0.01532156  1
  Zn  Zn79  1  0.99373784  -0.00250543  0.98984066  1
  Zn  Zn80  1  0.40217661  0.87475870  0.49737187  1
  Zn  Zn81  1  0.73511857  0.61411882  0.84078999  1
  Zn  Zn82  1  0.18174764  0.18232960  0.17762808  1
  Zn  Zn83  1  0.31769633  0.19426657  0.68530563  1
  Zn  Zn84  1  0.21293397  0.63969389  0.14942979  1
  Zn  Zn85  1  0.16683998  0.69786783  0.68119808  1
  Zn  Zn86  1  0.68295539  0.18618765  0.19202552  1
  Zn  Zn87  1  0.68673975  0.17558835  0.68708299  1
  Zn  Zn88  1  0.69073003  0.68105412  0.19033211  1
  Zn  Zn89  1  0.70310718  0.69674408  0.66622508  1
  Zn  Zn90  1  0.30595794  0.30548495  0.30553264  1
  Zn  Zn91  1  0.30341018  0.32857959  0.81334488  1
  Zn  Zn92  1  0.31583483  0.81019983  0.30495174  1
  Zn  Zn93  1  0.29501569  0.82364574  0.82845523  1
  Zn  Zn94  1  0.80871695  0.30980834  0.31054653  1
  Zn  Zn95  1  0.81248359  0.31313518  0.81106650  1
  Zn  Zn96  1  0.68248376  0.81577928  0.31747934  1
  Zn  Zn97  1  0.81172436  0.77091041  0.79606346  1
  Zn  Zn98  1  0.15679728  0.46311472  0.39409097  1
  Zn  Zn99  1  0.17810020  0.44974533  0.94247697  1
  Zn  Zn100  1  0.18943353  0.94297126  0.42682063  1
  Zn  Zn101  1  0.19696946  0.92353059  0.94316052  1
  Zn  Zn102  1  0.68242549  0.43747434  0.44288698  1
  Zn  Zn103  1  0.69138036  0.43801023  0.93794527  1
  Zn  Zn104  1  0.68758748  0.94329852  0.44001557  1
  Zn  Zn105  1  0.71878001  0.89932288  0.89166238  1
  Zn  Zn106  1  0.30510711  0.06961270  0.05570602  1
  Zn  Zn107  1  0.31873035  0.06129748  0.56241016  1
  Zn  Zn108  1  0.31694860  0.54780952  0.05987413  1
  Zn  Zn109  1  0.30711640  0.56704423  0.56261321  1
  Zn  Zn110  1  0.82232147  0.05996984  0.06243412  1
  Zn  Zn111  1  0.80815748  0.04871352  0.56942742  1
  Zn  Zn112  1  0.81507345  0.56311185  0.06352034  1
  Zn  Zn113  1  0.81486206  0.56439947  0.55830547  1
  Zn  Zn114  1  0.43233505  0.43648761  0.19558291  1
  Zn  Zn115  1  0.44670616  0.43981962  0.69280767  1
  Zn  Zn116  1  0.44077033  0.94259339  0.18485741  1
  Zn  Zn117  1  0.43295581  0.93562518  0.68790972  1
  Zn  Zn118  1  0.93274790  0.43163859  0.18993610  1
  Zn  Zn119  1  0.93058286  0.43919717  0.68882332  1
  Zn  Zn120  1  0.92541266  0.94459813  0.17316668  1
  Zn  Zn121  1  0.91636030  0.92532390  0.82479527  1
  Zn  Zn122  1  0.06510904  0.06864442  0.30658866  1
  Zn  Zn123  1  0.05875180  0.05938300  0.82385745  1
  Zn  Zn124  1  0.08576373  0.59458923  0.27392430  1
  Zn  Zn125  1  0.07428158  0.56162137  0.82512082  1
  Zn  Zn126  1  0.56167158  0.06833621  0.31567020  1
  Zn  Zn127  1  0.56192245  0.05382946  0.82768048  1
  Zn  Zn128  1  0.55642518  0.55291070  0.32199486  1
  Zn  Zn129  1  0.55316481  0.56296089  0.81308745  1
  Zn  Zn130  1  0.44317265  0.17012757  0.44554695  1
  Zn  Zn131  1  0.42857314  0.19088131  0.82974317  1
  Zn  Zn132  1  0.45003689  0.69008698  0.44316472  1
  Zn  Zn133  1  0.43526035  0.68488799  0.94484706  1
  Zn  Zn134  1  0.93401955  0.18799107  0.44047171  1
  Zn  Zn135  1  0.94593396  0.19350755  0.93354277  1
  Zn  Zn136  1  0.93233393  0.69385980  0.43267612  1
  Zn  Zn137  1  0.93892096  0.68205699  0.93184047  1
  Zn  Zn138  1  0.07512152  0.32267422  0.06573722  1
  Zn  Zn139  1  0.05915683  0.30889183  0.56187744  1
  Zn  Zn140  1  0.07202122  0.77208669  0.05290839  1
  Zn  Zn141  1  0.07036574  0.82528218  0.54467952  1
  Zn  Zn142  1  0.56314644  0.30042991  0.06408319  1
  Zn  Zn143  1  0.55816147  0.31028929  0.57530220  1
  Zn  Zn144  1  0.55790316  0.80826243  0.06953307  1
  Zn  Zn145  1  0.58824153  0.80113107  0.56323200  1
  O  O146  1  0.11815860  0.12147921  0.10868574  1
  O  O147  1  0.13344809  0.11183711  0.60739436  1
  O  O148  1  0.09983542  0.62276442  0.15053179  1
  O  O149  1  0.12982416  0.61504446  0.60678403  1
  O  O150  1  0.61201877  0.11889957  0.12626964  1
  O  O151  1  0.60126453  0.12986466  0.63172667  1
  O  O152  1  0.61357208  0.61736694  0.13062542  1
  O  O153  1  0.62162312  0.62501975  0.61412475  1
  O  O154  1  0.41608065  0.32223507  0.32780602  1
  O  O155  1  0.39555641  0.37800576  0.87372192  1
  O  O156  1  0.37485791  0.88567949  0.37397676  1
  O  O157  1  0.38335723  0.88699072  0.86847280  1
  O  O158  1  0.87582879  0.37042952  0.38341274  1
  O  O159  1  0.87963315  0.38823280  0.86922987  1
  O  O160  1  0.88442648  0.89776599  0.37746972  1
  O  O161  1  0.82306640  0.87018183  0.84889692  1
  O  O162  1  0.25698838  0.01141418  0.36162927  1
  O  O163  1  0.25729002  -0.00981910  0.85835047  1
  O  O164  1  0.25638968  0.52149295  0.38944232  1
  O  O165  1  0.27005959  0.48508920  0.87873597  1
  O  O166  1  0.75800661  0.01506449  0.36576047  1
  O  O167  1  0.75119284  0.01539724  0.88892801  1
  O  O168  1  0.76129935  0.49530845  0.37545441  1
  O  O169  1  0.76153230  0.50466124  0.87509953  1
  O  O170  1  0.24222123  0.51260069  0.14423477  1
  O  O171  1  0.23636305  0.48777758  0.61132347  1
  O  O172  1  0.25493339  1.00690451  0.13929843  1
  O  O173  1  0.24180634  0.99721040  0.62971042  1
  O  O174  1  0.75821523  0.48095288  0.12739065  1
  O  O175  1  0.75004205  0.48906287  0.62374158  1
  O  O176  1  0.73778271  0.99792862  0.12490899  1
  O  O177  1  0.75863585  0.98871985  0.64720284  1
  O  O178  1  -0.01131051  0.36554162  0.26710728  1
  O  O179  1  0.00396224  0.37023466  0.74717976  1
  O  O180  1  -0.01256565  0.87771947  0.25325069  1
  O  O181  1  -0.01636783  0.87823282  0.73879378  1
  O  O182  1  0.51723081  0.36463601  0.23298832  1
  O  O183  1  0.52192460  0.37703811  0.76239995  1
  O  O184  1  0.50193578  0.86364505  0.24486518  1
  O  O185  1  0.49929845  0.87741177  0.76039669  1
  O  O186  1  0.48697152  0.13814985  0.25219177  1
  O  O187  1  0.50077927  0.12936766  0.75806883  1
  O  O188  1  0.49698891  0.62708535  0.24976369  1
  O  O189  1  0.50208993  0.62567041  0.73485106  1
  O  O190  1  0.98124602  0.12198284  0.25112742  1
  O  O191  1  0.98827727  0.14169638  0.75740454  1
  O  O192  1  0.98551981  0.64105398  0.24725716  1
  O  O193  1  1.00010368  0.60702204  0.74417002  1
  O  O194  1  0.35493666  0.25493646  0.01108035  1
  O  O195  1  0.36269712  0.24400313  0.48612582  1
  O  O196  1  0.37360682  0.73589768  0.02903970  1
  O  O197  1  0.36259910  0.75930551  0.49140459  1
  O  O198  1  0.86765254  0.24747635  0.01142979  1
  O  O199  1  0.87356603  0.25093011  0.51702903  1
  O  O200  1  0.85931177  0.73600698  0.01066067  1
  O  O201  1  0.87419583  0.76697834  0.49281359  1
  O  O202  1  0.13118730  0.23843518  0.49670298  1
  O  O203  1  0.13485293  0.24331070  1.01003443  1
  O  O204  1  0.13230581  0.74413163  0.48448589  1
  O  O205  1  0.14339832  0.73025510  0.97881588  1
  O  O206  1  0.62314448  0.25714784  0.48988278  1
  O  O207  1  0.64038673  0.24589279  0.99127136  1
  O  O208  1  0.60317183  0.71669369  0.48088201  1
  O  O209  1  0.63097047  0.73389227  1.01162267  1
  O  O210  1  0.48875503  0.23886438  0.13118131  1
  O  O211  1  0.49187785  0.23830343  0.62973263  1
  O  O212  1  0.49465363  0.73564707  0.13918790  1
  O  O213  1  0.50024563  0.73338056  0.61115698  1
  O  O214  1  0.98619103  0.26375361  0.11860301  1
  O  O215  1  0.98336606  0.25460123  0.63477070  1
  O  O216  1  0.98490979  0.75035523  0.12629773  1
  O  O217  1  1.00700031  0.76574339  0.61636453  1
  O  O218  1  0.00952577  0.25207000  0.37801083  1
  O  O219  1  -0.01524363  0.26961749  0.85369718  1
  O  O220  1  0.00022721  0.76505695  0.36438190  1
  O  O221  1  0.01478242  0.75922812  0.89240940  1
  O  O222  1  0.51907063  0.23111671  0.37580990  1
  O  O223  1  0.52093508  0.25846679  0.87545011  1
  O  O224  1  0.49886491  0.75120031  0.36065714  1
  O  O225  1  0.48415210  0.76178511  0.87674743  1
  O  O226  1  0.24247525  0.13208495  0.48899746  1
  O  O227  1  0.23837596  0.14307268  0.99776153  1
  O  O228  1  0.24824206  0.64413328  0.49095606  1
  O  O229  1  0.24946384  0.63755678  1.03691150  1
  O  O230  1  0.76148957  0.12028400  0.48592281  1
  O  O231  1  0.76188625  0.13411602  0.99051763  1
  O  O232  1  0.73872709  0.61954452  0.48951317  1
  O  O233  1  0.73093236  0.62870000  1.01671816  1
  O  O234  1  0.22718847  0.36927874  0.00419271  1
  O  O235  1  0.25166940  0.36279468  0.50565298  1
  O  O236  1  0.24560086  0.84121808  0.01189395  1
  O  O237  1  0.24659477  0.86842073  0.49611232  1
  O  O238  1  0.74637152  0.36332626  0.01265880  1
  O  O239  1  0.75365960  0.37351246  0.51604051  1
  O  O240  1  0.73816829  0.85255255  0.00774479  1
  O  O241  1  0.77493599  0.89849491  0.49711054  1
  O  O242  1  0.13174787  0.49267297  0.27820752  1
  O  O243  1  0.11841990  0.48999535  0.72720251  1
  O  O244  1  0.13801592  1.00475764  0.25185705  1
  O  O245  1  0.12892581  1.00803261  0.73822060  1
  O  O246  1  0.62340221  0.47624274  0.25918508  1
  O  O247  1  0.63250010  0.49175363  0.75905131  1
  O  O248  1  0.63668727  1.01216169  0.24717521  1
  O  O249  1  0.62996574  0.98713722  0.76384860  1
  O  O250  1  0.36612861  0.00711610  0.25483941  1
  O  O251  1  0.36101968  0.00290353  0.74862280  1
  O  O252  1  0.38392149  0.51487311  0.26229966  1
  O  O253  1  0.38387519  0.49722912  0.77013230  1
  O  O254  1  0.86406184  0.01281371  0.25258598  1
  O  O255  1  0.88557744  0.01936232  0.74882681  1
  O  O256  1  0.87027783  0.49468045  0.26873746  1
  O  O257  1  0.87063406  0.51280781  0.75253355  1
  O  O258  1  0.10672331  0.36094498  0.38428108  1
  O  O259  1  0.11216442  0.38489418  0.85068889  1
  O  O260  1  0.11114110  0.87092450  0.37773028  1
  O  O261  1  0.17362300  0.83681380  0.86347604  1
  O  O262  1  0.62884505  0.35754306  0.36503908  1
  O  O263  1  0.63049421  0.36650914  0.86573951  1
  O  O264  1  0.62375824  0.89091644  0.37053059  1
  O  O265  1  0.60521482  0.87531159  0.86872257  1
  O  O266  1  0.38766313  0.12142276  0.12728989  1
  O  O267  1  0.38813533  0.12502762  0.62357347  1
  O  O268  1  0.38492478  0.62770347  0.14762088  1
  O  O269  1  0.38362798  0.62287590  0.63028154  1
  O  O270  1  0.86942336  0.14245271  0.13534600  1
  O  O271  1  0.86568108  0.13436384  0.63757743  1
  O  O272  1  0.87895987  0.63516865  0.12956160  1
  O  O273  1  0.88436668  0.61596375  0.63014187  1
  O  O274  1  0.26046920  0.25076424  0.12661956  1
  O  O275  1  0.25426268  0.25943002  0.60882644  1
  O  O276  1  0.26869725  0.74699738  0.14714679  1
  O  O277  1  0.23520195  0.76889297  0.60556291  1
  O  O278  1  0.74990180  0.25055980  0.11250009  1
  O  O279  1  0.75790657  0.25259442  0.63032115  1
  O  O280  1  0.75496394  0.75313966  0.12319188  1
  O  O281  1  0.70400834  0.78017315  0.59120618  1
  O  O282  1  0.23696786  0.24660366  0.38245619  1
  O  O283  1  0.24260600  0.26501646  0.88724833  1
  O  O284  1  0.24292980  0.75235489  0.38036646  1
  O  O285  1  0.28896361  0.72977673  0.90138317  1
  O  O286  1  0.74126894  0.23820281  0.37348641  1
  O  O287  1  0.74666956  0.24920000  0.88751290  1
  O  O288  1  0.75070610  0.73332115  0.36582565  1
  O  O289  1  0.74812696  0.73027406  0.89689049  1
  O  O290  1  0.01355908  0.11930501  -0.01230836  1
  O  O291  1  0.01573851  0.12206394  0.49302101  1
  O  O292  1  -0.00067547  0.63306599  0.02014842  1
  O  O293  1  0.01600101  0.63469599  0.48631022  1
  O  O294  1  0.49962249  0.13218243  0.00944542  1
  O  O295  1  0.50446007  0.09010603  0.49687791  1
  O  O296  1  0.51348312  0.62710892  0.01849083  1
  O  O297  1  0.50165735  0.61164951  0.51111810  1
  O  O298  1  0.50156508  0.38668170  0.51077564  1
  O  O299  1  0.51752316  0.36992752  0.98528219  1
  O  O300  1  0.51181127  0.90637175  0.51034934  1
  O  O301  1  0.49970746  0.86820628  0.99207004  1
  O  O302  1  0.98058825  0.36285596  0.49294431  1
  O  O303  1  1.01010951  0.36824863  0.97720867  1
  O  O304  1  0.99168957  0.89044203  0.48381113  1
  O  O305  1  1.04576476  0.89161421  1.03753643  1
  O  O306  1  0.49357664  0.49399794  0.39446344  1
  O  O307  1  0.50385095  0.48312519  0.88200204  1
  O  O308  1  0.48035455  1.00527936  0.36266410  1
  O  O309  1  0.48587657  0.99026293  0.88398658  1
  O  O310  1  0.98201314  0.47739572  0.37875122  1
  O  O311  1  0.98538368  0.48547204  0.86474090  1
  O  O312  1  0.99590499  1.00164117  0.37602479  1
  O  O313  1  0.99614528  0.98199160  0.87873293  1
  O  O314  1  0.08439621  -0.08563132  0.11226753  1
  O  O315  1  0.01991023  0.00149635  0.60786058  1
  O  O316  1  -0.01774903  0.51179536  0.12800522  1
  O  O317  1  0.00929546  0.49163383  0.61222186  1
  O  O318  1  0.51069871  0.01344122  0.12541764  1
  O  O319  1  0.49944887  0.01619228  0.63572508  1
  O  O320  1  0.49203046  0.51413151  0.12960122  1
  O  O321  1  0.49998839  0.51034628  0.61625062  1
  O  O322  1  0.24614595  0.38206100  0.25111329  1
  O  O323  1  0.22898513  0.36921004  0.73000256  1
  O  O324  1  0.25109691  0.88935362  0.25358989  1
  O  O325  1  0.25214742  0.88280339  0.72900735  1
  O  O326  1  0.73784421  0.36716178  0.23932270  1
  O  O327  1  0.74295217  0.37458057  0.73899151  1
  O  O328  1  0.74596749  0.88686318  0.23291321  1
  O  O329  1  0.70603760  0.83033289  0.75323175  1
  O  O330  1  0.25606430  0.12383761  0.25550534  1
  O  O331  1  0.25011114  0.11488609  0.74505200  1
  O  O332  1  0.26565011  0.62994119  0.26555083  1
  O  O333  1  0.26930072  0.67615205  0.74096586  1
  O  O334  1  0.75826249  0.12117799  0.25445206  1
  O  O335  1  0.76246460  0.12737021  0.76414498  1
  O  O336  1  0.75386099  0.61461335  0.26157207  1
  O  O337  1  0.77616891  0.66308762  0.74670807  1
  O  O338  1  0.36505295  0.12230810  0.36392812  1
  O  O339  1  0.37729015  0.10367273  0.87979501  1
  O  O340  1  0.36874585  0.63631880  0.37061164  1
  O  O341  1  0.38964101  0.60677844  0.87407362  1
  O  O342  1  0.86678176  0.12516589  0.36462765  1
  O  O343  1  0.86607444  0.13230029  0.86562370  1
  O  O344  1  0.86575627  0.60981699  0.38341950  1
  O  O345  1  0.88069153  0.61202752  0.86240503  1
  O  O346  1  0.11899898  0.39468309  0.14100495  1
  O  O347  1  0.12632861  0.38668989  0.61825230  1
  O  O348  1  0.12427236  0.85521183  0.14031053  1
  O  O349  1  0.13847336  0.89660062  0.60988057  1
  O  O350  1  0.63755575  0.36395585  0.13433760  1
  O  O351  1  0.63484759  0.37161501  0.64004212  1
  O  O352  1  0.62761410  0.89319807  0.11712241  1
  O  O353  1  0.60504987  0.88872702  0.64161675  1
  O  O354  1  0.12714810  0.24449061  0.26408401  1
  O  O355  1  0.10552531  0.26566323  0.73690789  1
  O  O356  1  0.10870823  0.74463981  0.26162952  1
  O  O357  1  0.09702046  0.75994243  0.74847986  1
  O  O358  1  0.61070404  0.25424944  0.25784547  1
  O  O359  1  0.63839017  0.25602420  0.76373889  1
  O  O360  1  0.61706028  0.75005250  0.24580166  1
  O  O361  1  0.64207990  0.77547073  0.75068351  1
  O  O362  1  0.37232064  0.23250807  0.23031213  1
  O  O363  1  0.37104723  0.25703871  0.76075005  1
  O  O364  1  0.39119351  0.74202629  0.24794091  1
  O  O365  1  0.32568209  0.73526068  0.74240327  1
  O  O366  1  0.87169923  0.24079325  0.24224632  1
  O  O367  1  0.87834578  0.24854842  0.73762589  1
  O  O368  1  0.88118630  0.75098102  0.23525493  1
  O  O369  1  0.91276156  0.73070174  0.75380712  1
  O  O370  1  0.38315365  0.50104740  0.50514985  1
  O  O371  1  0.38706112  0.49770691  0.98900200  1
  O  O372  1  0.36380948  0.99851988  0.47776453  1
  O  O373  1  0.35754498  0.99190272  0.99099831  1
  O  O374  1  0.86922913  0.48431714  0.48958122  1
  O  O375  1  0.87591954  0.50740434  0.98417795  1
  O  O376  1  0.89044750  1.01316362  0.48911409  1
  O  O377  1  0.91731168  1.00014700  1.07365880  1
  O  O378  1  0.14326609  0.01355085  -0.00927277  1
  O  O379  1  0.12062861  0.01505304  0.48998945  1
  O  O380  1  0.10741924  0.53331722  -0.06751914  1
  O  O381  1  0.12462117  0.51733882  0.49663041  1
  O  O382  1  0.62540450  0.01007288  0.00612618  1
  O  O383  1  0.64240367  0.00539027  0.52551952  1
  O  O384  1  0.62341219  0.50918389  0.00443228  1
  O  O385  1  0.61314733  0.51296751  0.49407863  1
  O  O386  1  0.37884332  0.36332395  0.12807647  1
  O  O387  1  0.35744622  0.38678071  0.63441353  1
  O  O388  1  0.38158871  0.86028070  0.13263214  1
  O  O389  1  0.35830157  0.88583433  0.61015163  1
  O  O390  1  0.85783507  0.35774772  0.13571034  1
  O  O391  1  0.86075021  0.36778525  0.62228943  1
  O  O392  1  0.85920764  0.85806488  0.12008727  1
  O  O393  1  0.88069280  0.87550631  0.60794499  1
  O  O394  1  0.13210427  0.13687395  0.37925108  1
  O  O395  1  0.09819958  0.13712810  0.89734256  1
  O  O396  1  0.14028645  0.63505593  0.37889508  1
  O  O397  1  0.14485558  0.65586596  0.83850350  1
  O  O398  1  0.64001818  0.13231483  0.37542352  1
  O  O399  1  0.64191415  0.13638938  0.86919846  1
  O  O400  1  0.64089523  0.61458308  0.37204744  1
  O  O401  1  0.62388101  0.61855436  0.89010222  1
