# generated using pymatgen
data_V73Zn73O256
_symmetry_space_group_name_H-M   'P 1'
_cell_length_a   16.90360004
_cell_length_b   16.88495320
_cell_length_c   16.91956793
_cell_angle_alpha   89.93278879
_cell_angle_beta   89.93459542
_cell_angle_gamma   89.78689316
_symmetry_Int_Tables_number   1
_chemical_formula_structural   V73Zn73O256
_chemical_formula_sum   'V73 Zn73 O256'
_cell_volume   4829.08393576
_cell_formula_units_Z   1
loop_
 _symmetry_equiv_pos_site_id
 _symmetry_equiv_pos_as_xyz
  1  'x, y, z'
loop_
 _atom_site_type_symbol
 _atom_site_label
 _atom_site_symmetry_multiplicity
 _atom_site_fract_x
 _atom_site_fract_y
 _atom_site_fract_z
 _atom_site_occupancy
  V  V0  1  0.87519994  0.12655619  0.24921855  1
  V  V1  1  0.74925804  0.37366230  0.61528163  1
  V  V2  1  0.37594784  0.74518653  0.62116420  1
  V  V3  1  0.86271563  0.62979816  0.24858350  1
  V  V4  1  0.39560390  -0.01650546  0.87421663  1
  V  V5  1  0.23534355  0.76150275  0.49851466  1
  V  V6  1  0.00100158  0.74488127  0.24897171  1
  V  V7  1  0.62236790  0.12586978  0.50010881  1
  V  V8  1  0.26261148  0.36263506  0.10699628  1
  V  V9  1  0.12789624  0.74472045  0.87201755  1
  V  V10  1  0.15284657  0.12464133  -0.00534009  1
  V  V11  1  0.73302440  0.62762847  0.86301108  1
  V  V12  1  0.13341724  0.12255959  0.49378051  1
  V  V13  1  0.74973537  0.13420346  0.37970801  1
  V  V14  1  0.12592947  0.37547604  0.25309822  1
  V  V15  1  0.50087830  0.12323794  0.62069810  1
  V  V16  1  0.13071215  0.24645202  0.37272254  1
  V  V17  1  0.00410636  0.25591613  0.75736242  1
  V  V18  1  0.37449106  0.12528762  0.75921898  1
  V  V19  1  0.25897477  0.76903689  0.01607026  1
  V  V20  1  0.74568491  -0.00949302  0.24116736  1
  V  V21  1  0.62686419  0.13060118  0.01692924  1
  V  V22  1  0.63117889  0.86580378  0.76755233  1
  V  V23  1  0.63440969  -0.01543966  0.61560625  1
  V  V24  1  -0.00528492  0.62787189  0.12473158  1
  V  V25  1  0.62867171  0.50239674  0.63529627  1
  V  V26  1  0.25372892  0.00392671  0.76367336  1
  V  V27  1  0.50969172  0.25176919  0.75694340  1
  V  V28  1  0.61552534  0.26099573  0.38170092  1
  V  V29  1  0.87300658  -0.00381352  0.37830027  1
  V  V30  1  0.87773307  -0.00590602  0.89237518  1
  V  V31  1  0.12321032  0.49486808  0.12505462  1
  V  V32  1  -0.00420839  0.48665575  -0.01111015  1
  V  V33  1  0.38164904  0.13127689  0.24305881  1
  V  V34  1  0.87472661  0.11424751  0.74833556  1
  V  V35  1  0.12081778  0.87634858  0.75841841  1
  V  V36  1  0.39863584  0.00077778  0.38788548  1
  V  V37  1  0.22975152  0.47357960  0.73959042  1
  V  V38  1  0.24726475  0.01784777  0.26243480  1
  V  V39  1  0.49733211  0.25546869  0.23484801  1
  V  V40  1  0.37591489  0.49329176  0.37726765  1
  V  V41  1  0.50094581  0.62328259  0.62808203  1
  V  V42  1  0.13608798  0.25416927  0.87502382  1
  V  V43  1  0.13497334  0.62507371  -0.00116854  1
  V  V44  1  0.37302556  0.37370516  0.50501507  1
  V  V45  1  0.74037725  0.13011654  0.87285234  1
  V  V46  1  0.75675792  0.77331247  0.50739723  1
  V  V47  1  0.00261181  0.12282449  0.62453768  1
  V  V48  1  0.12379032  -0.00114653  0.12002106  1
  V  V49  1  0.22880120  0.59734209  0.40994568  1
  V  V50  1  0.12835226  0.00012214  0.62884510  1
  V  V51  1  0.87623713  0.85835508  0.02254156  1
  V  V52  1  0.49507641  0.38159782  0.88795095  1
  V  V53  1  0.51012064  0.49758850  0.49568172  1
  V  V54  1  0.48722135  0.74936073  0.22799299  1
  V  V55  1  0.86107576  0.26768430  0.12809650  1
  V  V56  1  -0.00514346  0.12821980  0.10725134  1
  V  V57  1  0.25339160  0.24921995  0.50321604  1
  V  V58  1  0.87044041  0.25115743  0.61285652  1
  V  V59  1  0.49625542  0.75448503  0.76103938  1
  V  V60  1  0.89747735  0.64104625  0.76218425  1
  V  V61  1  0.13481658  0.87225958  0.24947237  1
  V  V62  1  0.00279895  0.87116053  0.37123977  1
  V  V63  1  0.62289310  0.38601898  0.23628399  1
  V  V64  1  0.00020966  0.25618364  0.25416392  1
  V  V65  1  0.74115429  0.62888973  0.38974079  1
  V  V66  1  0.88387140  0.49290617  0.38863221  1
  V  V67  1  0.73724187  0.74315392  0.00470570  1
  V  V68  1  0.25629594  0.87693221  0.63090243  1
  V  V69  1  0.60760343  0.75829046  0.37826037  1
  V  V70  1  0.25543664  0.49863474  0.24459464  1
  V  V71  1  0.51341962  -0.00742241  0.01856913  1
  V  V72  1  -0.00096562  -0.00400601  0.49775191  1
  Zn  Zn73  1  0.36616863  0.49575575  0.85276000  1
  Zn  Zn74  1  0.75646156  -0.01652951  0.74687669  1
  Zn  Zn75  1  0.36997483  0.63106291  0.25866798  1
  Zn  Zn76  1  0.59067277  0.89975510  0.25104149  1
  Zn  Zn77  1  0.00016323  0.87458097  0.88474038  1
  Zn  Zn78  1  0.74805821  0.49875237  0.25367362  1
  Zn  Zn79  1  0.63431208  0.36759176  0.75491513  1
  Zn  Zn80  1  0.84366483  0.37152335  -0.01915876  1
  Zn  Zn81  1  0.37249310  0.24940709  0.62750253  1
  Zn  Zn82  1  0.18783166  0.18604119  0.17957186  1
  Zn  Zn83  1  0.19003541  0.18989615  0.68973461  1
  Zn  Zn84  1  0.18594671  0.68541136  0.18868518  1
  Zn  Zn85  1  0.17964556  0.68354101  0.68130179  1
  Zn  Zn86  1  0.68491546  0.18848531  0.19563055  1
  Zn  Zn87  1  0.69250339  0.18395866  0.68579284  1
  Zn  Zn88  1  0.68393288  0.77350477  0.18297389  1
  Zn  Zn89  1  0.69202142  0.69184331  0.68759959  1
  Zn  Zn90  1  0.31146590  0.31311791  0.31432990  1
  Zn  Zn91  1  0.31376486  0.31467714  0.81166233  1
  Zn  Zn92  1  0.32272172  0.82175725  0.31529678  1
  Zn  Zn93  1  0.31073826  0.80603379  0.81810499  1
  Zn  Zn94  1  0.80511229  0.31799284  0.30905632  1
  Zn  Zn95  1  0.81179758  0.31206025  0.80291544  1
  Zn  Zn96  1  0.81441366  0.81095848  0.31970626  1
  Zn  Zn97  1  0.81289702  0.80422311  0.81563201  1
  Zn  Zn98  1  0.18178104  0.42624774  0.44549394  1
  Zn  Zn99  1  0.18640116  0.43628434  0.92782405  1
  Zn  Zn100  1  0.18925634  0.93301682  0.43774866  1
  Zn  Zn101  1  0.19225024  0.93778641  0.93848977  1
  Zn  Zn102  1  0.69540216  0.43629162  0.43607902  1
  Zn  Zn103  1  0.68500054  0.42839222  0.91865303  1
  Zn  Zn104  1  0.67952827  0.93844555  0.42886494  1
  Zn  Zn105  1  0.69577332  0.93710156  0.94551686  1
  Zn  Zn106  1  0.32548310  0.04140959  0.06614645  1
  Zn  Zn107  1  0.31550817  0.05966134  0.56651251  1
  Zn  Zn108  1  0.31243947  0.54893251  0.05924472  1
  Zn  Zn109  1  0.31216811  0.56277434  0.57422006  1
  Zn  Zn110  1  0.80811207  0.06926659  0.06178810  1
  Zn  Zn111  1  0.81036567  0.06228893  0.55992855  1
  Zn  Zn112  1  0.78568589  0.53041964  0.00164531  1
  Zn  Zn113  1  0.81094853  0.56642293  0.56773750  1
  Zn  Zn114  1  0.43739632  0.43190447  0.18808989  1
  Zn  Zn115  1  0.43118542  0.43655079  0.68838896  1
  Zn  Zn116  1  0.42239731  0.93204196  0.18275671  1
  Zn  Zn117  1  0.46490832  0.91661441  0.64821494  1
  Zn  Zn118  1  0.93835006  0.44613438  0.19606374  1
  Zn  Zn119  1  0.93944201  0.43302208  0.68543324  1
  Zn  Zn120  1  0.94158060  0.94137790  0.18705373  1
  Zn  Zn121  1  0.93736643  0.92288166  0.68140597  1
  Zn  Zn122  1  0.05927419  0.06406125  0.30941558  1
  Zn  Zn123  1  0.06078837  0.06493024  0.82003902  1
  Zn  Zn124  1  0.04354667  0.54436353  0.47320797  1
  Zn  Zn125  1  0.07009739  0.55322684  0.80656249  1
  Zn  Zn126  1  0.56204172  0.07248046  0.30980951  1
  Zn  Zn127  1  0.56552348  0.05393085  0.79753563  1
  Zn  Zn128  1  0.55947262  0.57357804  0.30996801  1
  Zn  Zn129  1  0.55690427  0.56187110  0.81088419  1
  Zn  Zn130  1  0.43487542  0.18167906  0.43017733  1
  Zn  Zn131  1  0.44675667  0.18153563  0.94351872  1
  Zn  Zn132  1  0.42456236  0.67871837  0.44325905  1
  Zn  Zn133  1  0.43715878  0.70095088  0.94823522  1
  Zn  Zn134  1  0.94312459  0.18585181  0.43317440  1
  Zn  Zn135  1  0.91600777  0.21651879  0.92590855  1
  Zn  Zn136  1  0.92960475  0.69397979  0.43387023  1
  Zn  Zn137  1  0.94019307  0.68375655  0.93735196  1
  Zn  Zn138  1  0.06815624  0.30467324  0.06279868  1
  Zn  Zn139  1  0.06197157  0.30770352  0.56619643  1
  Zn  Zn140  1  0.06058363  0.81273380  0.06119311  1
  Zn  Zn141  1  0.05216529  0.81806023  0.57352467  1
  Zn  Zn142  1  0.56839670  0.31357268  0.05563132  1
  Zn  Zn143  1  0.55836956  0.31383940  0.56478955  1
  Zn  Zn144  1  0.56437192  0.82220615  0.06634741  1
  Zn  Zn145  1  0.56013038  0.80729531  0.54711388  1
  O  O146  1  0.11562483  0.12411712  0.10815621  1
  O  O147  1  0.11897413  0.12089951  0.61772074  1
  O  O148  1  0.11713161  0.61542976  0.11828484  1
  O  O149  1  0.08807392  0.63003022  0.61230087  1
  O  O150  1  0.63336436  0.12477250  0.11685590  1
  O  O151  1  0.62277611  0.12578135  0.61313694  1
  O  O152  1  0.64472411  0.56638899  0.11843266  1
  O  O153  1  0.62092941  0.60867979  0.62719658  1
  O  O154  1  0.37311566  0.38536451  0.38516496  1
  O  O155  1  0.39018879  0.37140701  0.87335527  1
  O  O156  1  0.36724859  0.90558626  0.37374877  1
  O  O157  1  0.37481164  0.88574926  0.87195110  1
  O  O158  1  0.86326728  0.39458494  0.36863731  1
  O  O159  1  0.88206170  0.32509805  0.88628892  1
  O  O160  1  0.88827729  0.88849185  0.36862025  1
  O  O161  1  0.87715754  0.88854443  0.87269020  1
  O  O162  1  0.23751652  0.00528637  0.36216557  1
  O  O163  1  0.26216795  -0.00173860  0.86730205  1
  O  O164  1  0.25675746  0.49674013  0.36175612  1
  O  O165  1  0.24894065  0.48852123  0.85089061  1
  O  O166  1  0.76007608  0.01013429  0.37029677  1
  O  O167  1  0.76681759  0.00406360  0.86735590  1
  O  O168  1  0.74789146  0.51843127  0.37357265  1
  O  O169  1  0.74577262  0.52300871  0.88035345  1
  O  O170  1  0.24193342  0.48606586  0.12616502  1
  O  O171  1  0.23551854  0.50947760  0.63394254  1
  O  O172  1  0.22574729  1.01320548  0.14272398  1
  O  O173  1  0.24776794  0.99473948  0.63752690  1
  O  O174  1  0.71177177  0.53623775  0.12694831  1
  O  O175  1  0.73623542  0.48851447  0.61779322  1
  O  O176  1  0.75900475  1.00546423  0.14361089  1
  O  O177  1  0.73779528  1.00524643  0.62696329  1
  O  O178  1  0.01381934  0.36665377  0.24342341  1
  O  O179  1  -0.00623276  0.35498738  0.75117919  1
  O  O180  1  0.00622481  0.86787559  0.25427437  1
  O  O181  1  0.01966781  0.88724340  0.76115781  1
  O  O182  1  0.50551603  0.36389146  0.25219668  1
  O  O183  1  0.49883654  0.35533679  0.74062818  1
  O  O184  1  0.48303362  0.85898223  0.24431726  1
  O  O185  1  0.51249543  0.86129335  0.74204562  1
  O  O186  1  0.49144453  0.13859301  0.24587569  1
  O  O187  1  0.49380776  0.13304254  0.74300407  1
  O  O188  1  0.48646964  0.64341922  0.26062647  1
  O  O189  1  0.50583164  0.63892334  0.73624310  1
  O  O190  1  0.98946538  0.13503731  0.24647774  1
  O  O191  1  0.99610715  0.12155876  0.73615628  1
  O  O192  1  0.99978174  0.63867280  0.24563862  1
  O  O193  1  0.99873493  0.62893325  0.76136061  1
  O  O194  1  0.37734505  0.23925378  0.00652831  1
  O  O195  1  0.36836189  0.25341991  0.49413858  1
  O  O196  1  0.35926316  0.75782539  0.00155497  1
  O  O197  1  0.36765670  0.75353802  0.51839217  1
  O  O198  1  0.87170077  0.25830599  0.02626554  1
  O  O199  1  0.89215078  0.24791508  0.51491430  1
  O  O200  1  0.87673279  0.75605790  0.00452388  1
  O  O201  1  0.85611876  0.75811750  0.48923284  1
  O  O202  1  0.12937043  0.24327390  0.49276281  1
  O  O203  1  0.12558653  0.23212170  0.98922320  1
  O  O204  1  0.13461150  0.76292525  0.51202783  1
  O  O205  1  0.13164725  0.73790663  1.00025929  1
  O  O206  1  0.62024517  0.24584480  0.48759411  1
  O  O207  1  0.62210747  0.23077356  0.99960039  1
  O  O208  1  0.63768050  0.75567094  0.48351921  1
  O  O209  1  0.63824373  0.75988970  1.00072897  1
  O  O210  1  0.50053305  0.25511912  0.13654225  1
  O  O211  1  0.49728483  0.23819875  0.63137434  1
  O  O212  1  0.49741687  0.74361092  0.12928156  1
  O  O213  1  0.49039821  0.74123487  0.62446636  1
  O  O214  1  0.99418367  0.24359625  0.13732753  1
  O  O215  1  0.99794047  0.24078200  0.63373205  1
  O  O216  1  1.00671246  0.73880360  0.13418593  1
  O  O217  1  1.02550159  0.67123709  0.58989502  1
  O  O218  1  0.01120186  0.24789814  0.36325864  1
  O  O219  1  0.01135801  0.22880404  0.85829481  1
  O  O220  1  -0.00182561  0.76229497  0.36668065  1
  O  O221  1  0.02342933  0.75396234  0.88738726  1
  O  O222  1  0.51351278  0.24590239  0.36746066  1
  O  O223  1  0.49831710  0.25645346  0.86090919  1
  O  O224  1  0.50859646  0.74367287  0.39464846  1
  O  O225  1  0.49382257  0.74376690  0.85995501  1
  O  O226  1  0.23825248  0.12789681  0.50352367  1
  O  O227  1  0.25042866  0.11680250  1.00637733  1
  O  O228  1  0.25312910  0.64869704  0.50264971  1
  O  O229  1  0.23531900  0.62192376  1.00831190  1
  O  O230  1  0.74158185  0.12468243  0.48785463  1
  O  O231  1  0.73805409  0.11717232  0.98378549  1
  O  O232  1  0.75110364  0.63326131  0.49075915  1
  O  O233  1  0.74792742  0.63538467  0.98404495  1
  O  O234  1  0.24485447  0.37956733  0.00919144  1
  O  O235  1  0.26100970  0.36004723  0.49448619  1
  O  O236  1  0.23825135  0.86782946  0.01293321  1
  O  O237  1  0.24425134  0.87467228  0.52134411  1
  O  O238  1  0.74578020  0.42042884  0.01058244  1
  O  O239  1  0.74753568  0.36990488  0.51454976  1
  O  O240  1  0.76756760  0.85922690  -0.00497612  1
  O  O241  1  0.74894728  0.87398864  0.49360440  1
  O  O242  1  0.13683012  0.48944600  0.23849595  1
  O  O243  1  0.12671572  0.47538835  0.74990606  1
  O  O244  1  0.12874172  0.99804991  0.24460205  1
  O  O245  1  0.13537909  0.99933120  0.75071960  1
  O  O246  1  0.61410301  0.48777251  0.25808495  1
  O  O247  1  0.62021570  0.49285294  0.73532711  1
  O  O248  1  0.64230774  1.00519952  0.25962956  1
  O  O249  1  0.63031751  0.97900401  0.73546423  1
  O  O250  1  0.35885284  0.01159041  0.25766874  1
  O  O251  1  0.37100004  0.00956864  0.75857624  1
  O  O252  1  0.37098007  0.49451878  0.26354681  1
  O  O253  1  0.35492984  0.49857777  0.73920975  1
  O  O254  1  0.87192914  0.01007700  0.25930958  1
  O  O255  1  0.87722350  0.00427238  0.73851176  1
  O  O256  1  0.87182296  0.51485249  0.26213277  1
  O  O257  1  0.87906109  0.52599464  0.71548353  1
  O  O258  1  0.12905962  0.36313786  0.36230308  1
  O  O259  1  0.11972675  0.35166068  0.88370303  1
  O  O260  1  0.11539798  0.88486532  0.35717656  1
  O  O261  1  0.12576530  0.86793731  0.87440140  1
  O  O262  1  0.62832599  0.36275082  0.37270802  1
  O  O263  1  0.60516035  0.37683409  0.86499583  1
  O  O264  1  0.62075278  0.86302927  0.36417495  1
  O  O265  1  0.62824147  0.87784900  0.86506577  1
  O  O266  1  0.36860528  0.11991513  0.14501014  1
  O  O267  1  0.38723261  0.12157279  0.63439077  1
  O  O268  1  0.40502936  0.58458219  0.12863824  1
  O  O269  1  0.38148527  0.63892524  0.62842899  1
  O  O270  1  0.87764715  0.13335975  0.13579545  1
  O  O271  1  0.88342974  0.13057992  0.62621540  1
  O  O272  1  0.88849232  0.61670139  0.14430694  1
  O  O273  1  0.88505262  0.58907142  0.65479288  1
  O  O274  1  0.24623672  0.26409470  0.12519165  1
  O  O275  1  0.25190045  0.24256987  0.60842029  1
  O  O276  1  0.24677982  0.74502080  0.11407851  1
  O  O277  1  0.25708452  0.75627274  0.62459761  1
  O  O278  1  0.76317572  0.25192173  0.14273866  1
  O  O279  1  0.76446990  0.24879904  0.61868226  1
  O  O280  1  0.75342305  0.73302818  0.10708784  1
  O  O281  1  0.74268902  0.75011765  0.60491423  1
  O  O282  1  0.23823828  0.24804123  0.38253670  1
  O  O283  1  0.23531858  0.24640304  0.86236286  1
  O  O284  1  0.25553209  0.77799309  0.40173041  1
  O  O285  1  0.23638540  0.75419812  0.89379433  1
  O  O286  1  0.73537464  0.24029115  0.36299642  1
  O  O287  1  0.74742202  0.22889004  0.86410751  1
  O  O288  1  0.74173817  0.74193333  0.37768248  1
  O  O289  1  0.75462865  0.73750717  0.88724293  1
  O  O290  1  -0.01781762  0.13596051  0.00948785  1
  O  O291  1  0.01063961  0.11758166  0.50670075  1
  O  O292  1  0.00712572  0.61540636  0.01076328  1
  O  O293  1  -0.01478097  0.63143391  0.51974630  1
  O  O294  1  0.52282684  0.11027707  -0.00991727  1
  O  O295  1  0.51148671  0.13179342  0.50758046  1
  O  O296  1  0.53030042  0.63352665  0.00714428  1
  O  O297  1  0.48964016  0.60799921  0.51622370  1
  O  O298  1  0.49175966  0.39080552  0.50227101  1
  O  O299  1  0.50474203  0.38002201  0.98758866  1
  O  O300  1  0.48300192  0.88549837  0.53955741  1
  O  O301  1  0.50734679  0.89286689  0.99884289  1
  O  O302  1  0.99486816  0.41750219  0.58203903  1
  O  O303  1  1.01261820  0.38807535  1.00842919  1
  O  O304  1  1.01609225  0.89144375  0.48295392  1
  O  O305  1  0.98257808  0.87371455  1.00182172  1
  O  O306  1  0.49023621  0.51336004  0.39119390  1
  O  O307  1  0.49018954  0.48475690  0.85827115  1
  O  O308  1  0.49912920  0.99842607  0.36910615  1
  O  O309  1  0.49494940  0.99001848  0.85919763  1
  O  O310  1  0.98566808  0.50137024  0.38705430  1
  O  O311  1  1.01077151  0.49921560  0.89127267  1
  O  O312  1  0.99196999  0.99820276  0.37871687  1
  O  O313  1  0.98053277  1.00471397  0.87598625  1
  O  O314  1  0.01287269  0.01737730  0.13469502  1
  O  O315  1  0.00693746  0.00679439  0.61553331  1
  O  O316  1  0.01103066  0.50709153  0.12514793  1
  O  O317  1  0.06692170  0.46175339  0.57839418  1
  O  O318  1  0.50055058  -0.00139540  0.11778986  1
  O  O319  1  0.52286250  0.01663550  0.63426926  1
  O  O320  1  0.46585126  0.53394828  0.12860219  1
  O  O321  1  0.51054445  0.50204751  0.61907854  1
  O  O322  1  0.24490186  0.38018592  0.24241025  1
  O  O323  1  0.25300714  0.37347807  0.73345457  1
  O  O324  1  0.23620097  0.88573876  0.25196957  1
  O  O325  1  0.24280234  0.88433870  0.74992065  1
  O  O326  1  0.72906330  0.38264965  0.24889342  1
  O  O327  1  0.74618523  0.36297181  0.72918437  1
  O  O328  1  0.75709557  0.88934760  0.25652945  1
  O  O329  1  0.73596569  0.86422722  0.74984283  1
  O  O330  1  0.25323392  0.12298865  0.25351280  1
  O  O331  1  0.26587126  0.11783778  0.74339201  1
  O  O332  1  0.25979606  0.60349541  0.22712679  1
  O  O333  1  0.22941074  0.59631074  0.72830421  1
  O  O334  1  0.75955961  0.11772031  0.26022752  1
  O  O335  1  0.76197655  0.11872865  0.75280217  1
  O  O336  1  0.76098452  0.62909735  0.25551382  1
  O  O337  1  0.76187312  0.63651865  0.76039768  1
  O  O338  1  0.37987077  0.11178670  0.35847645  1
  O  O339  1  0.38556060  0.11881738  0.85975360  1
  O  O340  1  0.34960005  0.60996627  0.38291316  1
  O  O341  1  0.37874628  0.60325730  0.91860974  1
  O  O342  1  0.87011216  0.12131716  0.36891897  1
  O  O343  1  0.86673332  0.11496523  0.86633513  1
  O  O344  1  0.86454876  0.61987354  0.36791004  1
  O  O345  1  0.87596204  0.62411134  0.86395868  1
  O  O346  1  0.13252644  0.37904896  0.13267917  1
  O  O347  1  0.12716751  0.40536192  0.56013847  1
  O  O348  1  0.11366128  0.89188962  0.13587378  1
  O  O349  1  0.13415986  0.88172735  0.64047983  1
  O  O350  1  0.61451259  0.38149777  0.13675334  1
  O  O351  1  0.63338448  0.38078021  0.62453204  1
  O  O352  1  0.62834785  0.86499602  0.14846364  1
  O  O353  1  0.62797597  0.88535406  0.61469368  1
  O  O354  1  0.12032138  0.25298458  0.25438076  1
  O  O355  1  0.11370407  0.24040603  0.75753980  1
  O  O356  1  0.12085066  0.76725410  0.24241179  1
  O  O357  1  0.13639229  0.75798347  0.76550676  1
  O  O358  1  0.61242993  0.25882973  0.25604809  1
  O  O359  1  0.61210565  0.24415238  0.74340745  1
  O  O360  1  0.60078146  0.74648236  0.26406155  1
  O  O361  1  0.61355468  0.75938842  0.74372330  1
  O  O362  1  0.38574450  0.24277557  0.25810098  1
  O  O363  1  0.38158047  0.23550031  0.74777401  1
  O  O364  1  0.37876100  0.74895962  0.25029370  1
  O  O365  1  0.38812653  0.75465870  0.74189088  1
  O  O366  1  0.88192050  0.24513847  0.25033926  1
  O  O367  1  0.88928028  0.23190751  0.73773351  1
  O  O368  1  0.88401921  0.73752367  0.25741437  1
  O  O369  1  0.88449735  0.74151189  0.75042719  1
  O  O370  1  0.37324426  0.49180567  0.49710944  1
  O  O371  1  0.38539920  0.53709158  0.97024259  1
  O  O372  1  0.38164274  1.01720738  0.48708021  1
  O  O373  1  0.40125861  1.01377512  0.97808563  1
  O  O374  1  0.86556695  0.50589061  0.48782635  1
  O  O375  1  0.89411811  0.49052821  1.00426526  1
  O  O376  1  0.88787596  1.00896111  0.49064159  1
  O  O377  1  0.86696562  0.98953311  0.99483619  1
  O  O378  1  0.13030013  0.01013967  0.01246397  1
  O  O379  1  0.12095160  0.00683319  0.50551159  1
  O  O380  1  0.12099599  0.50942669  0.00714438  1
  O  O381  1  0.15460346  0.53707452  0.46000148  1
  O  O382  1  0.62155104  0.00534455  0.00134089  1
  O  O383  1  0.62903824  0.01115513  0.50757335  1
  O  O384  1  0.52649653  0.55955019  0.00527100  1
  O  O385  1  0.61237805  0.49451810  0.50313574  1
  O  O386  1  0.36183667  0.38124895  0.12125200  1
  O  O387  1  0.38024506  0.36751789  0.60844351  1
  O  O388  1  0.34306435  0.93508000  0.10671630  1
  O  O389  1  0.36103233  0.86407559  0.63986635  1
  O  O390  1  0.87432184  0.36736880  0.14211960  1
  O  O391  1  0.86321199  0.35906441  0.62952353  1
  O  O392  1  0.87724641  0.87342645  0.12168733  1
  O  O393  1  0.95228030  0.83481834  0.61800923  1
  O  O394  1  0.11696495  0.13253319  0.38477582  1
  O  O395  1  0.13116512  0.11966458  0.89195165  1
  O  O396  1  0.17578655  0.65282584  0.35281200  1
  O  O397  1  0.12424649  0.63367530  0.88922904  1
  O  O398  1  0.63102131  0.13460551  0.38216970  1
  O  O399  1  0.64144459  0.11109212  0.86103216  1
  O  O400  1  0.63687995  0.63624265  0.37218455  1
  O  O401  1  0.63215554  0.63054598  0.85901670  1
