# generated using pymatgen
data_V73Zn73O256
_symmetry_space_group_name_H-M   'P 1'
_cell_length_a   16.83970411
_cell_length_b   16.86704962
_cell_length_c   16.88256440
_cell_angle_alpha   89.92375161
_cell_angle_beta   89.98445860
_cell_angle_gamma   90.16856788
_symmetry_Int_Tables_number   1
_chemical_formula_structural   V73Zn73O256
_chemical_formula_sum   'V73 Zn73 O256'
_cell_volume   4795.23298785
_cell_formula_units_Z   1
loop_
 _symmetry_equiv_pos_site_id
 _symmetry_equiv_pos_as_xyz
  1  'x, y, z'
loop_
 _atom_site_type_symbol
 _atom_site_label
 _atom_site_symmetry_multiplicity
 _atom_site_fract_x
 _atom_site_fract_y
 _atom_site_fract_z
 _atom_site_occupancy
  V  V0  1  0.48636668  -0.00373604  -0.00104973  1
  V  V1  1  0.87891936  -0.00964924  0.37812750  1
  V  V2  1  0.62613684  0.26163969  0.38070703  1
  V  V3  1  0.13198985  -0.00261239  0.62857088  1
  V  V4  1  0.86873227  0.62390551  0.73884792  1
  V  V5  1  0.87922992  0.24877599  0.63220566  1
  V  V6  1  0.38147549  0.62170761  0.21833252  1
  V  V7  1  0.37304136  0.85180237  0.00806800  1
  V  V8  1  -0.01870164  0.75661537  0.74859654  1
  V  V9  1  0.12502324  0.86651262  0.76210866  1
  V  V10  1  0.24749841  0.49888153  0.73637342  1
  V  V11  1  0.51997411  0.38327891  0.86929571  1
  V  V12  1  0.25628806  0.25806038  0.49311274  1
  V  V13  1  0.87809982  0.23849200  0.15872644  1
  V  V14  1  0.85960576  0.11664858  0.75582542  1
  V  V15  1  0.73729401  0.61932660  0.37051415  1
  V  V16  1  0.00902736  0.50223264  -0.00378269  1
  V  V17  1  0.49821184  0.48401801  0.48988147  1
  V  V18  1  0.00893536  0.12744773  0.09060535  1
  V  V19  1  0.24006386  -0.00400560  0.25193797  1
  V  V20  1  0.27371907  0.00705454  0.75697058  1
  V  V21  1  0.40234958  0.11264451  0.26402804  1
  V  V22  1  0.61395034  0.11656138  0.51115310  1
  V  V23  1  0.00827860  0.12488082  0.63668474  1
  V  V24  1  0.62211346  0.00152784  0.11879484  1
  V  V25  1  0.63662262  -0.01478539  0.63808639  1
  V  V26  1  0.87110927  0.59464246  0.25053329  1
  V  V27  1  0.75308090  0.24788817  0.50687844  1
  V  V28  1  0.87175565  0.86413356  0.51443116  1
  V  V29  1  0.22451132  0.74449623  -0.00598882  1
  V  V30  1  0.72650768  0.74795902  0.49884533  1
  V  V31  1  0.50076670  0.24262468  0.75134698  1
  V  V32  1  0.25014743  0.38498531  0.11117300  1
  V  V33  1  0.74431745  0.87348998  0.13245469  1
  V  V34  1  0.49385082  0.86928055  0.86336606  1
  V  V35  1  0.50876130  0.75216567  0.23268793  1
  V  V36  1  0.37464187  0.24880347  0.63397905  1
  V  V37  1  0.87722841  0.49094880  0.88094330  1
  V  V38  1  0.50375559  0.14742518  0.09896008  1
  V  V39  1  0.93037542  0.81274462  0.18870088  1
  V  V40  1  0.76064912  0.12352464  0.37781761  1
  V  V41  1  0.88601424  0.87615356  -0.00421651  1
  V  V42  1  0.50774474  0.26857879  0.25935515  1
  V  V43  1  0.37501630  0.49536259  0.87305690  1
  V  V44  1  0.74811610  0.00064714  0.25319376  1
  V  V45  1  0.75197329  0.75238737  0.00446054  1
  V  V46  1  0.24957636  0.17084679  0.92362393  1
  V  V47  1  0.12781791  0.12794871  0.49145258  1
  V  V48  1  0.48131186  -0.01287795  0.50205841  1
  V  V49  1  0.25587924  0.87045087  0.61570645  1
  V  V50  1  0.03699595  0.36525573  0.33958318  1
  V  V51  1  0.10624778  0.62820691  0.49793805  1
  V  V52  1  0.75290172  0.61916066  0.87308890  1
  V  V53  1  0.38202644  0.63679198  0.75028919  1
  V  V54  1  0.00451757  -0.00721436  0.49718573  1
  V  V55  1  0.62122097  0.75451099  0.86342898  1
  V  V56  1  0.90413834  -0.00314273  0.87403650  1
  V  V57  1  -0.00256046  0.62098837  0.12535181  1
  V  V58  1  0.62702096  0.48260902  0.13907237  1
  V  V59  1  0.25893068  0.62878628  0.38378431  1
  V  V60  1  0.22730845  0.63129809  0.86457184  1
  V  V61  1  0.37505629  0.75197921  0.60736685  1
  V  V62  1  0.22632721  0.50359191  0.24298647  1
  V  V63  1  0.26016230  0.12291475  0.36770772  1
  V  V64  1  0.88592089  0.38831862  0.49891486  1
  V  V65  1  0.13259511  -0.00273197  0.10925779  1
  V  V66  1  0.50752371  0.62897434  0.61692547  1
  V  V67  1  0.74541671  0.37991840  0.63948695  1
  V  V68  1  0.12172748  0.76015666  0.36383303  1
  V  V69  1  0.62010637  0.49090697  0.63459304  1
  V  V70  1  0.11716242  0.36912610  0.75103559  1
  V  V71  1  0.63140450  0.22883505  0.88378004  1
  V  V72  1  0.61792996  0.61652406  0.00568053  1
  Zn  Zn73  1  0.25210138  0.38096881  0.61272558  1
  Zn  Zn74  1  0.24729110  0.84624046  0.14680187  1
  Zn  Zn75  1  0.75903223  0.37013889  0.12226867  1
  Zn  Zn76  1  0.09186978  0.49616532  0.60198910  1
  Zn  Zn77  1  0.48393913  0.50009424  0.01293702  1
  Zn  Zn78  1  0.49696376  0.87061184  0.37687994  1
  Zn  Zn79  1  0.00806657  0.24783264  0.77342848  1
  Zn  Zn80  1  0.37001941  0.25713140  0.11024963  1
  Zn  Zn81  1  0.37051387  0.48173335  0.36705366  1
  Zn  Zn82  1  0.19162152  0.20802509  0.12067717  1
  Zn  Zn83  1  0.19567195  0.18850569  0.68732815  1
  Zn  Zn84  1  0.18482657  0.68095443  0.18988250  1
  Zn  Zn85  1  0.18316488  0.68762853  0.67756523  1
  Zn  Zn86  1  0.68298760  0.18501621  0.19237089  1
  Zn  Zn87  1  0.68261247  0.18576022  0.69448840  1
  Zn  Zn88  1  0.69050862  0.67773586  0.18593719  1
  Zn  Zn89  1  0.68943421  0.69134310  0.68380455  1
  Zn  Zn90  1  0.29645250  0.30633081  0.28450727  1
  Zn  Zn91  1  0.30628330  0.31289821  0.81313525  1
  Zn  Zn92  1  0.35449135  0.78119810  0.32657465  1
  Zn  Zn93  1  0.30916097  0.81670912  0.81089337  1
  Zn  Zn94  1  0.81469831  0.32203813  0.31321785  1
  Zn  Zn95  1  0.81031457  0.30957130  0.81805947  1
  Zn  Zn96  1  0.67985256  0.80823261  0.32071244  1
  Zn  Zn97  1  0.81297135  0.81495403  0.82046282  1
  Zn  Zn98  1  0.17720436  0.44262314  0.42603489  1
  Zn  Zn99  1  0.18347903  0.44338619  0.93004961  1
  Zn  Zn100  1  0.26297061  0.90157567  0.40580374  1
  Zn  Zn101  1  0.20025603  0.93849990  0.93293609  1
  Zn  Zn102  1  0.69098707  0.44385584  0.45028079  1
  Zn  Zn103  1  0.69569882  0.42958662  0.94838535  1
  Zn  Zn104  1  0.68717246  0.93328901  0.44464349  1
  Zn  Zn105  1  0.68331324  0.93386950  0.94200402  1
  Zn  Zn106  1  0.32023515  0.06893360  0.07106533  1
  Zn  Zn107  1  0.31392154  0.06909357  0.56840093  1
  Zn  Zn108  1  0.29401485  0.56177914  0.05072809  1
  Zn  Zn109  1  0.32280290  0.56280454  0.55472585  1
  Zn  Zn110  1  0.82363562  0.05969778  0.06856546  1
  Zn  Zn111  1  0.81358430  0.05669375  0.56773069  1
  Zn  Zn112  1  0.81200063  0.56165065  0.06614326  1
  Zn  Zn113  1  0.80347236  0.56735018  0.55339722  1
  Zn  Zn114  1  0.43365112  0.44128897  0.18290659  1
  Zn  Zn115  1  0.43278795  0.43134428  0.68710149  1
  Zn  Zn116  1  0.42995046  0.93268215  0.18602595  1
  Zn  Zn117  1  0.44757826  0.94050588  0.67680315  1
  Zn  Zn118  1  0.94608531  0.42717294  0.18157891  1
  Zn  Zn119  1  0.93148087  0.43774595  0.69142167  1
  Zn  Zn120  1  0.94447779  0.98357684  0.19235373  1
  Zn  Zn121  1  0.94184043  0.93623884  0.68687877  1
  Zn  Zn122  1  0.06981371  -0.07264716  0.32032428  1
  Zn  Zn123  1  0.09041896  0.06947273  0.82162494  1
  Zn  Zn124  1  0.05080983  0.56188052  0.32483622  1
  Zn  Zn125  1  0.04368990  0.55255579  0.78193049  1
  Zn  Zn126  1  0.58121719  0.03998347  0.33195761  1
  Zn  Zn127  1  0.55180969  0.06000689  0.81435573  1
  Zn  Zn128  1  0.55871191  0.56234932  0.30482687  1
  Zn  Zn129  1  0.56356558  0.56839819  0.81006255  1
  Zn  Zn130  1  0.42674684  0.31474449  0.42971924  1
  Zn  Zn131  1  0.43712652  0.19193973  0.92919639  1
  Zn  Zn132  1  0.45202208  0.67786409  0.42959400  1
  Zn  Zn133  1  0.43779765  0.68427380  0.93655558  1
  Zn  Zn134  1  0.94532786  0.19418291  0.43600152  1
  Zn  Zn135  1  0.92328760  0.18388699  0.93894441  1
  Zn  Zn136  1  0.93408762  0.69672757  0.41558476  1
  Zn  Zn137  1  0.94816416  0.69191926  0.93174034  1
  Zn  Zn138  1  0.05469278  0.31523747  0.05109276  1
  Zn  Zn139  1  0.06903315  0.31290001  0.56611832  1
  Zn  Zn140  1  0.06628081  0.81291157  0.06964295  1
  Zn  Zn141  1  0.06644127  0.80221725  0.56223224  1
  Zn  Zn142  1  0.55179713  0.31517716  0.05182373  1
  Zn  Zn143  1  0.56181305  0.30825107  0.56689166  1
  Zn  Zn144  1  0.56588223  0.80966542  0.05900499  1
  Zn  Zn145  1  0.56344260  0.81876569  0.56836501  1
  O  O146  1  0.11345348  0.12560401  0.11717789  1
  O  O147  1  0.12311744  0.11694077  0.62386559  1
  O  O148  1  0.09658097  0.63477357  0.13176319  1
  O  O149  1  0.12511816  0.62737076  0.60253755  1
  O  O150  1  0.60791152  0.11750831  0.12563145  1
  O  O151  1  0.62871324  0.12632968  0.61352261  1
  O  O152  1  0.63131935  0.61214874  0.10896040  1
  O  O153  1  0.61142049  0.61532956  0.63089716  1
  O  O154  1  0.36071885  0.36782706  0.35692199  1
  O  O155  1  0.36844077  0.39525778  0.87126095  1
  O  O156  1  0.36933794  0.87872948  0.37463997  1
  O  O157  1  0.38826890  0.86030077  0.88714152  1
  O  O158  1  0.86581024  0.37252889  0.40055077  1
  O  O159  1  0.87287681  0.39156893  0.86629128  1
  O  O160  1  0.87729017  0.89127045  0.39395367  1
  O  O161  1  0.88423759  0.88699619  0.88309156  1
  O  O162  1  0.24632473  0.01109899  0.36235114  1
  O  O163  1  0.26505683  -0.00879255  0.85687097  1
  O  O164  1  0.24614615  0.51234366  0.35668501  1
  O  O165  1  0.25875168  0.51729967  0.86241609  1
  O  O166  1  0.75832344  0.00430720  0.37379177  1
  O  O167  1  0.75107554  -0.03201679  0.84911007  1
  O  O168  1  0.74885410  0.51904628  0.38913150  1
  O  O169  1  0.75615705  0.51486076  0.87918751  1
  O  O170  1  0.23907041  0.49662692  0.12856138  1
  O  O171  1  0.25969574  0.50477551  0.63329556  1
  O  O172  1  0.23872129  1.01957524  0.13956083  1
  O  O173  1  0.24894463  0.98930856  0.63159506  1
  O  O174  1  0.73310922  0.49321473  0.11424935  1
  O  O175  1  0.73369072  0.48834994  0.61847351  1
  O  O176  1  0.74640862  0.99696761  0.13096227  1
  O  O177  1  0.73860686  1.00221640  0.63108533  1
  O  O178  1  0.02093158  0.36243968  0.23751939  1
  O  O179  1  0.01105861  0.36373971  0.74395182  1
  O  O180  1  -0.00917388  0.88322569  0.23976821  1
  O  O181  1  0.01471087  0.87042840  0.74770634  1
  O  O182  1  0.49744522  0.36602302  0.25200007  1
  O  O183  1  0.49058544  0.36512038  0.76475371  1
  O  O184  1  0.49047222  0.85656593  0.24400878  1
  O  O185  1  0.49222717  0.87602164  0.76532218  1
  O  O186  1  0.50141101  0.10455452  0.26864161  1
  O  O187  1  0.48310792  0.14519891  0.77102977  1
  O  O188  1  0.48750755  0.63299572  0.24600166  1
  O  O189  1  0.48734750  0.62075400  0.73471145  1
  O  O190  1  1.03463873  0.15695389  0.26465080  1
  O  O191  1  1.01285950  0.13000621  0.74663188  1
  O  O192  1  0.98216252  0.61372163  0.24087777  1
  O  O193  1  0.97422318  0.64304435  0.75469869  1
  O  O194  1  0.45411273  0.23519983  0.03634948  1
  O  O195  1  0.36105259  0.25390814  0.50615373  1
  O  O196  1  0.37329606  0.75031476  0.00495370  1
  O  O197  1  0.37836041  0.74317058  0.50994675  1
  O  O198  1  0.82045519  0.20797792  -0.00890547  1
  O  O199  1  0.87020234  0.25101920  0.51872382  1
  O  O200  1  0.86376488  0.76695920  -0.01492856  1
  O  O201  1  0.89012920  0.76635089  0.49873923  1
  O  O202  1  0.13680724  0.23354878  0.51127349  1
  O  O203  1  0.06688436  0.26433506  0.93778966  1
  O  O204  1  0.12630152  0.73823114  0.48644169  1
  O  O205  1  0.12660503  0.75883557  0.98682151  1
  O  O206  1  0.63117966  0.23984389  0.49786298  1
  O  O207  1  0.62021136  0.25032756  0.98240071  1
  O  O208  1  0.62617273  0.75396975  0.49535974  1
  O  O209  1  0.63231836  0.73805221  0.99257342  1
  O  O210  1  0.52858518  0.24409127  0.15722196  1
  O  O211  1  0.49078969  0.25674864  0.64174202  1
  O  O212  1  0.50329198  0.74697927  0.13154216  1
  O  O213  1  0.49226884  0.73652420  0.61997499  1
  O  O214  1  0.98857406  0.23311809  0.10549465  1
  O  O215  1  0.99162817  0.23786022  0.62621427  1
  O  O216  1  0.98933099  0.74774071  0.13050683  1
  O  O217  1  1.00836681  0.75323906  0.64806272  1
  O  O218  1  -0.00108508  0.27746916  0.38430038  1
  O  O219  1  -0.00245356  0.26215766  0.89514417  1
  O  O220  1  0.02051269  0.76001977  0.36773912  1
  O  O221  1  -0.00089892  0.75420556  0.85249667  1
  O  O222  1  0.51745770  0.25662041  0.37587524  1
  O  O223  1  0.50972740  0.26503559  0.86914551  1
  O  O224  1  0.47854278  0.75359834  0.35219549  1
  O  O225  1  0.51109612  0.75489065  0.87616478  1
  O  O226  1  0.24386184  0.12838707  0.49438314  1
  O  O227  1  0.26244288  0.16281508  1.03135738  1
  O  O228  1  0.25050970  0.61974339  0.48509795  1
  O  O229  1  0.23931526  0.63407923  0.97782209  1
  O  O230  1  0.75275300  0.13668675  0.50246273  1
  O  O231  1  0.77486434  0.14499988  0.99607012  1
  O  O232  1  0.75439874  0.64000577  0.48374152  1
  O  O233  1  0.74372231  0.63406467  0.98917748  1
  O  O234  1  0.25186013  0.40319272  0.01077660  1
  O  O235  1  0.23676905  0.35918676  0.49261939  1
  O  O236  1  0.26203093  0.85314302  -0.01478022  1
  O  O237  1  0.25315412  0.88007936  0.51838688  1
  O  O238  1  0.75886858  0.36381562  0.00922782  1
  O  O239  1  0.75717886  0.36197873  0.51605596  1
  O  O240  1  0.75814312  0.87119942  0.00993094  1
  O  O241  1  0.76279089  0.85915394  0.49629300  1
  O  O242  1  0.12912496  0.51816233  0.24547552  1
  O  O243  1  0.14416383  0.49979236  0.74579747  1
  O  O244  1  0.13546660  0.99562931  0.24454750  1
  O  O245  1  0.12992415  0.99030443  0.73940188  1
  O  O246  1  0.62376208  0.49448557  0.23830110  1
  O  O247  1  0.61809591  0.50054583  0.73418985  1
  O  O248  1  0.63833493  1.00302663  0.23602092  1
  O  O249  1  0.61141553  1.01058429  0.73360492  1
  O  O250  1  0.36524203  0.01604892  0.23858266  1
  O  O251  1  0.37263047  -0.00083467  0.73850264  1
  O  O252  1  0.37562231  0.51431323  0.25070617  1
  O  O253  1  0.36554336  0.51147785  0.75392084  1
  O  O254  1  0.86099230  0.00004016  0.26335988  1
  O  O255  1  0.88624623  0.00812234  0.76129090  1
  O  O256  1  0.87153760  0.49464090  0.24542442  1
  O  O257  1  0.87263392  0.51880836  0.76666702  1
  O  O258  1  0.13815127  0.36115728  0.35705379  1
  O  O259  1  0.12639383  0.38917025  0.84967838  1
  O  O260  1  0.14751572  0.86413043  0.38001310  1
  O  O261  1  0.13106218  0.88110769  0.86043000  1
  O  O262  1  0.64119471  0.35924342  0.38559544  1
  O  O263  1  0.62059072  0.38523075  0.86705916  1
  O  O264  1  0.61764346  0.89010317  0.36739824  1
  O  O265  1  0.61137330  0.86047091  0.88410481  1
  O  O266  1  0.40405359  0.12753235  0.14075550  1
  O  O267  1  0.37551009  0.14820114  0.62115466  1
  O  O268  1  0.37626559  0.61015606  0.11937762  1
  O  O269  1  0.38031031  0.63548179  0.63043607  1
  O  O270  1  0.90460948  0.11630890  0.13172918  1
  O  O271  1  0.88502015  0.12641619  0.64149780  1
  O  O272  1  0.87497364  0.62390386  0.14203379  1
  O  O273  1  0.85678308  0.61870249  0.64143367  1
  O  O274  1  0.27551202  0.26479182  0.17286676  1
  O  O275  1  0.25850326  0.25194813  0.61279851  1
  O  O276  1  0.23515493  0.74099350  0.10027016  1
  O  O277  1  0.26278267  0.75941082  0.62553019  1
  O  O278  1  0.77789825  0.21997618  0.13880484  1
  O  O279  1  0.75732976  0.25639234  0.62783680  1
  O  O280  1  0.74241977  0.75800190  0.11350103  1
  O  O281  1  0.74473377  0.73924993  0.60002022  1
  O  O282  1  0.25553014  0.23335792  0.38495853  1
  O  O283  1  0.24425085  0.26908326  0.89740438  1
  O  O284  1  0.25095656  0.73166387  0.36816153  1
  O  O285  1  0.25007586  0.73685238  0.87649138  1
  O  O286  1  0.74608935  0.24172071  0.38867560  1
  O  O287  1  0.72958716  0.24787160  0.86197131  1
  O  O288  1  0.74649902  0.74004310  0.38511400  1
  O  O289  1  0.73753848  0.74902099  0.88421236  1
  O  O290  1  0.00077896  0.11757955  -0.00774172  1
  O  O291  1  0.01247832  0.12075403  0.50934279  1
  O  O292  1  -0.01629639  0.62473281  0.01637133  1
  O  O293  1  0.00696804  0.62745687  0.48284461  1
  O  O294  1  0.49503343  0.10100131  -0.00731830  1
  O  O295  1  0.51547040  0.11157272  0.49999972  1
  O  O296  1  0.51464529  0.62091467  -0.00768105  1
  O  O297  1  0.49671586  0.61196238  0.51382200  1
  O  O298  1  0.50004903  0.37778555  0.49827045  1
  O  O299  1  0.50012469  0.38825103  0.97352106  1
  O  O300  1  0.49509128  0.88179148  0.50184977  1
  O  O301  1  0.48536463  0.87506247  0.99976599  1
  O  O302  1  0.98563900  0.37534717  0.51883483  1
  O  O303  1  0.99774351  0.40231235  1.00579710  1
  O  O304  1  0.99747810  0.88850328  0.51233037  1
  O  O305  1  0.98374920  0.87262850  1.01090544  1
  O  O306  1  0.50509305  0.50139911  0.38885479  1
  O  O307  1  0.48809951  0.49464459  0.86085807  1
  O  O308  1  0.50053833  0.99543033  0.39793802  1
  O  O309  1  0.50613759  0.97932015  0.89038120  1
  O  O310  1  1.01170475  0.46230859  0.36762864  1
  O  O311  1  0.98456855  0.51516304  0.88200952  1
  O  O312  1  0.99809248  0.99741621  0.38717145  1
  O  O313  1  1.00226893  1.00453413  0.87483963  1
  O  O314  1  0.02253285  0.01429823  0.12006787  1
  O  O315  1  0.00943629  0.01017612  0.62137179  1
  O  O316  1  -0.00759032  0.51237799  0.11116087  1
  O  O317  1  0.00905778  0.51459203  0.67373271  1
  O  O318  1  0.50491712  -0.00423856  0.11150316  1
  O  O319  1  0.51694433  -0.00416570  0.60692926  1
  O  O320  1  0.51736894  0.49277133  0.12049688  1
  O  O321  1  0.50445532  0.50294897  0.62016019  1
  O  O322  1  0.24020777  0.40032559  0.23337922  1
  O  O323  1  0.24741619  0.39148569  0.74638510  1
  O  O324  1  0.26218029  0.89670779  0.24844565  1
  O  O325  1  0.24466875  0.88419997  0.74109441  1
  O  O326  1  0.74487830  0.35336271  0.23369463  1
  O  O327  1  0.75496276  0.37575918  0.73757049  1
  O  O328  1  0.74742235  0.88253273  0.23832635  1
  O  O329  1  0.74687924  0.91235155  0.79286880  1
  O  O330  1  0.25418738  0.12336610  0.26519450  1
  O  O331  1  0.24955384  0.10547957  0.74233010  1
  O  O332  1  0.26276274  0.61418505  0.24376479  1
  O  O333  1  0.25825639  0.62166350  0.75130309  1
  O  O334  1  0.74402773  0.11416438  0.26859506  1
  O  O335  1  0.76191180  0.11983785  0.74972912  1
  O  O336  1  0.76056641  0.62383411  0.25803537  1
  O  O337  1  0.75492395  0.63569357  0.76485779  1
  O  O338  1  0.36742225  0.11739044  0.36731633  1
  O  O339  1  0.34275742  0.14148890  0.89120610  1
  O  O340  1  0.36379776  0.61794123  0.37263584  1
  O  O341  1  0.37757404  0.62307688  0.85673083  1
  O  O342  1  0.86736917  0.11584598  0.39085600  1
  O  O343  1  0.87714567  0.10879111  0.86375802  1
  O  O344  1  0.87157528  0.62430010  0.35393488  1
  O  O345  1  0.85863267  0.63008051  0.87367039  1
  O  O346  1  0.15739817  0.32356362  0.10087098  1
  O  O347  1  0.13212087  0.38522078  0.63331761  1
  O  O348  1  0.13690987  0.89079362  0.11980317  1
  O  O349  1  0.13992299  0.87942617  0.62928251  1
  O  O350  1  0.62545481  0.38060418  0.11550821  1
  O  O351  1  0.63412328  0.37794766  0.62869034  1
  O  O352  1  0.63595794  0.88453988  0.11810847  1
  O  O353  1  0.62908731  0.88345569  0.63397213  1
  O  O354  1  0.08844089  0.20576946  0.26197381  1
  O  O355  1  0.13253746  0.26509247  0.74651940  1
  O  O356  1  0.13719863  0.75418538  0.26229155  1
  O  O357  1  0.13298198  0.76494207  0.74816493  1
  O  O358  1  0.62061978  0.23991622  0.27507667  1
  O  O359  1  0.60739392  0.24466443  0.75807971  1
  O  O360  1  0.61440096  0.74452499  0.24507041  1
  O  O361  1  0.62972974  0.74956793  0.76425624  1
  O  O362  1  0.40697056  0.22887638  0.25998443  1
  O  O363  1  0.37499247  0.25480193  0.74125790  1
  O  O364  1  0.37287514  0.72780102  0.22874790  1
  O  O365  1  0.37236972  0.73858500  0.74340829  1
  O  O366  1  0.88479940  0.23867652  0.25799698  1
  O  O367  1  0.88040691  0.23342781  0.75103636  1
  O  O368  1  0.87554766  0.75931521  0.24703367  1
  O  O369  1  0.87275776  0.75094222  0.74724927  1
  O  O370  1  0.39168998  0.49504477  0.49457778  1
  O  O371  1  0.37444379  0.52009584  0.97504238  1
  O  O372  1  0.38179098  0.99873123  0.51130937  1
  O  O373  1  0.38222571  0.98965882  1.00550346  1
  O  O374  1  0.87136081  0.48607613  0.51578814  1
  O  O375  1  0.87541075  0.50624221  0.98447141  1
  O  O376  1  0.88687653  0.99605486  0.49972966  1
  O  O377  1  0.86970517  0.99002124  0.98362612  1
  O  O378  1  0.14625404  0.00218104  0.01064721  1
  O  O379  1  0.11989709  0.01144951  0.51490541  1
  O  O380  1  0.10837029  0.51347489  -0.01448954  1
  O  O381  1  0.12661422  0.51754208  0.49476526  1
  O  O382  1  0.61661196  -0.00397436  0.01110792  1
  O  O383  1  0.63307878  0.00932665  0.51397572  1
  O  O384  1  0.62573010  0.51445032  -0.01086738  1
  O  O385  1  0.60857708  0.49295388  0.51700061  1
  O  O386  1  0.35953083  0.37814450  0.11847486  1
  O  O387  1  0.36878552  0.36203636  0.62237129  1
  O  O388  1  0.35949946  0.87416673  0.10943951  1
  O  O389  1  0.37007450  0.85942446  0.63071401  1
  O  O390  1  0.88013682  0.34166999  0.13319723  1
  O  O391  1  0.86424082  0.36682710  0.62698435  1
  O  O392  1  0.86795962  0.87476647  0.11866908  1
  O  O393  1  0.87421595  0.88096216  0.61391866  1
  O  O394  1  0.13526991  0.12103940  0.39249832  1
  O  O395  1  0.16493390  0.12245472  0.88831151  1
  O  O396  1  0.13328756  0.63460207  0.37910691  1
  O  O397  1  0.13100117  0.62307476  0.85033196  1
  O  O398  1  0.64257790  0.12406397  0.39569817  1
  O  O399  1  0.62000858  0.12888457  0.87747981  1
  O  O400  1  0.63671968  0.62556222  0.36250033  1
  O  O401  1  0.63334662  0.63434654  0.87805225  1
