# generated using pymatgen
data_V73Zn73O256
_symmetry_space_group_name_H-M   'P 1'
_cell_length_a   16.83590189
_cell_length_b   16.90055352
_cell_length_c   16.89180246
_cell_angle_alpha   89.94348472
_cell_angle_beta   90.02368143
_cell_angle_gamma   90.07209458
_symmetry_Int_Tables_number   1
_chemical_formula_structural   V73Zn73O256
_chemical_formula_sum   'V73 Zn73 O256'
_cell_volume   4806.32038242
_cell_formula_units_Z   1
loop_
 _symmetry_equiv_pos_site_id
 _symmetry_equiv_pos_as_xyz
  1  'x, y, z'
loop_
 _atom_site_type_symbol
 _atom_site_label
 _atom_site_symmetry_multiplicity
 _atom_site_fract_x
 _atom_site_fract_y
 _atom_site_fract_z
 _atom_site_occupancy
  V  V0  1  -0.00014563  0.86985669  0.87534579  1
  V  V1  1  0.49315172  0.13051957  0.63140010  1
  V  V2  1  0.13384225  0.61307136  0.00193026  1
  V  V3  1  0.37567211  0.86195708  0.50538871  1
  V  V4  1  0.76361236  0.62102511  0.86361459  1
  V  V5  1  0.13185510  0.38212930  0.74977102  1
  V  V6  1  0.75398871  0.48238922  0.74979055  1
  V  V7  1  0.12531627  0.13505742  0.52577197  1
  V  V8  1  0.24695100  0.13341507  0.88195935  1
  V  V9  1  -0.01366730  0.60329281  0.62290373  1
  V  V10  1  0.48902452  0.00348270  0.50038891  1
  V  V11  1  0.37536964  0.27250877  0.63492670  1
  V  V12  1  0.75443321  0.85168160  0.61602164  1
  V  V13  1  0.50017108  0.87382466  0.36875703  1
  V  V14  1  0.12911289  0.38515326  0.23133263  1
  V  V15  1  0.00521384  0.61419065  0.11654949  1
  V  V16  1  0.75557471  0.25872779  0.51143132  1
  V  V17  1  -0.00296393  0.12199686  0.12351338  1
  V  V18  1  0.62946547  0.11999034  0.49211765  1
  V  V19  1  0.62452089  0.75363322  0.36547443  1
  V  V20  1  0.37679931  0.37433250  0.47144824  1
  V  V21  1  0.00024102  0.00247475  0.53229252  1
  V  V22  1  0.15114971  0.75463809  0.38088214  1
  V  V23  1  0.13538587  0.75071070  0.88287802  1
  V  V24  1  0.87731246  0.60510059  0.24786743  1
  V  V25  1  0.00630833  0.23957855  0.76533918  1
  V  V26  1  0.75034840  0.12036880  0.87205207  1
  V  V27  1  0.35627702  0.25072235  0.12203274  1
  V  V28  1  0.87842031  0.25727345  0.12283996  1
  V  V29  1  0.88600411  0.25294146  0.62956601  1
  V  V30  1  0.61504061  0.47812402  0.63668554  1
  V  V31  1  0.12852644  0.60870726  0.49849483  1
  V  V32  1  0.00436100  0.37654626  0.38450460  1
  V  V33  1  0.50338325  0.37106560  0.86822040  1
  V  V34  1  0.62578844  0.62986279  0.51301998  1
  V  V35  1  0.62468958  0.88011409  0.75974220  1
  V  V36  1  0.63510130  0.00141454  0.62987921  1
  V  V37  1  0.25615055  0.00517124  0.74618131  1
  V  V38  1  0.38443533  -0.00857914  0.89220715  1
  V  V39  1  0.75101910  0.62572677  0.37808913  1
  V  V40  1  0.25589728  0.86699971  0.62252346  1
  V  V41  1  0.87332697  0.87240829  -0.00033392  1
  V  V42  1  0.74387580  0.25229075  0.00041852  1
  V  V43  1  0.12654519  0.88063055  0.74403324  1
  V  V44  1  0.74426045  0.87595923  0.13530752  1
  V  V45  1  0.23746462  0.12057518  0.37793815  1
  V  V46  1  0.36364293  0.37752622  0.00892586  1
  V  V47  1  0.36786653  0.50463046  0.86806292  1
  V  V48  1  0.88035725  0.74829175  0.13592921  1
  V  V49  1  0.28465360  0.52737989  0.25110604  1
  V  V50  1  0.50709023  0.50475546  0.00655514  1
  V  V51  1  0.86818769  -0.00194318  0.87367486  1
  V  V52  1  0.87239152  0.48952490  0.39711221  1
  V  V53  1  0.49749975  0.73906867  0.73433658  1
  V  V54  1  0.63394660  0.50268663  0.13378844  1
  V  V55  1  0.50680610  0.48959655  0.48547528  1
  V  V56  1  0.62162088  0.25244491  0.86247835  1
  V  V57  1  0.61583525  0.74011207  0.87707773  1
  V  V58  1  0.49691053  0.25058992  0.26285024  1
  V  V59  1  0.50480907  0.13362314  0.12103933  1
  V  V60  1  0.60666762  -0.01001142  0.12885073  1
  V  V61  1  0.37197259  0.10806828  0.25772533  1
  V  V62  1  0.87521492  0.38471655  -0.01121682  1
  V  V63  1  0.00433156  0.24959577  0.25285714  1
  V  V64  1  0.00087111  0.39415596  0.87424480  1
  V  V65  1  0.12144949  0.88099919  0.25486542  1
  V  V66  1  -0.00967729  0.74824057  0.73728933  1
  V  V67  1  0.24707063  0.88059604  0.11834954  1
  V  V68  1  0.01153244  -0.00559230  0.00383977  1
  V  V69  1  0.74613692  0.74096076  -0.00232805  1
  V  V70  1  0.63516091  0.25391322  0.37807154  1
  V  V71  1  0.37049734  0.74905228  0.15273750  1
  V  V72  1  0.12708999  0.14166514  0.00106065  1
  Zn  Zn73  1  0.24986079  0.62067945  0.84928429  1
  Zn  Zn74  1  0.62943973  0.38377679  0.25270670  1
  Zn  Zn75  1  0.33795671  0.67662083  0.67719651  1
  Zn  Zn76  1  0.23797514  0.37785680  0.59983025  1
  Zn  Zn77  1  0.87921614  0.11312265  0.74305079  1
  Zn  Zn78  1  0.61459081  0.11210708  -0.00584820  1
  Zn  Zn79  1  0.19715493  0.53990286  0.67711446  1
  Zn  Zn80  1  0.38351666  0.13249663  0.76306274  1
  Zn  Zn81  1  0.49696823  0.63757576  0.12045501  1
  Zn  Zn82  1  0.18330051  0.18079492  0.19158947  1
  Zn  Zn83  1  0.19471845  0.20061845  0.69250962  1
  Zn  Zn84  1  0.18905601  0.69509628  0.19502260  1
  Zn  Zn85  1  0.16577975  0.70090630  0.67781584  1
  Zn  Zn86  1  0.70842007  0.22346097  0.20930430  1
  Zn  Zn87  1  0.68865914  0.18383745  0.68527873  1
  Zn  Zn88  1  0.68805424  0.68047855  0.18852331  1
  Zn  Zn89  1  0.68602003  0.68664131  0.69258464  1
  Zn  Zn90  1  0.29918150  0.29855023  0.31014239  1
  Zn  Zn91  1  0.31983749  0.31521949  0.81497227  1
  Zn  Zn92  1  0.30822543  0.82722946  0.31523766  1
  Zn  Zn93  1  0.31870860  0.81459067  0.81204394  1
  Zn  Zn94  1  0.81224211  0.31861145  0.31352317  1
  Zn  Zn95  1  0.81503643  0.30763334  0.81313877  1
  Zn  Zn96  1  0.81102566  0.81083712  0.31840083  1
  Zn  Zn97  1  0.80598400  0.81125409  0.80673177  1
  Zn  Zn98  1  0.19160175  0.43687107  0.41810672  1
  Zn  Zn99  1  0.18519120  0.43536136  0.93591573  1
  Zn  Zn100  1  0.18012816  0.94902859  0.43996321  1
  Zn  Zn101  1  0.19957146  0.93818815  0.93691255  1
  Zn  Zn102  1  0.68873971  0.43907502  0.44021248  1
  Zn  Zn103  1  0.68708607  0.43936505  0.93694420  1
  Zn  Zn104  1  0.69110016  0.93651306  0.43795636  1
  Zn  Zn105  1  0.68424373  0.93416884  0.94665836  1
  Zn  Zn106  1  0.31162898  0.05994685  0.06687321  1
  Zn  Zn107  1  0.30671068  0.06548615  0.56161256  1
  Zn  Zn108  1  0.31200727  0.56274029  0.07489498  1
  Zn  Zn109  1  0.31099225  0.55920807  0.53028953  1
  Zn  Zn110  1  0.78268824  0.08849654  0.10355389  1
  Zn  Zn111  1  0.81657058  0.06937622  0.55930019  1
  Zn  Zn112  1  0.81159463  0.56392244  0.05827017  1
  Zn  Zn113  1  0.80229927  0.55836369  0.57272357  1
  Zn  Zn114  1  0.44058845  0.43332671  0.19173328  1
  Zn  Zn115  1  0.39793029  0.50044003  0.65464531  1
  Zn  Zn116  1  0.43117533  0.92934179  0.18304143  1
  Zn  Zn117  1  0.44308587  0.93659274  0.69293909  1
  Zn  Zn118  1  0.94348123  0.43325420  0.18188171  1
  Zn  Zn119  1  0.93310423  0.42863896  0.69054727  1
  Zn  Zn120  1  0.95095120  0.92673750  0.18469584  1
  Zn  Zn121  1  0.93144228  0.93273879  0.68575452  1
  Zn  Zn122  1  0.06590236  0.06926843  0.31172279  1
  Zn  Zn123  1  0.06564136  0.05817530  0.81689051  1
  Zn  Zn124  1  0.06602813  0.55969581  0.31015382  1
  Zn  Zn125  1  0.05906959  0.56799200  0.80990516  1
  Zn  Zn126  1  0.72116346  0.05072332  0.28636272  1
  Zn  Zn127  1  0.56368337  0.06310194  0.81606972  1
  Zn  Zn128  1  0.56629230  0.56575768  0.31373154  1
  Zn  Zn129  1  0.55980792  0.55896420  0.81328481  1
  Zn  Zn130  1  0.40248771  0.19851545  0.42957753  1
  Zn  Zn131  1  0.43181747  0.18948518  0.93990752  1
  Zn  Zn132  1  0.45082841  0.69091702  0.45983304  1
  Zn  Zn133  1  0.43711457  0.68285152  0.93068401  1
  Zn  Zn134  1  0.94847233  0.18964248  0.44865541  1
  Zn  Zn135  1  0.93493667  0.18554847  0.94030813  1
  Zn  Zn136  1  0.97456073  0.65925646  0.41666900  1
  Zn  Zn137  1  0.93868638  0.68645568  0.93796897  1
  Zn  Zn138  1  0.05957984  0.31824785  0.05611845  1
  Zn  Zn139  1  0.06425986  0.31176092  0.56878461  1
  Zn  Zn140  1  0.06791861  0.80680492  0.06808789  1
  Zn  Zn141  1  0.06145910  0.81737352  0.55156373  1
  Zn  Zn142  1  0.56022962  0.32251682  0.06322653  1
  Zn  Zn143  1  0.55724432  0.31018017  0.56257228  1
  Zn  Zn144  1  0.55955524  0.80382178  0.06658427  1
  Zn  Zn145  1  0.56953613  0.81553326  0.56460202  1
  O  O146  1  0.11452787  0.12831565  0.11073018  1
  O  O147  1  0.13760180  0.12710319  0.62511026  1
  O  O148  1  0.11236268  0.63542581  0.11524474  1
  O  O149  1  0.12036746  0.61683751  0.61215993  1
  O  O150  1  0.60796161  0.11276938  0.12276939  1
  O  O151  1  0.61232966  0.12125396  0.62043535  1
  O  O152  1  0.60897587  0.61424622  0.13784972  1
  O  O153  1  0.63091327  0.62001329  0.61360483  1
  O  O154  1  0.38048125  0.36157656  0.37421958  1
  O  O155  1  0.38320501  0.37994018  0.88925779  1
  O  O156  1  0.38702416  0.87070031  0.39536873  1
  O  O157  1  0.36974665  0.89288628  0.87236766  1
  O  O158  1  0.88054840  0.38451510  0.37335621  1
  O  O159  1  0.88578782  0.37312333  0.88069756  1
  O  O160  1  0.85826445  0.93468498  0.33056089  1
  O  O161  1  0.87975230  0.87435273  0.88120534  1
  O  O162  1  0.25041554  0.01889352  0.37810884  1
  O  O163  1  0.26000451  0.00809016  0.86787070  1
  O  O164  1  0.25293001  0.49155771  0.34310080  1
  O  O165  1  0.26330387  0.49829725  0.87549276  1
  O  O166  1  0.75535506  0.00307187  0.37780000  1
  O  O167  1  0.75749788  0.00719477  0.88917238  1
  O  O168  1  0.76438492  0.50549374  0.37720429  1
  O  O169  1  0.73827550  0.51435995  0.86471991  1
  O  O170  1  0.26032551  0.49791984  0.15331831  1
  O  O171  1  0.27554649  0.48514804  0.61887695  1
  O  O172  1  0.25139096  0.98197999  0.12414739  1
  O  O173  1  0.25311151  0.99668900  0.64218277  1
  O  O174  1  0.73321987  0.51389907  0.12302114  1
  O  O175  1  0.73336121  0.49763714  0.64096389  1
  O  O176  1  0.75993767  0.97527820  0.11990160  1
  O  O177  1  0.73561999  1.00989581  0.62540746  1
  O  O178  1  0.00591524  0.36455864  0.25007952  1
  O  O179  1  0.00526141  0.36745936  0.76224342  1
  O  O180  1  0.01846713  0.86202331  0.24559668  1
  O  O181  1  0.00677773  0.86974536  0.75881491  1
  O  O182  1  0.50816648  0.35253720  0.24431011  1
  O  O183  1  0.49587143  0.37571386  0.77308128  1
  O  O184  1  0.49273713  0.88311910  0.27141248  1
  O  O185  1  0.51694626  0.86219633  0.74406432  1
  O  O186  1  0.48139138  0.13522695  0.23339071  1
  O  O187  1  0.49904626  0.11721437  0.73472019  1
  O  O188  1  0.46799005  0.63569038  0.30131514  1
  O  O189  1  0.50532759  0.63943292  0.75155469  1
  O  O190  1  1.00503693  0.13958703  0.23624294  1
  O  O191  1  1.00139446  0.13520863  0.76173464  1
  O  O192  1  0.98395977  0.62024315  0.23830366  1
  O  O193  1  1.00947518  0.63986414  0.73332909  1
  O  O194  1  0.37621152  0.26261876  0.01306543  1
  O  O195  1  0.38808454  0.27319646  0.51618920  1
  O  O196  1  0.40602347  0.78605905  -0.01132459  1
  O  O197  1  0.37901235  0.76261236  0.51108710  1
  O  O198  1  0.86900115  0.25934674  0.00154355  1
  O  O199  1  0.86371216  0.24038672  0.51172070  1
  O  O200  1  0.86804078  0.75592236  0.00607798  1
  O  O201  1  0.88459831  0.79794476  0.41461833  1
  O  O202  1  0.12394497  0.23628471  0.50744228  1
  O  O203  1  0.12143652  0.23981570  0.99573188  1
  O  O204  1  0.11743382  0.74620806  0.48374296  1
  O  O205  1  0.12042227  0.74317673  0.98508300  1
  O  O206  1  0.62580334  0.24087687  0.49313205  1
  O  O207  1  0.63860830  0.25600322  0.99972287  1
  O  O208  1  0.61821059  0.73266272  0.49621996  1
  O  O209  1  0.63157375  0.75848687  0.98599509  1
  O  O210  1  0.50674183  0.24063605  0.13191567  1
  O  O211  1  0.49400459  0.23603731  0.62435429  1
  O  O212  1  0.48274943  0.75510628  0.13083132  1
  O  O213  1  0.50866738  0.74629115  0.63463473  1
  O  O214  1  0.99339369  0.24447658  0.12563671  1
  O  O215  1  0.99041683  0.25047461  0.63803808  1
  O  O216  1  0.98313625  0.74094245  0.12014473  1
  O  O217  1  1.00398101  0.76095298  0.63736090  1
  O  O218  1  -0.01592207  0.25935735  0.35829491  1
  O  O219  1  -0.00403346  0.25477559  0.86670324  1
  O  O220  1  -0.04410878  0.77481227  0.39478237  1
  O  O221  1  0.00702909  0.75729560  0.86882638  1
  O  O222  1  0.49496144  0.24246619  0.36532406  1
  O  O223  1  0.50714452  0.26017469  0.88559501  1
  O  O224  1  0.51123160  0.76360287  0.38676883  1
  O  O225  1  0.51337110  0.74694870  0.86950135  1
  O  O226  1  0.23413279  0.11862559  0.49312363  1
  O  O227  1  0.23652391  0.12081807  0.99465808  1
  O  O228  1  0.22851750  0.62608287  0.49134164  1
  O  O229  1  0.23454766  0.62144034  1.00549833  1
  O  O230  1  0.73270052  0.13479258  0.50620513  1
  O  O231  1  0.74718719  0.13967645  0.99558964  1
  O  O232  1  0.73798989  0.61593593  0.48988004  1
  O  O233  1  0.75302743  0.63570120  0.98834443  1
  O  O234  1  0.26400312  0.37902758  -0.00178247  1
  O  O235  1  0.27097504  0.38296479  0.48666633  1
  O  O236  1  0.23538165  0.86769532  0.01703483  1
  O  O237  1  0.26178966  0.88602632  0.51480516  1
  O  O238  1  0.76305811  0.36266767  -0.01464435  1
  O  O239  1  0.74836667  0.35680225  0.49482809  1
  O  O240  1  0.75877186  0.86063506  0.00512794  1
  O  O241  1  0.73853141  0.87080272  0.51705982  1
  O  O242  1  0.11870190  0.48641490  0.24500896  1
  O  O243  1  0.12476345  0.48877238  0.75342831  1
  O  O244  1  0.11613235  0.98241023  0.26242789  1
  O  O245  1  0.13950665  0.98716778  0.76315737  1
  O  O246  1  0.61930530  0.49918877  0.24130290  1
  O  O247  1  0.62586749  0.49955893  0.74073141  1
  O  O248  1  0.63491628  0.99841670  0.22425944  1
  O  O249  1  0.61930912  0.98670899  0.74693650  1
  O  O250  1  0.37126918  0.01266379  0.23386884  1
  O  O251  1  0.36482522  0.00551923  0.75574657  1
  O  O252  1  0.38800737  0.51033802  0.25221283  1
  O  O253  1  0.38419328  0.49598054  0.77047506  1
  O  O254  1  0.87072395  -0.02925634  0.26489106  1
  O  O255  1  0.88023519  -0.00326505  0.76994860  1
  O  O256  1  0.87041347  0.50519286  0.24160609  1
  O  O257  1  0.85400993  0.49299803  0.74530949  1
  O  O258  1  0.10577227  0.37727964  0.36199077  1
  O  O259  1  0.10903842  0.37919145  0.86886263  1
  O  O260  1  0.13644185  0.86351450  0.37129077  1
  O  O261  1  0.11985047  0.86527789  0.87121623  1
  O  O262  1  0.62673037  0.35620428  0.37716807  1
  O  O263  1  0.61225895  0.36694782  0.88382307  1
  O  O264  1  0.61649776  0.86209902  0.38219659  1
  O  O265  1  0.63317806  0.86711845  0.86465614  1
  O  O266  1  0.37767670  0.13928229  0.12444060  1
  O  O267  1  0.38604105  0.12946648  0.62195686  1
  O  O268  1  0.37873489  0.64569126  0.11845643  1
  O  O269  1  0.38416101  0.60732496  0.60499349  1
  O  O270  1  0.88918450  0.14260153  0.10868517  1
  O  O271  1  0.85909077  0.14481279  0.63574919  1
  O  O272  1  0.87747756  0.63110028  0.13105782  1
  O  O273  1  0.88672531  0.61862707  0.62165544  1
  O  O274  1  0.25807605  0.24584688  0.12579225  1
  O  O275  1  0.26899414  0.26423481  0.62778958  1
  O  O276  1  0.26399300  0.75486856  0.12911417  1
  O  O277  1  0.25617300  0.76566123  0.63163626  1
  O  O278  1  0.76655528  0.25035283  0.10637499  1
  O  O279  1  0.74657528  0.25348435  0.61442300  1
  O  O280  1  0.75574617  0.75129527  0.11675017  1
  O  O281  1  0.74860791  0.75106597  0.62304772  1
  O  O282  1  0.28868110  0.21769429  0.38891246  1
  O  O283  1  0.25627932  0.23157471  0.87191538  1
  O  O284  1  0.25041018  0.75011835  0.38442589  1
  O  O285  1  0.23735865  0.74901904  0.86752957  1
  O  O286  1  0.73888709  0.24165582  0.38638568  1
  O  O287  1  0.74378460  0.24179523  0.88376094  1
  O  O288  1  0.73589455  0.74195762  0.37786393  1
  O  O289  1  0.74351125  0.73969471  0.87809765  1
  O  O290  1  0.01193017  0.11614220  0.00064046  1
  O  O291  1  0.01491929  0.12371211  0.51178817  1
  O  O292  1  0.00491712  0.62795758  0.01071545  1
  O  O293  1  0.00692169  0.62557229  0.51976232  1
  O  O294  1  0.49615357  0.13103646  0.01614779  1
  O  O295  1  0.50521806  0.11335318  0.50991664  1
  O  O296  1  0.49477868  0.60816124  -0.00309273  1
  O  O297  1  0.51868322  0.60612035  0.49368288  1
  O  O298  1  0.49491662  0.38279620  0.49852820  1
  O  O299  1  0.48899604  0.38719287  0.99772646  1
  O  O300  1  0.48755010  0.88357808  0.51222074  1
  O  O301  1  0.46122189  0.83886432  0.99188177  1
  O  O302  1  1.00389433  0.36240998  0.48297178  1
  O  O303  1  0.99049474  0.37364877  0.98291583  1
  O  O304  1  1.01000042  0.90387760  0.50383860  1
  O  O305  1  0.99549867  0.87349598  0.99522645  1
  O  O306  1  0.52350220  0.48831010  0.38742428  1
  O  O307  1  0.49422048  0.49097693  0.88711283  1
  O  O308  1  0.50937626  0.98027236  0.40025753  1
  O  O309  1  0.48396978  1.00912405  0.87473815  1
  O  O310  1  0.98389496  0.48686202  0.37152256  1
  O  O311  1  0.99342578  0.49315449  0.86752742  1
  O  O312  1  0.96342857  1.04421467  0.37013764  1
  O  O313  1  0.99492377  0.98529062  0.88293538  1
  O  O314  1  -0.01149833  0.00925418  0.11476003  1
  O  O315  1  0.00596641  0.00082114  0.63444247  1
  O  O316  1  -0.00411091  0.51533389  0.12045946  1
  O  O317  1  -0.00291157  0.50443518  0.63327100  1
  O  O318  1  0.50295672  0.00290912  0.12810921  1
  O  O319  1  0.50826186  0.00649961  0.61829561  1
  O  O320  1  0.50003498  0.50297668  0.11347875  1
  O  O321  1  0.51364181  0.49598900  0.61606017  1
  O  O322  1  0.22644958  0.35932368  0.25162327  1
  O  O323  1  0.23059212  0.36736513  0.76388784  1
  O  O324  1  0.23508708  0.87236135  0.24191038  1
  O  O325  1  0.24805230  0.88520628  0.74255599  1
  O  O326  1  0.72906027  0.33066915  0.24258414  1
  O  O327  1  0.74320991  0.38401683  0.76681228  1
  O  O328  1  0.74852933  0.86145568  0.23375398  1
  O  O329  1  0.73136498  0.86551125  0.73833795  1
  O  O330  1  0.26260656  0.13205513  0.26005363  1
  O  O331  1  0.24556983  0.11536753  0.76264989  1
  O  O332  1  0.25852433  0.62608909  0.25360925  1
  O  O333  1  0.24315065  0.63192605  0.73448850  1
  O  O334  1  0.75461920  0.12274313  0.21035852  1
  O  O335  1  0.75076731  0.12789252  0.76923445  1
  O  O336  1  0.76684635  0.62976796  0.26425877  1
  O  O337  1  0.75138846  0.62273942  0.76122045  1
  O  O338  1  0.38748129  0.10670779  0.35832131  1
  O  O339  1  0.36226142  0.11758415  0.87978849  1
  O  O340  1  0.41369583  0.63247515  0.35446512  1
  O  O341  1  0.36622155  0.61097911  0.88129741  1
  O  O342  1  0.91040887  0.09947333  0.37034662  1
  O  O343  1  0.86752849  0.11323142  0.87960525  1
  O  O344  1  0.87831501  0.60847936  0.36575999  1
  O  O345  1  0.86353925  0.62631521  0.87599340  1
  O  O346  1  0.11799013  0.37583985  0.13092821  1
  O  O347  1  0.12721507  0.37406114  0.64186386  1
  O  O348  1  0.13437866  0.86149214  0.14092387  1
  O  O349  1  0.14070308  0.87005469  0.63536087  1
  O  O350  1  0.62022967  0.39688553  0.12675792  1
  O  O351  1  0.62125210  0.37874456  0.62853534  1
  O  O352  1  0.63266136  0.87895509  0.11750190  1
  O  O353  1  0.63430413  0.88368768  0.63305322  1
  O  O354  1  0.10772998  0.25693844  0.24233105  1
  O  O355  1  0.11078657  0.25980897  0.75002718  1
  O  O356  1  0.12471762  0.74943179  0.27692898  1
  O  O357  1  0.11391364  0.76286539  0.76172682  1
  O  O358  1  0.60798939  0.22954685  0.27256084  1
  O  O359  1  0.62808483  0.24667715  0.76381831  1
  O  O360  1  0.62089327  0.74179679  0.26666525  1
  O  O361  1  0.61739462  0.75605019  0.76058065  1
  O  O362  1  0.38309809  0.24905889  0.23475916  1
  O  O363  1  0.37705695  0.24707581  0.74022970  1
  O  O364  1  0.37415680  0.75501456  0.25195661  1
  O  O365  1  0.39061446  0.75150063  0.74966582  1
  O  O366  1  0.88501485  0.26055827  0.22904187  1
  O  O367  1  0.88776805  0.24697275  0.74653468  1
  O  O368  1  0.87187019  0.74414138  0.23770385  1
  O  O369  1  0.89208692  0.75475042  0.75521582  1
  O  O370  1  0.39491107  0.48642830  0.48701181  1
  O  O371  1  0.38052281  0.48980859  0.99893227  1
  O  O372  1  0.38653265  0.99786625  0.50615683  1
  O  O373  1  0.37256729  0.99998467  0.99212364  1
  O  O374  1  0.87114658  0.49615217  0.49518128  1
  O  O375  1  0.86660821  0.48314476  1.00128041  1
  O  O376  1  0.89948990  1.01537545  0.51035033  1
  O  O377  1  0.88691305  0.98122465  0.99051044  1
  O  O378  1  0.11314123  -0.00302709  -0.00446832  1
  O  O379  1  0.10948880  0.02096225  0.49381511  1
  O  O380  1  0.12135155  0.51460836  -0.00741554  1
  O  O381  1  0.12507110  0.50928332  0.48448602  1
  O  O382  1  0.63158007  0.00084173  0.02075757  1
  O  O383  1  0.61908641  0.00980355  0.51016641  1
  O  O384  1  0.61304511  0.49798148  0.00800421  1
  O  O385  1  0.62233239  0.50036660  0.51317945  1
  O  O386  1  0.37781422  0.36298228  0.11795157  1
  O  O387  1  0.38889094  0.37078138  0.63638184  1
  O  O388  1  0.36052061  0.86085559  0.12893734  1
  O  O389  1  0.36516441  0.88176722  0.62080265  1
  O  O390  1  0.88824613  0.36382330  0.10454980  1
  O  O391  1  0.87061900  0.35331046  0.62982217  1
  O  O392  1  0.86910052  0.86067544  0.12029435  1
  O  O393  1  0.85177839  0.87681789  0.63273848  1
  O  O394  1  0.13718804  0.13885505  0.36685731  1
  O  O395  1  0.13561974  0.11917553  0.88898247  1
  O  O396  1  0.09251901  0.63958238  0.38824718  1
  O  O397  1  0.12616302  0.63505408  0.88236718  1
  O  O398  1  0.62013995  0.12893003  0.39282275  1
  O  O399  1  0.62981693  0.13313802  0.88043149  1
  O  O400  1  0.63425520  0.63263441  0.38107722  1
  O  O401  1  0.63210380  0.63815556  0.87280380  1
