# generated using pymatgen
data_V73Zn73O256
_symmetry_space_group_name_H-M   'P 1'
_cell_length_a   16.80411932
_cell_length_b   16.81526483
_cell_length_c   16.80501736
_cell_angle_alpha   89.87634556
_cell_angle_beta   90.05249319
_cell_angle_gamma   90.01185779
_symmetry_Int_Tables_number   1
_chemical_formula_structural   V73Zn73O256
_chemical_formula_sum   'V73 Zn73 O256'
_cell_volume   4748.50862145
_cell_formula_units_Z   1
loop_
 _symmetry_equiv_pos_site_id
 _symmetry_equiv_pos_as_xyz
  1  'x, y, z'
loop_
 _atom_site_type_symbol
 _atom_site_label
 _atom_site_symmetry_multiplicity
 _atom_site_fract_x
 _atom_site_fract_y
 _atom_site_fract_z
 _atom_site_occupancy
  V  V0  1  0.74986127  0.62894107  0.87281508  1
  V  V1  1  0.87383459  0.51958261  0.36051163  1
  V  V2  1  0.71775576  0.64579114  0.37292194  1
  V  V3  1  0.87036380  0.50086595  0.88102753  1
  V  V4  1  0.51621687  0.49555799  0.50218533  1
  V  V5  1  0.49715794  0.39254166  0.87255669  1
  V  V6  1  0.36933248  0.25155958  0.61477996  1
  V  V7  1  0.86790978  0.26025239  0.61449308  1
  V  V8  1  0.51187764  0.75183713  0.74708754  1
  V  V9  1  0.50893409  0.61893812  0.62098844  1
  V  V10  1  0.50860254  0.36507990  0.37397732  1
  V  V11  1  0.50384044  0.01159630  0.50743371  1
  V  V12  1  0.25485268  0.73942875  0.49873103  1
  V  V13  1  0.25002127  0.49262617  0.76534212  1
  V  V14  1  0.73117900  0.25776741  0.49254317  1
  V  V15  1  0.89048938  0.75476108  0.61656977  1
  V  V16  1  0.73944133  0.50343092  0.23883804  1
  V  V17  1  0.12574805  0.64524754  -0.00508579  1
  V  V18  1  0.87919433  0.74397165  0.13463254  1
  V  V19  1  0.62701852  0.60968487  0.00404015  1
  V  V20  1  0.49931685  0.59905198  0.11710425  1
  V  V21  1  0.13245618  0.23643950  0.88048946  1
  V  V22  1  0.01004914  0.38087956  0.86073016  1
  V  V23  1  0.23789066  0.13615325  0.38604410  1
  V  V24  1  0.75241124  0.75813368  -0.00569964  1
  V  V25  1  0.24429974  0.37642314  0.60798939  1
  V  V26  1  -0.01950546  0.88560128  0.88375332  1
  V  V27  1  0.62511918  0.12424846  -0.00267570  1
  V  V28  1  0.51486465  0.86326424  0.88167927  1
  V  V29  1  0.11341970  0.62864250  0.50841399  1
  V  V30  1  -0.00858931  0.14947505  0.12560531  1
  V  V31  1  -0.00671223  0.23313168  0.75023756  1
  V  V32  1  0.11843326  0.74541994  0.36677147  1
  V  V33  1  0.72853191  0.11310140  0.37748593  1
  V  V34  1  0.24527292  0.50056089  0.24321038  1
  V  V35  1  -0.00627657  0.49820214  0.50202180  1
  V  V36  1  0.26003487  0.64202042  0.88746122  1
  V  V37  1  0.62628381  0.36520355  0.23708150  1
  V  V38  1  0.12344064  0.36320709  0.25063676  1
  V  V39  1  0.12663855  0.86419247  0.76310623  1
  V  V40  1  0.49576651  0.23741323  0.75543794  1
  V  V41  1  0.87631309  0.89627506  0.49641779  1
  V  V42  1  -0.00244134  0.11792328  0.60443668  1
  V  V43  1  0.63293746  0.38688965  0.74001830  1
  V  V44  1  0.74288841  0.87328047  0.62448956  1
  V  V45  1  0.26988643  0.87112910  0.11505449  1
  V  V46  1  0.24606703  0.36267746  0.11723170  1
  V  V47  1  0.00991907  0.49701113  0.00423630  1
  V  V48  1  0.25035846  0.86606144  0.63083798  1
  V  V49  1  0.37154341  0.62920816  0.74092531  1
  V  V50  1  0.37877073  0.86564425  0.51074378  1
  V  V51  1  -0.00460105  0.89029493  0.37147506  1
  V  V52  1  0.76633253  0.25809656  0.00772614  1
  V  V53  1  0.50065645  -0.00811593  -0.00040250  1
  V  V54  1  0.00559986  0.62844383  0.13541211  1
  V  V55  1  0.81957019  0.57963623  0.69977981  1
  V  V56  1  0.76467995  0.00548596  0.75024953  1
  V  V57  1  0.11675122  0.01048841  0.10783279  1
  V  V58  1  0.62052180  0.01747405  0.63247369  1
  V  V59  1  -0.01132491  0.37018030  0.36934639  1
  V  V60  1  -0.00227338  0.74009472  0.75697903  1
  V  V61  1  0.12541163  0.88275848  0.24631451  1
  V  V62  1  0.63551574  -0.00127062  0.13012405  1
  V  V63  1  0.76434587  0.88375126  0.12912163  1
  V  V64  1  0.76838472  0.12466702  0.87200706  1
  V  V65  1  0.36948633  0.49573958  0.38043013  1
  V  V66  1  0.36760296  0.00310163  0.37956106  1
  V  V67  1  0.38605305  0.37781398  -0.00121072  1
  V  V68  1  0.37283612  0.62874650  0.24497573  1
  V  V69  1  0.38843133  0.23622290  0.13389908  1
  V  V70  1  0.87551253  0.12159171  0.26212980  1
  V  V71  1  0.50503427  0.86546284  0.37414861  1
  V  V72  1  0.24622437  0.00881607  0.75566089  1
  Zn  Zn73  1  0.49729485  0.74882790  0.24789889  1
  Zn  Zn74  1  0.25494915  0.00766683  0.24294578  1
  Zn  Zn75  1  0.37320796  -0.01209861  0.87965606  1
  Zn  Zn76  1  0.37104708  0.12225297  0.74388262  1
  Zn  Zn77  1  0.11587670  0.49696766  0.63950249  1
  Zn  Zn78  1  0.12697476  0.01154706  0.61148486  1
  Zn  Zn79  1  0.12206192  0.25151918  0.39760900  1
  Zn  Zn80  1  0.63556956  0.86759663  0.25956349  1
  Zn  Zn81  1  0.62752812  0.25181584  0.87377155  1
  Zn  Zn82  1  0.19361489  0.17981896  0.19596020  1
  Zn  Zn83  1  0.17568524  0.19883963  0.68366484  1
  Zn  Zn84  1  0.19059818  0.69336204  0.18019438  1
  Zn  Zn85  1  0.18526168  0.68495400  0.68957889  1
  Zn  Zn86  1  0.69723154  0.18486143  0.18990704  1
  Zn  Zn87  1  0.68785027  0.19597528  0.68964616  1
  Zn  Zn88  1  0.68276419  0.69042817  0.18812456  1
  Zn  Zn89  1  0.67888645  0.69659395  0.65706007  1
  Zn  Zn90  1  0.31688879  0.31018447  0.31358515  1
  Zn  Zn91  1  0.31415960  0.30881219  0.81623763  1
  Zn  Zn92  1  0.30998352  0.81548974  0.31535952  1
  Zn  Zn93  1  0.32528342  0.81260805  0.81911166  1
  Zn  Zn94  1  0.80413782  0.30616742  0.30675545  1
  Zn  Zn95  1  0.81600527  0.31269498  0.81620366  1
  Zn  Zn96  1  0.81569278  0.81274316  0.31322957  1
  Zn  Zn97  1  0.81047572  0.81173442  0.80308142  1
  Zn  Zn98  1  0.18237491  0.44171148  0.43290675  1
  Zn  Zn99  1  0.18828116  0.44143665  0.93966315  1
  Zn  Zn100  1  0.18696259  0.93290278  0.44126924  1
  Zn  Zn101  1  0.18787444  0.93259446  0.94051401  1
  Zn  Zn102  1  0.69352786  0.43850401  0.43111666  1
  Zn  Zn103  1  0.68623212  0.43444331  0.92956677  1
  Zn  Zn104  1  0.68547565  0.93652143  0.44493742  1
  Zn  Zn105  1  0.69174614  0.93720707  0.93217255  1
  Zn  Zn106  1  0.30728971  0.05741065  0.05771168  1
  Zn  Zn107  1  0.31061781  0.06059577  0.56514742  1
  Zn  Zn108  1  0.30984594  0.55778727  0.06271361  1
  Zn  Zn109  1  0.30844137  0.55790036  0.56630668  1
  Zn  Zn110  1  0.82557944  0.06973887  0.05939061  1
  Zn  Zn111  1  0.80995930  0.07658195  0.56307712  1
  Zn  Zn112  1  0.81846809  0.56511687  0.06075153  1
  Zn  Zn113  1  0.80559078  0.56571953  0.53737275  1
  Zn  Zn114  1  0.43183682  0.42686958  0.19388074  1
  Zn  Zn115  1  0.42854229  0.43713394  0.68884194  1
  Zn  Zn116  1  0.44513106  0.96522538  0.19310383  1
  Zn  Zn117  1  0.43658151  0.93659955  0.69320574  1
  Zn  Zn118  1  0.93443478  0.43550546  0.18472559  1
  Zn  Zn119  1  0.92957676  0.43747786  0.68703693  1
  Zn  Zn120  1  0.93692854  0.94370660  0.18918885  1
  Zn  Zn121  1  0.94289655  0.93733296  0.69134892  1
  Zn  Zn122  1  0.06193739  0.07155337  0.30944820  1
  Zn  Zn123  1  0.06527742  0.05807991  0.81362123  1
  Zn  Zn124  1  0.06649425  0.56058652  0.31753959  1
  Zn  Zn125  1  0.06918763  0.56755785  0.81935982  1
  Zn  Zn126  1  0.55414445  0.06385505  0.30673805  1
  Zn  Zn127  1  0.56996235  0.05635947  0.81722998  1
  Zn  Zn128  1  0.55718199  0.55718617  0.30874940  1
  Zn  Zn129  1  0.56698330  0.56721703  0.81006788  1
  Zn  Zn130  1  0.43353506  0.18773163  0.43711759  1
  Zn  Zn131  1  0.43869528  0.19474674  0.95130784  1
  Zn  Zn132  1  0.44067292  0.67835996  0.43405693  1
  Zn  Zn133  1  0.44470060  0.68585724  0.94041932  1
  Zn  Zn134  1  0.92926744  0.18789542  0.43626032  1
  Zn  Zn135  1  0.94854665  0.18734261  0.94236754  1
  Zn  Zn136  1  0.93739341  0.69525281  0.43400579  1
  Zn  Zn137  1  0.93457249  0.69144450  0.93906044  1
  Zn  Zn138  1  0.06240383  0.31535289  0.05932851  1
  Zn  Zn139  1  0.06006452  0.31562746  0.56806343  1
  Zn  Zn140  1  0.05913799  0.81932633  0.06335220  1
  Zn  Zn141  1  0.07161067  0.83754835  0.55470141  1
  Zn  Zn142  1  0.56411964  0.30885413  0.06422905  1
  Zn  Zn143  1  0.55509156  0.31145871  0.56801288  1
  Zn  Zn144  1  0.57751833  0.80205598  0.07925993  1
  Zn  Zn145  1  0.56427922  0.80293592  0.55929866  1
  O  O146  1  0.11481335  0.11463733  0.13594079  1
  O  O147  1  0.10460368  0.12542979  0.63143666  1
  O  O148  1  0.11431524  0.63391692  0.11273234  1
  O  O149  1  0.12447121  0.62122733  0.61129435  1
  O  O150  1  0.64175753  0.10817036  0.11159856  1
  O  O151  1  0.62449907  0.11647053  0.62717727  1
  O  O152  1  0.61058173  0.62268839  0.11549911  1
  O  O153  1  0.60504877  0.60344973  0.63904349  1
  O  O154  1  0.38934519  0.38992646  0.36478173  1
  O  O155  1  0.38424209  0.37014450  0.88857678  1
  O  O156  1  0.38083975  0.87794076  0.39297348  1
  O  O157  1  0.40215213  0.87543384  0.87244503  1
  O  O158  1  0.88685283  0.38437843  0.36330012  1
  O  O159  1  0.88596065  0.39594699  0.86664392  1
  O  O160  1  0.88269377  0.87529896  0.38204719  1
  O  O161  1  0.88085199  0.87580881  0.86693092  1
  O  O162  1  0.26056124  -0.00265379  0.38591335  1
  O  O163  1  0.25283515  -0.01296801  0.85891309  1
  O  O164  1  0.26229477  0.49362421  0.36192917  1
  O  O165  1  0.24798683  0.51256562  0.86941640  1
  O  O166  1  0.74443003  0.01241006  0.38417861  1
  O  O167  1  0.74871489  0.00861501  0.85890770  1
  O  O168  1  0.76250325  0.51197550  0.36829926  1
  O  O169  1  0.76439107  0.50706752  0.87656703  1
  O  O170  1  0.25389006  0.48429724  0.13824676  1
  O  O171  1  0.24959209  0.48781072  0.63617612  1
  O  O172  1  0.23562169  0.99420747  0.12660373  1
  O  O173  1  0.25042238  0.98601070  0.63804853  1
  O  O174  1  0.75695903  0.50940375  0.14014453  1
  O  O175  1  0.77147375  0.51720077  0.63710791  1
  O  O176  1  0.75205369  0.99027539  0.11653063  1
  O  O177  1  0.74049443  1.00130758  0.63070159  1
  O  O178  1  0.01463136  0.38754503  0.25779180  1
  O  O179  1  0.00407978  0.38452469  0.75899900  1
  O  O180  1  0.00929980  0.87617947  0.26021005  1
  O  O181  1  0.01377109  0.86948773  0.75644491  1
  O  O182  1  0.51339256  0.38273099  0.26269803  1
  O  O183  1  0.49666047  0.37185506  0.76301634  1
  O  O184  1  0.49272475  0.87855264  0.27087186  1
  O  O185  1  0.50149011  0.85618523  0.74903883  1
  O  O186  1  0.47827654  0.07191154  0.22820139  1
  O  O187  1  0.49801499  0.13377813  0.75977808  1
  O  O188  1  0.49212941  0.62448675  0.23220571  1
  O  O189  1  0.48760973  0.62383390  0.74481106  1
  O  O190  1  0.98962149  0.12330956  0.23969421  1
  O  O191  1  0.99070053  0.13302370  0.75599399  1
  O  O192  1  1.01185903  0.62002790  0.23393257  1
  O  O193  1  1.00615520  0.64018437  0.75323880  1
  O  O194  1  0.37454182  0.26622126  0.01476104  1
  O  O195  1  0.37970604  0.25402492  0.51564207  1
  O  O196  1  0.41932744  0.74764995  0.04031966  1
  O  O197  1  0.36168444  0.74762744  0.49220478  1
  O  O198  1  0.86592846  0.25123354  -0.00812811  1
  O  O199  1  0.87422765  0.25636773  0.51087149  1
  O  O200  1  0.85973195  0.74151616  0.01160983  1
  O  O201  1  0.87839416  0.75448871  0.51315874  1
  O  O202  1  0.12867145  0.25250905  0.50911369  1
  O  O203  1  0.11657151  0.25691505  0.97975658  1
  O  O204  1  0.12761327  0.74203898  0.49503256  1
  O  O205  1  0.12504090  0.74414900  1.00015997  1
  O  O206  1  0.63122289  0.24924818  0.50870182  1
  O  O207  1  0.62692037  0.23278302  0.99921086  1
  O  O208  1  0.64471850  0.72808480  0.55041774  1
  O  O209  1  0.64562085  0.73581901  1.00798518  1
  O  O210  1  0.48988694  0.24195594  0.12171298  1
  O  O211  1  0.48047555  0.25921971  0.64326020  1
  O  O212  1  0.47759921  0.73627428  0.09629379  1
  O  O213  1  0.49818848  0.73086243  0.63554131  1
  O  O214  1  1.00334901  0.24959818  0.13082211  1
  O  O215  1  0.99281982  0.24379238  0.63565741  1
  O  O216  1  0.99011358  0.74165551  0.11974826  1
  O  O217  1  0.99469295  0.76110548  0.62932133  1
  O  O218  1  -0.00197921  0.26852299  0.38048775  1
  O  O219  1  -0.00465119  0.26694630  0.86517468  1
  O  O220  1  0.01374672  0.76068329  0.37674426  1
  O  O221  1  -0.00908987  0.75918709  0.86083350  1
  O  O222  1  0.49378913  0.26619436  0.38149926  1
  O  O223  1  0.49843225  0.25373765  0.86578319  1
  O  O224  1  0.49584066  0.76102022  0.37437423  1
  O  O225  1  0.50471701  0.75394255  0.86593990  1
  O  O226  1  0.24728306  0.11443132  0.48674429  1
  O  O227  1  0.28888481  0.11510287  0.94997153  1
  O  O228  1  0.23898460  0.63458070  0.50200043  1
  O  O229  1  0.24024336  0.62270139  0.99696725  1
  O  O230  1  0.75137382  0.13627227  0.48555085  1
  O  O231  1  0.74641440  0.12998351  0.98738196  1
  O  O232  1  0.74723386  0.63018036  0.47038748  1
  O  O233  1  0.74477468  0.62933279  0.99364286  1
  O  O234  1  0.25128280  0.37722552  0.01375492  1
  O  O235  1  0.24877317  0.38368166  0.50821666  1
  O  O236  1  0.25971345  0.88181891  0.01363943  1
  O  O237  1  0.26047291  0.86196559  0.51171847  1
  O  O238  1  0.74157621  0.35491982  -0.01338464  1
  O  O239  1  0.74740241  0.35923027  0.49232219  1
  O  O240  1  0.75172071  0.86272434  0.00141789  1
  O  O241  1  0.76388197  0.88121142  0.51278424  1
  O  O242  1  0.14186043  0.49647010  0.25748801  1
  O  O243  1  0.14458430  0.51843016  0.74898734  1
  O  O244  1  0.12551091  0.98818986  0.24905525  1
  O  O245  1  0.13633344  0.98455086  0.74839751  1
  O  O246  1  0.63416611  0.49371323  0.24997827  1
  O  O247  1  0.62620837  0.48703527  0.75668642  1
  O  O248  1  0.62633126  0.99099035  0.23186858  1
  O  O249  1  0.62963604  1.00004440  0.73588821  1
  O  O250  1  0.36694381  -0.01452499  0.27865056  1
  O  O251  1  0.36411250  0.00515945  0.75302474  1
  O  O252  1  0.36592165  0.50531248  0.25524314  1
  O  O253  1  0.36098121  0.51558282  0.75151143  1
  O  O254  1  0.86953068  0.01722382  0.24031461  1
  O  O255  1  0.86333861  0.00712673  0.74109214  1
  O  O256  1  0.86614915  0.50111778  0.25705708  1
  O  O257  1  0.88249042  0.51766650  0.75848627  1
  O  O258  1  0.11861610  0.37416151  0.36378812  1
  O  O259  1  0.11171503  0.37720328  0.87598122  1
  O  O260  1  0.11513392  0.86929185  0.36560869  1
  O  O261  1  0.12358007  0.87059984  0.86555626  1
  O  O262  1  0.61264401  0.37917120  0.36978151  1
  O  O263  1  0.60762210  0.37193550  0.86939119  1
  O  O264  1  0.61080887  0.87871300  0.37696263  1
  O  O265  1  0.61480999  0.87821836  0.86607230  1
  O  O266  1  0.35899300  0.13911418  0.11753766  1
  O  O267  1  0.36026780  0.14446525  0.62762306  1
  O  O268  1  0.38651103  0.61379802  0.13248592  1
  O  O269  1  0.37440283  0.62546480  0.63722276  1
  O  O270  1  0.88487923  0.13205778  0.13339077  1
  O  O271  1  0.88935086  0.13976173  0.62169368  1
  O  O272  1  0.88942838  0.63454306  0.12373995  1
  O  O273  1  0.86850646  0.64199984  0.62732894  1
  O  O274  1  0.24927590  0.26073152  0.12990371  1
  O  O275  1  0.25479136  0.26646811  0.63442238  1
  O  O276  1  0.25634392  0.77034443  0.12987193  1
  O  O277  1  0.24459303  0.75296650  0.61134421  1
  O  O278  1  0.74983720  0.24241955  0.10655030  1
  O  O279  1  0.76122390  0.24054320  0.61284475  1
  O  O280  1  0.76146205  0.75756401  0.11819709  1
  O  O281  1  0.76976093  0.77177877  0.63970786  1
  O  O282  1  0.25465599  0.23945806  0.37997534  1
  O  O283  1  0.23133552  0.25057555  0.86446885  1
  O  O284  1  0.23406747  0.76075148  0.39183454  1
  O  O285  1  0.25623111  0.74185615  0.88218627  1
  O  O286  1  0.74710532  0.24108631  0.38686377  1
  O  O287  1  0.74905623  0.23529421  0.87716315  1
  O  O288  1  0.73516523  0.74553764  0.35667836  1
  O  O289  1  0.75781895  0.74371265  0.88420056  1
  O  O290  1  -0.00167873  0.12769276  0.02461418  1
  O  O291  1  0.00119205  0.12553929  0.50461903  1
  O  O292  1  0.01272202  0.62279256  -0.00179855  1
  O  O293  1  0.00710194  0.61922364  0.49683885  1
  O  O294  1  0.51627614  0.11002740  -0.00674984  1
  O  O295  1  0.49436302  0.10977989  0.50210927  1
  O  O296  1  0.51435994  0.61406684  0.00364292  1
  O  O297  1  0.49648030  0.61457666  0.51243535  1
  O  O298  1  0.50185684  0.38774540  0.49094441  1
  O  O299  1  0.49502533  0.37303646  0.98945809  1
  O  O300  1  0.49418343  0.86934124  0.49758885  1
  O  O301  1  0.51756833  0.87833807  0.99039092  1
  O  O302  1  1.00846078  0.39253360  0.48252016  1
  O  O303  1  1.00280838  0.39357276  0.99318325  1
  O  O304  1  0.98321730  0.87183811  0.48510135  1
  O  O305  1  0.99875933  0.86823605  0.98240178  1
  O  O306  1  0.49274764  0.49687617  0.38826406  1
  O  O307  1  0.49745417  0.49148954  0.87243479  1
  O  O308  1  0.49009280  0.98863189  0.39404740  1
  O  O309  1  0.50323369  0.98826073  0.88485861  1
  O  O310  1  0.98948834  0.49721102  0.37626248  1
  O  O311  1  0.99646479  0.49781388  0.88139599  1
  O  O312  1  1.00520908  0.98861678  0.37383337  1
  O  O313  1  1.00026809  0.98383939  0.86679251  1
  O  O314  1  0.01671817  -0.00788540  0.12189788  1
  O  O315  1  -0.00274036  0.01536085  0.62755069  1
  O  O316  1  -0.00708469  0.51558360  0.11106248  1
  O  O317  1  -0.00170689  0.49248764  0.60640972  1
  O  O318  1  0.52540166  -0.01656198  0.10653583  1
  O  O319  1  0.50886503  -0.00563693  0.62024868  1
  O  O320  1  0.49871874  0.50081387  0.12590019  1
  O  O321  1  0.48486862  0.50488334  0.60982248  1
  O  O322  1  0.24123804  0.38101428  0.24534560  1
  O  O323  1  0.25250217  0.39211768  0.76184348  1
  O  O324  1  0.23609108  0.87977551  0.24971154  1
  O  O325  1  0.24575463  0.86821869  0.74857267  1
  O  O326  1  0.73741689  0.39006657  0.25793632  1
  O  O327  1  0.73096999  0.36419779  0.75866891  1
  O  O328  1  0.75204936  0.87302206  0.23249565  1
  O  O329  1  0.75581544  0.89319921  0.73582485  1
  O  O330  1  0.24844968  0.11700583  0.27473780  1
  O  O331  1  0.24057921  0.10996878  0.74687248  1
  O  O332  1  0.26117190  0.61316776  0.23582023  1
  O  O333  1  0.26028791  0.62988358  0.76366022  1
  O  O334  1  0.75529698  0.12574458  0.26950723  1
  O  O335  1  0.74677055  0.11905148  0.76064419  1
  O  O336  1  0.73694396  0.61493602  0.26067084  1
  O  O337  1  0.74802795  0.63434502  0.75232481  1
  O  O338  1  0.36940523  0.10769675  0.38517008  1
  O  O339  1  0.35590671  0.11572749  0.90430959  1
  O  O340  1  0.38553400  0.60937427  0.35510667  1
  O  O341  1  0.36470975  0.62656570  0.88001069  1
  O  O342  1  0.87834541  0.11613864  0.36660868  1
  O  O343  1  0.86736622  0.12468655  0.87808949  1
  O  O344  1  0.88142780  0.62064669  0.36541142  1
  O  O345  1  0.86334220  0.61777947  0.87498506  1
  O  O346  1  0.13447833  0.37291322  0.13751706  1
  O  O347  1  0.13764365  0.38088819  0.62711783  1
  O  O348  1  0.12836481  0.88037460  0.13572068  1
  O  O349  1  0.13951222  0.86756571  0.64611868  1
  O  O350  1  0.61783506  0.37815544  0.13713330  1
  O  O351  1  0.61583582  0.37656360  0.64060535  1
  O  O352  1  0.64955991  0.88910531  0.11137146  1
  O  O353  1  0.64133017  0.88054806  0.61955153  1
  O  O354  1  0.12849246  0.26297836  0.25682725  1
  O  O355  1  0.10166083  0.25072128  0.76128095  1
  O  O356  1  0.13201780  0.75797143  0.26180211  1
  O  O357  1  0.11461825  0.75614612  0.74936765  1
  O  O358  1  0.63451031  0.26503220  0.24670213  1
  O  O359  1  0.60672115  0.25697878  0.74972087  1
  O  O360  1  0.60008241  0.77101651  0.20257129  1
  O  O361  1  0.61103123  0.73632001  0.74670352  1
  O  O362  1  0.37519642  0.25426439  0.23431135  1
  O  O363  1  0.38271454  0.24137142  0.75352511  1
  O  O364  1  0.37387129  0.73268059  0.25702623  1
  O  O365  1  0.38632570  0.73374654  0.75533234  1
  O  O366  1  0.86776813  0.22989205  0.25340374  1
  O  O367  1  0.88753075  0.25731006  0.74267721  1
  O  O368  1  0.87437884  0.74948285  0.23436415  1
  O  O369  1  0.89091550  0.75767586  0.73522022  1
  O  O370  1  0.37071343  0.50849370  0.48245474  1
  O  O371  1  0.37208196  0.47805150  1.00850285  1
  O  O372  1  0.38571828  0.98619588  0.50407847  1
  O  O373  1  0.39889142  0.99806913  1.00601905  1
  O  O374  1  0.88814606  0.50670707  0.48264338  1
  O  O375  1  0.88841741  0.50780864  0.98632247  1
  O  O376  1  0.87582253  0.99427457  0.50331952  1
  O  O377  1  0.86705541  0.99794949  0.98498482  1
  O  O378  1  0.12972452  0.00539079  0.00820475  1
  O  O379  1  0.11284124  -0.05325339  0.52049208  1
  O  O380  1  0.11345187  0.51110276  -0.00104498  1
  O  O381  1  0.11325002  0.51729032  0.48997547  1
  O  O382  1  0.62688208  0.00847761  0.00067115  1
  O  O383  1  0.61057420  -0.00351900  0.51376794  1
  O  O384  1  0.63970764  0.51073124  0.00384110  1
  O  O385  1  0.61518997  0.49980255  0.49867544  1
  O  O386  1  0.36507128  0.36474424  0.12070522  1
  O  O387  1  0.35739473  0.36550920  0.63293753  1
  O  O388  1  0.36599917  0.89482014  0.14012425  1
  O  O389  1  0.36830392  0.87145657  0.62019077  1
  O  O390  1  0.87269927  0.37215115  0.11923436  1
  O  O391  1  0.87453320  0.36111091  0.62636713  1
  O  O392  1  0.87061213  0.86566384  0.12393333  1
  O  O393  1  0.87769802  0.87290684  0.61187505  1
  O  O394  1  0.13131004  0.13285899  0.37672474  1
  O  O395  1  0.11649775  0.13586214  0.87713398  1
  O  O396  1  0.12190220  0.64012384  0.38259375  1
  O  O397  1  0.13889419  0.63045134  0.88826605  1
  O  O398  1  0.62671729  0.11941247  0.36993287  1
  O  O399  1  0.63599002  0.12366877  0.88633152  1
  O  O400  1  0.61674911  0.63379259  0.37115911  1
  O  O401  1  0.63825816  0.61930511  0.88713523  1
