# generated using pymatgen
data_V73Zn73O256
_symmetry_space_group_name_H-M   'P 1'
_cell_length_a   16.86754943
_cell_length_b   16.82771260
_cell_length_c   16.87038856
_cell_angle_alpha   90.01263409
_cell_angle_beta   90.13548333
_cell_angle_gamma   90.04121496
_symmetry_Int_Tables_number   1
_chemical_formula_structural   V73Zn73O256
_chemical_formula_sum   'V73 Zn73 O256'
_cell_volume   4788.51470599
_cell_formula_units_Z   1
loop_
 _symmetry_equiv_pos_site_id
 _symmetry_equiv_pos_as_xyz
  1  'x, y, z'
loop_
 _atom_site_type_symbol
 _atom_site_label
 _atom_site_symmetry_multiplicity
 _atom_site_fract_x
 _atom_site_fract_y
 _atom_site_fract_z
 _atom_site_occupancy
  V  V0  1  0.38891711  0.12720307  0.74717827  1
  V  V1  1  0.62532379  0.89485051  0.74877337  1
  V  V2  1  0.50414181  0.73934004  0.24932843  1
  V  V3  1  0.87654936  0.36994640  0.51170532  1
  V  V4  1  0.48987269  0.48751663  0.00799748  1
  V  V5  1  0.73777379  0.88725498  0.60991333  1
  V  V6  1  0.63604239  0.51244243  0.12904612  1
  V  V7  1  0.62380687  0.11194633  0.00798108  1
  V  V8  1  0.73009890  0.75570216  -0.00063825  1
  V  V9  1  0.24970586  0.88254204  0.12221443  1
  V  V10  1  0.38110485  0.37639191  0.48847991  1
  V  V11  1  0.12860673  0.88187514  0.24293237  1
  V  V12  1  0.61044414  0.35773678  0.23841245  1
  V  V13  1  0.75352692  0.60899118  0.90094077  1
  V  V14  1  0.76814248  0.62699952  0.37842279  1
  V  V15  1  0.51136365  0.61762072  0.62377468  1
  V  V16  1  -0.00664889  0.37058299  0.36527522  1
  V  V17  1  0.00579597  0.00254184  0.00890803  1
  V  V18  1  0.74031447  0.88968854  0.13063171  1
  V  V19  1  0.37255246  0.00200914  0.37689628  1
  V  V20  1  0.61801987  0.25606819  0.86339613  1
  V  V21  1  0.13161987  0.51797087  0.12494677  1
  V  V22  1  0.23941594  0.49775605  0.74667106  1
  V  V23  1  0.50556378  0.74890969  0.75403762  1
  V  V24  1  0.88296725  0.11919498  0.24222965  1
  V  V25  1  0.11915370  0.73950564  0.87865866  1
  V  V26  1  0.74787490  0.25194872  0.02030265  1
  V  V27  1  0.24342976  0.87853330  0.62988031  1
  V  V28  1  0.12858838  0.73951034  0.37771097  1
  V  V29  1  0.00956119  0.63110964  0.62835680  1
  V  V30  1  0.36870834  0.74258990  0.62633332  1
  V  V31  1  0.12266586  0.12888515  0.01647067  1
  V  V32  1  0.11309384  0.11677701  0.51372148  1
  V  V33  1  0.24933490  0.00592112  0.25027256  1
  V  V34  1  0.24481525  0.74010670  0.49818589  1
  V  V35  1  0.25350049  0.61994378  0.88357484  1
  V  V36  1  0.49870483  0.87548227  0.37904603  1
  V  V37  1  0.86360141  0.00410969  0.37683575  1
  V  V38  1  0.51169247  0.50182536  0.49435417  1
  V  V39  1  0.23848898  0.13468234  0.86957960  1
  V  V40  1  -0.00832861  0.62465558  0.11287727  1
  V  V41  1  0.60398560  0.12527556  0.51840181  1
  V  V42  1  0.75354648  0.23526167  0.48577661  1
  V  V43  1  -0.00247832  0.87214571  0.88022430  1
  V  V44  1  -0.00536563  0.74815532  0.25080241  1
  V  V45  1  0.11817605  0.87446366  0.75338318  1
  V  V46  1  0.74879957  0.50169498  0.71881180  1
  V  V47  1  0.00174058  0.89001461  0.37105902  1
  V  V48  1  0.50070758  0.87286856  0.87716344  1
  V  V49  1  0.63351762  0.74636257  0.39145733  1
  V  V50  1  0.87754910  0.38081295  -0.00585588  1
  V  V51  1  0.12855592  0.38098967  0.24792872  1
  V  V52  1  0.38909408  0.24962272  0.63004359  1
  V  V53  1  0.38611050  0.25684319  0.11848943  1
  V  V54  1  0.25118055  0.24431443  0.49740926  1
  V  V55  1  0.38691833  0.89129796  0.51737941  1
  V  V56  1  0.37669644  0.61460981  0.75400474  1
  V  V57  1  0.87297719  0.76158978  0.11364721  1
  V  V58  1  0.36733785  0.52779093  0.36541736  1
  V  V59  1  0.37795445  0.13028058  0.24959788  1
  V  V60  1  0.75312792  0.12797507  0.86806103  1
  V  V61  1  0.01906338  0.50278442  0.50551085  1
  V  V62  1  0.37543442  0.00259665  0.87696304  1
  V  V63  1  0.50406735  0.10341756  0.12652917  1
  V  V64  1  0.89508996  0.25003563  0.13217129  1
  V  V65  1  0.37736573  0.74221037  0.13349701  1
  V  V66  1  0.24426677  0.37738011  0.62709549  1
  V  V67  1  0.25432066  0.37506874  0.12014227  1
  V  V68  1  0.89274509  0.13493427  0.74236264  1
  V  V69  1  0.72855256  0.36018735  0.62519023  1
  V  V70  1  0.12926043  0.24311005  0.36707409  1
  V  V71  1  0.37715552  0.87951111  0.00061775  1
  V  V72  1  0.87059819  -0.00648310  0.87628762  1
  Zn  Zn73  1  0.87297639  0.62484863  0.74711282  1
  Zn  Zn74  1  0.86934776  0.49893528  0.36421178  1
  Zn  Zn75  1  0.62266729  0.89013073  0.25312059  1
  Zn  Zn76  1  0.24874586  0.74448433  0.00617042  1
  Zn  Zn77  1  -0.00326487  0.49868077  -0.00840302  1
  Zn  Zn78  1  0.24690906  0.25883648  -0.00746542  1
  Zn  Zn79  1  0.24120562  0.00888609  0.74600943  1
  Zn  Zn80  1  0.85611011  0.74820634  0.62108396  1
  Zn  Zn81  1  0.90336550  0.89284009  0.52793624  1
  Zn  Zn82  1  0.19142382  0.19196310  0.18671930  1
  Zn  Zn83  1  0.18165036  0.19689537  0.68653221  1
  Zn  Zn84  1  0.19118813  0.69008024  0.19669416  1
  Zn  Zn85  1  0.18112475  0.68673007  0.69009673  1
  Zn  Zn86  1  0.69573520  0.06247139  0.20365185  1
  Zn  Zn87  1  0.68745503  0.17872270  0.68278121  1
  Zn  Zn88  1  0.69101800  0.68833631  0.19714014  1
  Zn  Zn89  1  0.69035601  0.69655936  0.68577532  1
  Zn  Zn90  1  0.31117904  0.31532608  0.30493002  1
  Zn  Zn91  1  0.31720751  0.31322230  0.80961634  1
  Zn  Zn92  1  0.31440569  0.81390357  0.31644118  1
  Zn  Zn93  1  0.30996527  0.80667776  0.81285589  1
  Zn  Zn94  1  0.74747284  0.24426989  0.26764264  1
  Zn  Zn95  1  0.81093807  0.31490033  0.80995945  1
  Zn  Zn96  1  0.81129747  0.81438862  0.31370156  1
  Zn  Zn97  1  0.80709392  0.80630156  0.80606464  1
  Zn  Zn98  1  0.19229966  0.44000193  0.42959146  1
  Zn  Zn99  1  0.18418443  0.44829228  0.94316255  1
  Zn  Zn100  1  0.18886844  0.93497602  0.43775246  1
  Zn  Zn101  1  0.18873823  0.94189791  0.93616599  1
  Zn  Zn102  1  0.70254945  0.44380908  0.43837095  1
  Zn  Zn103  1  0.67852312  0.43010134  0.95154033  1
  Zn  Zn104  1  0.67986832  0.95020146  0.42963113  1
  Zn  Zn105  1  0.68976744  0.93119662  0.93864829  1
  Zn  Zn106  1  0.31157370  0.06823435  0.05999249  1
  Zn  Zn107  1  0.30891537  0.06477135  0.56694463  1
  Zn  Zn108  1  0.32044128  0.55519144  0.07030828  1
  Zn  Zn109  1  0.31488963  0.55833860  0.55873809  1
  Zn  Zn110  1  0.82089816  0.06691157  0.05742082  1
  Zn  Zn111  1  0.81388791  0.05468746  0.56940015  1
  Zn  Zn112  1  0.81065714  0.56227227  0.07553515  1
  Zn  Zn113  1  0.81550872  0.56428563  0.55264299  1
  Zn  Zn114  1  0.46775204  0.45209944  0.20669292  1
  Zn  Zn115  1  0.43599597  0.43729365  0.68230898  1
  Zn  Zn116  1  0.43523420  0.93335152  0.19400243  1
  Zn  Zn117  1  0.43380749  0.93855645  0.69234968  1
  Zn  Zn118  1  0.91673946  0.42999451  0.18936959  1
  Zn  Zn119  1  0.93383625  0.44247383  0.69063810  1
  Zn  Zn120  1  0.93536871  0.93686206  0.18818238  1
  Zn  Zn121  1  0.92749720  0.93961476  0.69511609  1
  Zn  Zn122  1  0.06290769  0.06944961  0.30342409  1
  Zn  Zn123  1  0.05774993  0.05899840  0.81315712  1
  Zn  Zn124  1  0.02243156  0.54498594  0.29132753  1
  Zn  Zn125  1  0.06503555  0.56123853  0.80117452  1
  Zn  Zn126  1  0.56635675  0.06418031  0.33910699  1
  Zn  Zn127  1  0.56238266  0.06835463  0.82252647  1
  Zn  Zn128  1  0.57145623  0.56205872  0.31376393  1
  Zn  Zn129  1  0.58636344  0.56779904  0.81397791  1
  Zn  Zn130  1  0.43012828  0.17841056  0.44377235  1
  Zn  Zn131  1  0.43944918  0.19021420  0.94083063  1
  Zn  Zn132  1  0.44033489  0.69394067  0.44202562  1
  Zn  Zn133  1  0.43642888  0.68700657  0.94221008  1
  Zn  Zn134  1  0.93821214  0.18548281  0.43292629  1
  Zn  Zn135  1  0.93918550  0.19257209  0.93671280  1
  Zn  Zn136  1  0.93336854  0.69188302  0.45813621  1
  Zn  Zn137  1  0.92754116  0.68682468  0.93221590  1
  Zn  Zn138  1  0.06374721  0.31461533  0.05760421  1
  Zn  Zn139  1  0.07569472  0.32375735  0.54312227  1
  Zn  Zn140  1  0.06560903  0.81148493  0.05857123  1
  Zn  Zn141  1  0.04724100  0.82664487  0.57233470  1
  Zn  Zn142  1  0.56713752  0.31714044  0.05627351  1
  Zn  Zn143  1  0.56378447  0.30682164  0.54914374  1
  Zn  Zn144  1  0.55999007  0.81908948  0.06763913  1
  Zn  Zn145  1  0.56528169  0.81010039  0.56977501  1
  O  O146  1  0.13173137  0.12246363  0.11549825  1
  O  O147  1  0.12692625  0.12825538  0.61455851  1
  O  O148  1  0.11822816  0.62238468  0.12322432  1
  O  O149  1  0.11159441  0.61620193  0.63399051  1
  O  O150  1  0.61541592  0.11489130  0.11876584  1
  O  O151  1  0.62970734  0.10686209  0.61409750  1
  O  O152  1  0.62827513  0.61440715  0.13616669  1
  O  O153  1  0.60854343  0.62891524  0.62838985  1
  O  O154  1  0.37635035  0.36210465  0.38950834  1
  O  O155  1  0.41674114  0.37813748  0.83894728  1
  O  O156  1  0.37927218  0.88179001  0.39031435  1
  O  O157  1  0.37598297  0.88117519  0.87996916  1
  O  O158  1  0.89307460  0.36797867  0.37418528  1
  O  O159  1  0.86711405  0.36925605  0.89421668  1
  O  O160  1  0.89233652  0.88707679  0.36033580  1
  O  O161  1  0.88105129  0.88609630  0.86847357  1
  O  O162  1  0.25823816  -0.01037474  0.35717834  1
  O  O163  1  0.25931854  0.01363412  0.87054814  1
  O  O164  1  0.26993922  0.50151323  0.38047180  1
  O  O165  1  0.24335281  0.50977044  0.86192095  1
  O  O166  1  0.76686892  -0.01257574  0.36168956  1
  O  O167  1  0.76442731  0.00797487  0.88857469  1
  O  O168  1  0.75366837  0.51977369  0.37095171  1
  O  O169  1  0.74844134  0.50907293  0.90332069  1
  O  O170  1  0.23844467  0.49114791  0.12226612  1
  O  O171  1  0.25990721  0.48714039  0.63244378  1
  O  O172  1  0.25927064  0.99055419  0.13279317  1
  O  O173  1  0.25327733  0.98251548  0.62847747  1
  O  O174  1  0.73778119  0.49928477  0.13417934  1
  O  O175  1  0.74872685  0.47902184  0.61439024  1
  O  O176  1  0.75631932  0.99267148  0.12248267  1
  O  O177  1  0.74246356  0.98890051  0.63111261  1
  O  O178  1  0.01141653  0.37302938  0.26094018  1
  O  O179  1  0.00653140  0.35901768  0.74963701  1
  O  O180  1  0.01150390  0.86835262  0.24765827  1
  O  O181  1  0.01121550  0.87489839  0.76556715  1
  O  O182  1  0.50984615  0.35920819  0.25927459  1
  O  O183  1  0.47087571  0.38007777  0.78351306  1
  O  O184  1  0.49596507  0.86753871  0.26534275  1
  O  O185  1  0.50125400  0.86928758  0.75646480  1
  O  O186  1  0.48891406  0.12152902  0.23282157  1
  O  O187  1  0.48713805  0.12214374  0.75041325  1
  O  O188  1  0.50133095  0.64098320  0.25327847  1
  O  O189  1  0.49633414  0.62695130  0.74347730  1
  O  O190  1  0.98396944  0.13529033  0.25536609  1
  O  O191  1  0.99378363  0.13120016  0.75599582  1
  O  O192  1  1.01050468  0.64632654  0.23374870  1
  O  O193  1  0.98854506  0.60463994  0.73332271  1
  O  O194  1  0.36762353  0.24327135  0.01472853  1
  O  O195  1  0.37200617  0.25591487  0.50975702  1
  O  O196  1  0.37332031  0.75885125  0.01154077  1
  O  O197  1  0.36861656  0.76214655  0.51349764  1
  O  O198  1  0.86629575  0.24837571  0.01340421  1
  O  O199  1  0.86765972  0.26086636  0.49095724  1
  O  O200  1  0.87613659  0.75622076  0.01261637  1
  O  O201  1  0.89300872  0.77768586  0.51556265  1
  O  O202  1  0.13387590  0.24213771  0.49143153  1
  O  O203  1  0.12604574  0.23410980  1.00139336  1
  O  O204  1  0.13049760  0.75767032  0.48501658  1
  O  O205  1  0.13221066  0.75163810  0.98457314  1
  O  O206  1  0.63384635  0.22973666  0.49974161  1
  O  O207  1  0.63733758  0.24086586  0.99760629  1
  O  O208  1  0.61579193  0.74632481  0.48954464  1
  O  O209  1  0.63032599  0.75093825  1.00592201  1
  O  O210  1  0.48677787  0.25296122  0.11962298  1
  O  O211  1  0.48743084  0.25541999  0.62334767  1
  O  O212  1  0.48815623  0.75915674  0.13743364  1
  O  O213  1  0.48843533  0.73911423  0.63274337  1
  O  O214  1  0.99447129  0.25052156  0.12785476  1
  O  O215  1  1.04286366  0.30024866  0.71041573  1
  O  O216  1  0.99330466  0.74917049  0.12693046  1
  O  O217  1  1.00939069  0.73251663  0.62652594  1
  O  O218  1  0.01862144  0.26386791  0.38422571  1
  O  O219  1  0.01120385  0.25693826  0.88180902  1
  O  O220  1  0.00888046  0.75925116  0.35899047  1
  O  O221  1  0.01082587  0.75408141  0.88310849  1
  O  O222  1  0.51462742  0.23552401  0.37263262  1
  O  O223  1  0.51802106  0.24120338  0.87926418  1
  O  O224  1  0.50567183  0.75397784  0.36507015  1
  O  O225  1  0.48729867  0.76105754  0.86549059  1
  O  O226  1  0.24658439  0.14097411  0.50429916  1
  O  O227  1  0.23795529  0.12399904  0.98739742  1
  O  O228  1  0.25532022  0.64038676  0.50528545  1
  O  O229  1  0.25393845  0.61731176  0.98566394  1
  O  O230  1  0.76139160  0.13653656  0.50594517  1
  O  O231  1  0.74074554  0.13125405  0.99866448  1
  O  O232  1  0.75162458  0.63005925  0.48329590  1
  O  O233  1  0.75488451  0.64180074  1.00406028  1
  O  O234  1  0.24249033  0.37714773  0.01271856  1
  O  O235  1  0.26349521  0.37004592  0.51006612  1
  O  O236  1  0.25816643  0.87501862  0.00570615  1
  O  O237  1  0.25640323  0.86886860  0.51711185  1
  O  O238  1  0.75854770  0.35668764  0.00442076  1
  O  O239  1  0.75750584  0.36298721  0.50620070  1
  O  O240  1  0.74415657  0.86611973  0.01791116  1
  O  O241  1  0.73255603  0.88839484  0.50894353  1
  O  O242  1  0.11481581  0.49224763  0.23457401  1
  O  O243  1  0.14147128  0.49657701  0.74011044  1
  O  O244  1  0.13465553  0.99349933  0.24985790  1
  O  O245  1  0.12655639  0.98041786  0.75869509  1
  O  O246  1  0.60164850  0.48751101  0.23486379  1
  O  O247  1  0.65496612  0.49347383  0.76083770  1
  O  O248  1  0.61909176  1.00526451  0.26049926  1
  O  O249  1  0.61346947  0.99415493  0.75236592  1
  O  O250  1  0.36839762  0.00737929  0.25632550  1
  O  O251  1  0.36863551  0.01439908  0.75343154  1
  O  O252  1  0.38713791  0.49819186  0.27072595  1
  O  O253  1  0.36985649  0.51087753  0.74646722  1
  O  O254  1  0.87991926  0.01199074  0.25260250  1
  O  O255  1  0.88293035  0.01377665  0.77167446  1
  O  O256  1  0.91372975  0.51095606  0.26161602  1
  O  O257  1  0.85202609  0.49463625  0.75156047  1
  O  O258  1  0.12349232  0.37013762  0.36562269  1
  O  O259  1  0.08968431  0.41640066  0.87734249  1
  O  O260  1  0.11973019  0.87377411  0.35878123  1
  O  O261  1  0.12207002  0.86485923  0.87003925  1
  O  O262  1  0.66274364  0.37660318  0.34419829  1
  O  O263  1  0.63648663  0.35501627  0.87640186  1
  O  O264  1  0.61410472  0.86674574  0.37557572  1
  O  O265  1  0.60704576  0.88455529  0.86891577  1
  O  O266  1  0.38579123  0.13265523  0.12625953  1
  O  O267  1  0.36991283  0.13574009  0.63655332  1
  O  O268  1  0.37302719  0.64351542  0.12167115  1
  O  O269  1  0.37842742  0.62922982  0.63326644  1
  O  O270  1  0.88068396  0.13317383  0.13152828  1
  O  O271  1  0.87706476  0.11290246  0.64498115  1
  O  O272  1  0.88653800  0.64044050  0.12490777  1
  O  O273  1  0.89073549  0.62673691  0.61387549  1
  O  O274  1  0.25385653  0.26333104  0.11953073  1
  O  O275  1  0.25919818  0.26195278  0.62006756  1
  O  O276  1  0.26179938  0.76221023  0.12678747  1
  O  O277  1  0.25184432  0.75141414  0.62111969  1
  O  O278  1  0.75208818  0.24295768  0.11774048  1
  O  O279  1  0.74536955  0.25642179  0.61357850  1
  O  O280  1  0.76065824  0.75503244  0.11865709  1
  O  O281  1  0.73631490  0.77535881  0.62315290  1
  O  O282  1  0.23905287  0.26086013  0.38460959  1
  O  O283  1  0.25756303  0.24088180  0.87550584  1
  O  O284  1  0.23774706  0.75866900  0.38211216  1
  O  O285  1  0.24217402  0.73477575  0.87683814  1
  O  O286  1  0.74679655  0.24213778  0.38753359  1
  O  O287  1  0.74701892  0.23483958  0.88336005  1
  O  O288  1  0.73774770  0.75801691  0.38239038  1
  O  O289  1  0.75455381  0.76426229  0.90169534  1
  O  O290  1  0.01332399  0.11551254  -0.00344816  1
  O  O291  1  0.01407624  0.13063402  0.49901371  1
  O  O292  1  -0.00696987  0.62280278  0.00751545  1
  O  O293  1  0.00642313  0.60889995  0.50612433  1
  O  O294  1  0.51352827  0.12900247  0.01370417  1
  O  O295  1  0.50268293  0.12784734  0.51464491  1
  O  O296  1  0.51451619  0.60220873  -0.03507373  1
  O  O297  1  0.49314190  0.61596683  0.51528580  1
  O  O298  1  0.48969658  0.38662674  0.50508821  1
  O  O299  1  0.50311404  0.38720310  0.99167242  1
  O  O300  1  0.49338709  0.85411063  0.48542225  1
  O  O301  1  0.48741559  0.87076797  0.99113456  1
  O  O302  1  0.99090043  0.37712814  0.49488576  1
  O  O303  1  0.98349785  0.37570988  1.00391333  1
  O  O304  1  1.01586358  0.87282894  0.46806825  1
  O  O305  1  1.00996753  0.88679780  0.98883481  1
  O  O306  1  0.48943517  0.51529420  0.39217958  1
  O  O307  1  0.51107087  0.54179994  0.90199070  1
  O  O308  1  0.48280635  0.98866876  0.37598993  1
  O  O309  1  0.48291786  0.99195174  0.86956085  1
  O  O310  1  1.00671199  0.48245931  0.39114064  1
  O  O311  1  1.03358464  0.47544899  0.87650266  1
  O  O312  1  0.99897054  0.99290997  0.36409815  1
  O  O313  1  0.99303055  0.99037607  0.88361085  1
  O  O314  1  -0.00233154  -0.00863631  0.10748355  1
  O  O315  1  -0.01092158  -0.07481977  0.60447007  1
  O  O316  1  0.00531293  0.52078758  0.12678874  1
  O  O317  1  -0.00334990  0.49469300  0.60784931  1
  O  O318  1  0.49105920  0.00525224  0.12076090  1
  O  O319  1  0.44379463  -0.04687320  0.57945222  1
  O  O320  1  0.49945295  0.50456456  0.11199924  1
  O  O321  1  0.49714188  0.50975583  0.61699761  1
  O  O322  1  0.23976708  0.37628205  0.23657509  1
  O  O323  1  0.25905854  0.38561544  0.74043730  1
  O  O324  1  0.24754940  0.88260015  0.24107554  1
  O  O325  1  0.24204798  0.87371400  0.74447215  1
  O  O326  1  0.72201712  0.37533297  0.28485706  1
  O  O327  1  0.75480729  0.37446410  0.72640338  1
  O  O328  1  0.74757187  0.87036206  0.23331287  1
  O  O329  1  0.72443317  0.87794626  0.76289464  1
  O  O330  1  0.26154182  0.11485356  0.23892311  1
  O  O331  1  0.25180295  0.13046590  0.75865436  1
  O  O332  1  0.25647446  0.60695406  0.22772808  1
  O  O333  1  0.25576620  0.61327559  0.75316590  1
  O  O334  1  0.77166000  0.13066752  0.25044838  1
  O  O335  1  0.75149000  0.12056710  0.76746706  1
  O  O336  1  0.76075381  0.65049523  0.27543656  1
  O  O337  1  0.75472264  0.60640739  0.71241113  1
  O  O338  1  0.38027988  0.11686776  0.36220550  1
  O  O339  1  0.37045223  0.12264193  0.86491636  1
  O  O340  1  0.37234890  0.62855197  0.37573171  1
  O  O341  1  0.35997445  0.63104361  0.86701445  1
  O  O342  1  0.87849988  0.11096715  0.36676383  1
  O  O343  1  0.86515181  0.12001654  0.87477149  1
  O  O344  1  0.87453776  0.62915236  0.38355924  1
  O  O345  1  0.85268153  0.63183448  0.86671468  1
  O  O346  1  0.13241739  0.37663488  0.13289767  1
  O  O347  1  0.14482539  0.37042155  0.61982686  1
  O  O348  1  0.13800689  0.86809998  0.13116916  1
  O  O349  1  0.13683082  0.86112576  0.64194241  1
  O  O350  1  0.62201889  0.38168953  0.13488187  1
  O  O351  1  0.62907183  0.36787856  0.62181616  1
  O  O352  1  0.63514516  0.88195934  0.12899972  1
  O  O353  1  0.62146273  0.88053849  0.64040228  1
  O  O354  1  0.13279431  0.25758804  0.26201351  1
  O  O355  1  0.10630566  0.27058618  0.75009459  1
  O  O356  1  0.12228958  0.76252197  0.25614271  1
  O  O357  1  0.12975452  0.75995847  0.76760062  1
  O  O358  1  0.63452382  0.25825609  0.23546798  1
  O  O359  1  0.63105615  0.23715899  0.76439377  1
  O  O360  1  0.61020666  0.75989296  0.25180975  1
  O  O361  1  0.60731738  0.75726614  0.74780379  1
  O  O362  1  0.36482067  0.23914773  0.23471405  1
  O  O363  1  0.37539686  0.24043525  0.73903689  1
  O  O364  1  0.38258881  0.75659289  0.24095164  1
  O  O365  1  0.37949864  0.73778531  0.74355265  1
  O  O366  1  0.86912152  0.24568422  0.23435015  1
  O  O367  1  0.86990472  0.23363504  0.75441730  1
  O  O368  1  0.89208126  0.75888113  0.24109147  1
  O  O369  1  0.86283569  0.74102063  0.73705421  1
  O  O370  1  0.38078325  0.48859001  0.49052210  1
  O  O371  1  0.38799360  0.49891052  1.00052125  1
  O  O372  1  0.34884278  0.99991145  0.48103258  1
  O  O373  1  0.36849740  0.99181807  0.98993362  1
  O  O374  1  0.87497441  0.47692522  0.48827567  1
  O  O375  1  0.87483397  0.48581416  1.01170916  1
  O  O376  1  0.87134984  0.99650697  0.48199829  1
  O  O377  1  0.89289864  1.00908722  0.98642617  1
  O  O378  1  0.11574456  0.01198457  -0.00701633  1
  O  O379  1  0.13579268  0.01976048  0.49139964  1
  O  O380  1  0.11405170  0.49590630  0.02357618  1
  O  O381  1  0.11825626  0.48663587  0.50351958  1
  O  O382  1  0.62699531  0.01369831  -0.00633680  1
  O  O383  1  0.62792962  0.05144831  0.44636945  1
  O  O384  1  0.61772527  0.49505899  0.02239473  1
  O  O385  1  0.61005777  0.48958881  0.49126538  1
  O  O386  1  0.36178144  0.36569198  0.13124911  1
  O  O387  1  0.37136807  0.36333977  0.61843212  1
  O  O388  1  0.36887637  0.87111811  0.11713455  1
  O  O389  1  0.35602077  0.85639728  0.63672516  1
  O  O390  1  0.87340345  0.35760515  0.11727971  1
  O  O391  1  0.87868418  0.36859573  0.61156909  1
  O  O392  1  0.86567527  0.86617317  0.12705365  1
  O  O393  1  0.84476773  0.87839878  0.63643622  1
  O  O394  1  0.12453134  0.14090939  0.37544703  1
  O  O395  1  0.13785486  0.12499493  0.87105401  1
  O  O396  1  0.11842813  0.64351018  0.36645213  1
  O  O397  1  0.13294214  0.63279697  0.86722795  1
  O  O398  1  0.57317148  0.18910801  0.35632505  1
  O  O399  1  0.63576906  0.12850791  0.88810562  1
  O  O400  1  0.63158582  0.64322503  0.37010916  1
  O  O401  1  0.66944620  0.63978821  0.85235630  1
