# generated using pymatgen
data_V73Zn73O256
_symmetry_space_group_name_H-M   'P 1'
_cell_length_a   16.86315688
_cell_length_b   16.94130467
_cell_length_c   16.92830752
_cell_angle_alpha   90.06847042
_cell_angle_beta   89.97954738
_cell_angle_gamma   90.26525470
_symmetry_Int_Tables_number   1
_chemical_formula_structural   V73Zn73O256
_chemical_formula_sum   'V73 Zn73 O256'
_cell_volume   4836.08896959
_cell_formula_units_Z   1
loop_
 _symmetry_equiv_pos_site_id
 _symmetry_equiv_pos_as_xyz
  1  'x, y, z'
loop_
 _atom_site_type_symbol
 _atom_site_label
 _atom_site_symmetry_multiplicity
 _atom_site_fract_x
 _atom_site_fract_y
 _atom_site_fract_z
 _atom_site_occupancy
  V  V0  1  0.24483044  0.75319177  0.50168611  1
  V  V1  1  0.74313571  0.86727595  0.12375767  1
  V  V2  1  0.76384832  0.01102688  0.75181458  1
  V  V3  1  0.00486597  0.49317733  -0.01107632  1
  V  V4  1  0.86267704  0.49388743  0.34943519  1
  V  V5  1  0.11119982  0.73929533  0.35968107  1
  V  V6  1  0.36957210  0.88114074  0.50310053  1
  V  V7  1  0.63151854  0.63975645  0.50048101  1
  V  V8  1  0.38487448  0.13278871  0.73644107  1
  V  V9  1  0.11492240  0.36776607  0.26725955  1
  V  V10  1  0.76230782  0.13322244  0.37055978  1
  V  V11  1  0.87077635  -0.00743776  0.37558307  1
  V  V12  1  0.48808775  0.76569769  0.75265119  1
  V  V13  1  0.49948263  0.63301568  0.63352800  1
  V  V14  1  0.75645925  0.25609610  0.49892126  1
  V  V15  1  -0.00568091  0.62282528  0.12931754  1
  V  V16  1  0.88350057  0.90087712  0.00566535  1
  V  V17  1  0.11888046  0.23226082  0.38683207  1
  V  V18  1  0.25887528  0.49398930  0.26435382  1
  V  V19  1  0.83108903  0.63868106  0.22348456  1
  V  V20  1  0.12387866  0.62097048  0.50467223  1
  V  V21  1  0.47716039  0.37953732  0.87274947  1
  V  V22  1  -0.00081146  0.62828931  0.62556581  1
  V  V23  1  0.50314208  0.25474626  0.73291400  1
  V  V24  1  0.25563553  0.13621903  0.88613042  1
  V  V25  1  0.24645068  0.36838640  0.11801703  1
  V  V26  1  0.51311814  0.88910208  0.87087269  1
  V  V27  1  0.25998719  0.00019971  0.73789970  1
  V  V28  1  0.13551761  0.61989572  -0.00892710  1
  V  V29  1  0.12555072  0.35953082  0.75000811  1
  V  V30  1  0.02497721  0.08511074  0.13163253  1
  V  V31  1  0.88077703  0.25799147  0.15021165  1
  V  V32  1  0.62833245  0.26011503  0.86620757  1
  V  V33  1  0.52122446  0.01381799  0.00521592  1
  V  V34  1  0.13761022  0.75411490  0.88476111  1
  V  V35  1  0.47203426  0.49274213  0.00502983  1
  V  V36  1  0.25927528  0.51568715  0.76416243  1
  V  V37  1  0.13105154  0.49334468  0.63041529  1
  V  V38  1  0.72842464  0.49126193  0.75541935  1
  V  V39  1  0.50816815  0.87716631  0.37350662  1
  V  V40  1  0.12189426  0.08530514  0.50746974  1
  V  V41  1  0.64063440  0.75796992  0.37079270  1
  V  V42  1  0.88430640  0.36114319  -0.00289649  1
  V  V43  1  0.55549145  0.30313958  0.20561552  1
  V  V44  1  0.88469027  0.23980560  0.62853497  1
  V  V45  1  0.37286738  0.87893516  0.01345750  1
  V  V46  1  0.36852178  0.00293563  0.37451972  1
  V  V47  1  0.51466020  0.12565385  0.13283257  1
  V  V48  1  0.48489749  0.50021076  0.48650871  1
  V  V49  1  0.26197087  0.62561020  0.37230098  1
  V  V50  1  0.61977841  0.48761921  0.62353890  1
  V  V51  1  0.87526584  0.48913828  0.86737455  1
  V  V52  1  0.76333684  0.12871901  0.87478965  1
  V  V53  1  0.62261864  0.26914475  0.37846281  1
  V  V54  1  0.61734549  0.61854915  -0.00971979  1
  V  V55  1  0.48970163  0.75597228  0.24304658  1
  V  V56  1  0.68661417  0.83400444  0.69357716  1
  V  V57  1  0.36513441  0.13128991  0.25393551  1
  V  V58  1  0.87655808  0.62081129  0.75599619  1
  V  V59  1  0.74485892  0.25091411  0.00599471  1
  V  V60  1  0.12286945  0.24294387  0.89277153  1
  V  V61  1  0.50060736  0.00903510  0.50299272  1
  V  V62  1  0.36578344  0.25006837  0.11793893  1
  V  V63  1  0.62520978  0.01227502  0.63624599  1
  V  V64  1  -0.00349392  0.87079566  0.37452701  1
  V  V65  1  0.75555454  0.74555986  -0.01258035  1
  V  V66  1  0.24199896  -0.01352179  0.23786444  1
  V  V67  1  0.62964547  0.12814437  0.49519355  1
  V  V68  1  0.13579341  0.88031857  0.73407062  1
  V  V69  1  0.37965554  0.00870950  0.88207052  1
  V  V70  1  0.89137367  0.39516050  0.50455075  1
  V  V71  1  0.74284944  0.00297602  0.23829819  1
  V  V72  1  0.37002064  0.75184837  0.62326820  1
  Zn  Zn73  1  0.75480884  0.37475194  0.62746165  1
  Zn  Zn74  1  0.12088108  0.49462723  0.13476664  1
  Zn  Zn75  1  0.00378513  0.87562040  0.88902922  1
  Zn  Zn76  1  0.62983077  0.75148374  0.86819026  1
  Zn  Zn77  1  -0.00810271  0.08228723  0.62095565  1
  Zn  Zn78  1  -0.00696846  0.22312540  0.75470215  1
  Zn  Zn79  1  0.47809602  0.62168141  0.12717788  1
  Zn  Zn80  1  -0.00247972  0.75631623  0.75361480  1
  Zn  Zn81  1  0.24648084  0.26417018  0.50890141  1
  Zn  Zn82  1  0.17874524  0.18361152  0.19240304  1
  Zn  Zn83  1  0.18419950  0.17747642  0.67324855  1
  Zn  Zn84  1  0.18173129  0.67215666  0.18505459  1
  Zn  Zn85  1  0.18860965  0.69088236  0.69177909  1
  Zn  Zn86  1  0.70862381  0.19515361  0.19049101  1
  Zn  Zn87  1  0.69220719  0.18962154  0.68465908  1
  Zn  Zn88  1  0.65543086  0.69609945  0.17080370  1
  Zn  Zn89  1  0.69674042  0.66847423  0.68891744  1
  Zn  Zn90  1  0.30446280  0.30401530  0.32465496  1
  Zn  Zn91  1  0.30717952  0.31372618  0.79190987  1
  Zn  Zn92  1  0.31112150  0.81360491  0.31558142  1
  Zn  Zn93  1  0.31730561  0.81700989  0.82797128  1
  Zn  Zn94  1  0.94155517  0.31861987  0.32396320  1
  Zn  Zn95  1  0.81689830  0.31539389  0.80965275  1
  Zn  Zn96  1  0.82543882  0.81973838  0.30190428  1
  Zn  Zn97  1  0.82809477  0.82443618  0.81570616  1
  Zn  Zn98  1  0.18384671  0.43680972  0.44066082  1
  Zn  Zn99  1  0.18956264  0.42808639  0.92920041  1
  Zn  Zn100  1  0.18264789  0.92894193  0.41974895  1
  Zn  Zn101  1  0.19323417  0.94670751  0.93809003  1
  Zn  Zn102  1  0.69004529  0.44577315  0.44615208  1
  Zn  Zn103  1  0.69488986  0.43945071  0.95252520  1
  Zn  Zn104  1  0.70093869  0.93892550  0.45294768  1
  Zn  Zn105  1  0.70008214  0.94189144  0.94183811  1
  Zn  Zn106  1  0.31376976  0.06104486  0.06775629  1
  Zn  Zn107  1  0.29849146  0.09750597  0.56865118  1
  Zn  Zn108  1  0.30805216  0.55139433  0.07539809  1
  Zn  Zn109  1  0.31108400  0.44375667  0.57238095  1
  Zn  Zn110  1  0.83726599  0.08158426  0.07040812  1
  Zn  Zn111  1  0.87819601  -0.06520346  0.54182555  1
  Zn  Zn112  1  0.80433706  0.55700873  0.05414175  1
  Zn  Zn113  1  0.83735718  0.60060220  0.53722640  1
  Zn  Zn114  1  0.43307485  0.43579556  0.19026594  1
  Zn  Zn115  1  0.43875351  0.44484579  0.69747329  1
  Zn  Zn116  1  0.44379378  0.94508383  0.19152593  1
  Zn  Zn117  1  0.43776689  0.94358480  0.68456100  1
  Zn  Zn118  1  0.93546251  0.43754932  0.17550303  1
  Zn  Zn119  1  0.94851672  0.43134701  0.68339566  1
  Zn  Zn120  1  0.93013379  0.93052738  0.19780655  1
  Zn  Zn121  1  0.94815520  0.93454103  0.70839685  1
  Zn  Zn122  1  0.05523150  0.06043454  0.30595469  1
  Zn  Zn123  1  0.07248714  0.06143095  0.80499193  1
  Zn  Zn124  1  0.05763703  0.54816192  0.31739598  1
  Zn  Zn125  1  0.06624836  0.56151561  0.80899573  1
  Zn  Zn126  1  0.56545052  0.06347325  0.31232956  1
  Zn  Zn127  1  0.56977379  0.08034846  0.82204423  1
  Zn  Zn128  1  0.54806358  0.58632063  0.32108911  1
  Zn  Zn129  1  0.48760418  0.60143830  0.85262436  1
  Zn  Zn130  1  0.44579470  0.18619083  0.42730291  1
  Zn  Zn131  1  0.44317148  0.19111110  0.93873373  1
  Zn  Zn132  1  0.44279529  0.69119845  0.44268700  1
  Zn  Zn133  1  0.38129204  0.66999973  0.98312260  1
  Zn  Zn134  1  0.94416945  0.17995583  0.45017171  1
  Zn  Zn135  1  0.94994022  0.16696790  0.94978692  1
  Zn  Zn136  1  0.93674303  0.64802037  0.40527390  1
  Zn  Zn137  1  0.94519385  0.68345427  0.93345477  1
  Zn  Zn138  1  0.06125894  0.30672437  0.07249104  1
  Zn  Zn139  1  0.05974851  0.31394008  0.55991819  1
  Zn  Zn140  1  0.05628344  0.80233363  0.06255088  1
  Zn  Zn141  1  0.04860282  0.81277964  0.55506861  1
  Zn  Zn142  1  0.55832255  0.31225788  0.04322910  1
  Zn  Zn143  1  0.44199743  0.32322984  0.55856290  1
  Zn  Zn144  1  0.56719240  0.82154453  0.05420518  1
  Zn  Zn145  1  0.56010465  0.82084463  0.55872026  1
  O  O146  1  0.12130347  0.12054350  0.11910769  1
  O  O147  1  0.12623914  0.09650598  0.61216789  1
  O  O148  1  0.11598426  0.61384508  0.10879800  1
  O  O149  1  0.12128850  0.62008705  0.62327430  1
  O  O150  1  0.61184754  0.14487932  0.13687567  1
  O  O151  1  0.63021949  0.11778983  0.61305114  1
  O  O152  1  0.58991431  0.64186638  0.09240667  1
  O  O153  1  0.61380125  0.63217978  0.61883603  1
  O  O154  1  0.38327934  0.32584001  0.40832671  1
  O  O155  1  0.38016368  0.35963458  0.87335108  1
  O  O156  1  0.38514016  0.88366137  0.38602570  1
  O  O157  1  0.39133109  0.89515366  0.87845003  1
  O  O158  1  0.88103566  0.39131820  0.39196720  1
  O  O159  1  0.88519167  0.38151043  0.87984334  1
  O  O160  1  0.85679703  0.89226463  0.39009867  1
  O  O161  1  0.88415856  0.87682941  0.90183468  1
  O  O162  1  0.26659203  -0.00715860  0.36923432  1
  O  O163  1  0.26499897  0.01521674  0.86772351  1
  O  O164  1  0.24685686  0.51366931  0.37221767  1
  O  O165  1  0.24664090  0.49610491  0.86357220  1
  O  O166  1  0.75608906  0.01560470  0.37333606  1
  O  O167  1  0.74076214  0.01986742  0.86527433  1
  O  O168  1  0.76791506  0.50327642  0.38633553  1
  O  O169  1  0.76439690  0.49059361  0.86461438  1
  O  O170  1  0.24595444  0.48204556  0.14295964  1
  O  O171  1  0.23541097  0.50565998  0.64001778  1
  O  O172  1  0.24950494  1.00050080  0.13762545  1
  O  O173  1  0.27584792  1.00203551  0.64023603  1
  O  O174  1  0.73191355  0.47300221  0.05824996  1
  O  O175  1  0.72817400  0.49739399  0.63689074  1
  O  O176  1  0.75683853  1.01499910  0.13847557  1
  O  O177  1  0.73324745  1.00328497  0.64803027  1
  O  O178  1  0.01299755  0.38216025  0.24883235  1
  O  O179  1  0.02213856  0.37117266  0.74991239  1
  O  O180  1  -0.04877334  0.84704024  0.28228994  1
  O  O181  1  0.04357356  0.91067053  0.77697794  1
  O  O182  1  0.49653895  0.36664501  0.25490764  1
  O  O183  1  0.49746217  0.36071694  0.76359937  1
  O  O184  1  0.50038880  0.87766580  0.26776308  1
  O  O185  1  0.50127181  0.87595033  0.75396021  1
  O  O186  1  0.48947757  0.11690344  0.23760303  1
  O  O187  1  0.49389746  0.14438913  0.75906701  1
  O  O188  1  0.50178844  0.64818058  0.24021535  1
  O  O189  1  0.50459715  0.65628121  0.74411956  1
  O  O190  1  0.99798555  0.11731372  0.22531296  1
  O  O191  1  1.00684611  0.11159994  0.73225064  1
  O  O192  1  1.00845719  0.60665623  0.22721447  1
  O  O193  1  0.99252290  0.62964735  0.74725029  1
  O  O194  1  0.37916444  0.24630179  0.02002243  1
  O  O195  1  0.37683806  0.26842007  0.47242234  1
  O  O196  1  0.39152282  0.78264247  -0.00467303  1
  O  O197  1  0.36800294  0.76080337  0.50458275  1
  O  O198  1  0.88235717  0.25719381  -0.00276445  1
  O  O199  1  0.87157438  0.26106675  0.50609557  1
  O  O200  1  0.85621894  0.73089208  -0.00461177  1
  O  O201  1  0.87546227  0.69228322  0.48593469  1
  O  O202  1  0.12237160  0.24951014  0.49215104  1
  O  O203  1  0.12209829  0.25004992  0.99143517  1
  O  O204  1  0.13058794  0.74333680  0.49527931  1
  O  O205  1  0.12258578  0.72991830  0.99397054  1
  O  O206  1  0.63679822  0.24335499  0.48949927  1
  O  O207  1  0.64105072  0.25483112  0.98969571  1
  O  O208  1  0.62055482  0.74606569  0.49440889  1
  O  O209  1  0.63381072  0.75393624  0.98874945  1
  O  O210  1  0.48988546  0.24514930  0.13329850  1
  O  O211  1  0.50608164  0.25618217  0.63511114  1
  O  O212  1  0.51181290  0.77690790  0.14591827  1
  O  O213  1  0.49449869  0.75663640  0.63340730  1
  O  O214  1  0.98168341  0.25649580  0.13553880  1
  O  O215  1  0.98879240  0.25267042  0.62564681  1
  O  O216  1  0.99700234  0.72207007  0.11863304  1
  O  O217  1  1.01053523  0.73279269  0.63351434  1
  O  O218  1  0.00940958  0.24897663  0.37919026  1
  O  O219  1  0.02016057  0.22340511  0.87343372  1
  O  O220  1  0.00921954  0.73706406  0.37466566  1
  O  O221  1  0.01424534  0.75323819  0.87223525  1
  O  O222  1  0.52425161  0.24808354  0.37314411  1
  O  O223  1  0.51545407  0.26249873  0.88030226  1
  O  O224  1  0.50348354  0.76193108  0.36962756  1
  O  O225  1  0.50293808  0.77239111  0.85615400  1
  O  O226  1  0.22301071  0.10570657  0.48555564  1
  O  O227  1  0.25995709  0.12403915  0.98487748  1
  O  O228  1  0.24006586  0.63824026  0.48408535  1
  O  O229  1  0.23350840  0.60903614  1.00098483  1
  O  O230  1  0.74408872  0.13707971  0.48692338  1
  O  O231  1  0.76229543  0.14436649  0.98898420  1
  O  O232  1  0.72830052  0.62643144  0.51478877  1
  O  O233  1  0.72922396  0.63667887  1.00004400  1
  O  O234  1  0.24023085  0.37771123  0.02058233  1
  O  O235  1  0.25281642  0.37764637  0.50164749  1
  O  O236  1  0.27308108  0.89271511  -0.00532968  1
  O  O237  1  0.25745839  0.86231004  0.48417929  1
  O  O238  1  0.77296579  0.35271995  -0.02106710  1
  O  O239  1  0.75724103  0.36612733  0.50381346  1
  O  O240  1  0.76519837  0.86841030  0.00408749  1
  O  O241  1  0.77424551  0.89867000  0.52711391  1
  O  O242  1  0.13383249  0.48477084  0.25491904  1
  O  O243  1  0.13142917  0.49138918  0.74545808  1
  O  O244  1  0.14618864  1.00329108  0.26601066  1
  O  O245  1  0.15537122  0.99952755  0.74634676  1
  O  O246  1  0.61285108  0.50597715  0.23362759  1
  O  O247  1  0.62873930  0.50117789  0.74676903  1
  O  O248  1  0.64235204  1.00030835  0.25567045  1
  O  O249  1  0.61119088  1.01433242  0.73636875  1
  O  O250  1  0.36888125  0.00920543  0.25592267  1
  O  O251  1  0.38058893  0.01243276  0.76200075  1
  O  O252  1  0.35840782  0.49412636  0.25454284  1
  O  O253  1  0.36015988  0.50685242  0.75080520  1
  O  O254  1  0.85829860  0.00118522  0.26410237  1
  O  O255  1  0.86104050  0.00419264  0.75303324  1
  O  O256  1  0.85814185  0.47057778  0.25136419  1
  O  O257  1  0.88269715  0.49527239  0.76084936  1
  O  O258  1  0.11761838  0.37337367  0.36962738  1
  O  O259  1  0.13110576  0.34897230  0.86477476  1
  O  O260  1  0.10504390  0.85382016  0.37001474  1
  O  O261  1  0.12739040  0.85823826  0.89923574  1
  O  O262  1  0.63095899  0.36796771  0.38396821  1
  O  O263  1  0.63666226  0.36188188  0.87920717  1
  O  O264  1  0.61927898  0.86723795  0.39426108  1
  O  O265  1  0.61488500  0.88705251  0.87910853  1
  O  O266  1  0.38035245  0.13627060  0.13570101  1
  O  O267  1  0.39291662  0.11528885  0.63955433  1
  O  O268  1  0.37122291  0.64187624  0.09346774  1
  O  O269  1  0.38979696  0.64907267  0.62291010  1
  O  O270  1  0.84716137  0.16119449  0.15023465  1
  O  O271  1  0.87767557  0.14232899  0.61689366  1
  O  O272  1  0.88135154  0.60171488  0.13001804  1
  O  O273  1  0.89235147  0.61274347  0.64147844  1
  O  O274  1  0.25609026  0.25548230  0.13045112  1
  O  O275  1  0.26792109  0.20690101  0.60331876  1
  O  O276  1  0.21555238  0.77772936  0.12624241  1
  O  O277  1  0.25616283  0.74701899  0.61251541  1
  O  O278  1  0.75153290  0.26342910  0.10719974  1
  O  O279  1  0.75910983  0.25299846  0.61579539  1
  O  O280  1  0.73572650  0.76441993  0.11001449  1
  O  O281  1  0.74480626  0.76810900  0.64686760  1
  O  O282  1  0.22457859  0.24690508  0.38316623  1
  O  O283  1  0.24819601  0.24030725  0.87111084  1
  O  O284  1  0.23708153  0.73981080  0.37584625  1
  O  O285  1  0.23803665  0.74978296  0.87494899  1
  O  O286  1  0.74146468  0.24115647  0.38092470  1
  O  O287  1  0.74569494  0.24393887  0.87032059  1
  O  O288  1  0.73885620  0.76473887  0.36712280  1
  O  O289  1  0.74895656  0.76307689  0.88446550  1
  O  O290  1  -0.03558893  0.11306387  0.04812121  1
  O  O291  1  0.01675242  0.11854181  0.50945322  1
  O  O292  1  0.00289296  0.60636725  0.00470194  1
  O  O293  1  0.01340250  0.62563422  0.51800430  1
  O  O294  1  0.50027902  0.12204361  0.01548496  1
  O  O295  1  0.51072482  0.11681351  0.49356470  1
  O  O296  1  0.49105964  0.59759482  -0.01484111  1
  O  O297  1  0.50840164  0.62330788  0.51241104  1
  O  O298  1  0.50349205  0.40236137  0.50272672  1
  O  O299  1  0.49968133  0.38528922  0.98383885  1
  O  O300  1  0.49068304  0.88704417  0.49252784  1
  O  O301  1  0.49941686  0.90117552  0.99336881  1
  O  O302  1  0.99124996  0.38862321  0.50603182  1
  O  O303  1  0.99614419  0.38201036  1.00142614  1
  O  O304  1  0.97764291  0.85803602  0.47695623  1
  O  O305  1  0.98729792  0.87610825  1.01422841  1
  O  O306  1  0.49509796  0.51355197  0.38604067  1
  O  O307  1  0.48770636  0.48241531  0.87320370  1
  O  O308  1  0.49563129  0.99561980  0.38300360  1
  O  O309  1  0.50001414  1.01032572  0.88654775  1
  O  O310  1  0.96246308  0.53341874  0.38003153  1
  O  O311  1  0.99709972  0.49688239  0.88313829  1
  O  O312  1  0.98818144  0.97700307  0.35909230  1
  O  O313  1  1.04219218  1.00614976  0.90855376  1
  O  O314  1  0.01653216  -0.01743900  0.14299177  1
  O  O315  1  -0.03836092  -0.02944459  0.60657703  1
  O  O316  1  0.00441830  0.49914769  0.10663229  1
  O  O317  1  0.01936952  0.51536091  0.63741078  1
  O  O318  1  0.50619841  0.01578126  0.11629816  1
  O  O319  1  0.51240309  -0.00457291  0.61170910  1
  O  O320  1  0.48556319  0.49705651  0.10969435  1
  O  O321  1  0.51035559  0.51817816  0.63769549  1
  O  O322  1  0.24193537  0.38248270  0.26002665  1
  O  O323  1  0.23257164  0.38486221  0.74715720  1
  O  O324  1  0.25415640  0.88676876  0.25324112  1
  O  O325  1  0.24843985  0.88942633  0.75843903  1
  O  O326  1  0.67421929  0.46870646  0.24685335  1
  O  O327  1  0.75203979  0.38863741  0.74530003  1
  O  O328  1  0.75352054  0.88777654  0.23079890  1
  O  O329  1  0.74189275  0.89366449  0.76117519  1
  O  O330  1  0.26282179  0.11615480  0.24729059  1
  O  O331  1  0.27117402  0.11747144  0.75419934  1
  O  O332  1  0.24363633  0.60957011  0.26134818  1
  O  O333  1  0.23960482  0.61547684  0.75709857  1
  O  O334  1  0.74329998  0.11889272  0.26629704  1
  O  O335  1  0.74879712  0.12005217  0.75979213  1
  O  O336  1  0.73315877  0.61975586  0.20747475  1
  O  O337  1  0.76431879  0.59659596  0.74576892  1
  O  O338  1  0.38276342  0.11692420  0.36095730  1
  O  O339  1  0.37313313  0.12623286  0.86984945  1
  O  O340  1  0.36003545  0.63646060  0.37766320  1
  O  O341  1  0.38661711  0.64928654  0.87509248  1
  O  O342  1  0.86353721  0.13784009  0.37097040  1
  O  O343  1  0.86352931  0.13360520  0.87437788  1
  O  O344  1  0.85532670  0.61173504  0.32027548  1
  O  O345  1  0.88501562  0.60108551  0.86635748  1
  O  O346  1  0.13694120  0.36667739  0.14173572  1
  O  O347  1  0.12130398  0.38773318  0.63102334  1
  O  O348  1  0.16126112  0.83076267  0.12322857  1
  O  O349  1  0.11890466  0.86998369  0.63730600  1
  O  O350  1  0.60516537  0.35753298  0.13854853  1
  O  O351  1  0.61525428  0.39111745  0.62229265  1
  O  O352  1  0.64772367  0.89381338  0.10713806  1
  O  O353  1  0.62748800  0.88914393  0.62622514  1
  O  O354  1  0.12695751  0.26057243  0.26518573  1
  O  O355  1  0.12852181  0.25471539  0.73978251  1
  O  O356  1  0.12233624  0.73413988  0.26169130  1
  O  O357  1  0.12914119  0.77115502  0.76171034  1
  O  O358  1  0.63333661  0.25713603  0.26269212  1
  O  O359  1  0.61530035  0.24928992  0.75591322  1
  O  O360  1  0.61607108  0.75301239  0.26826866  1
  O  O361  1  0.62470349  0.76582757  0.74690120  1
  O  O362  1  0.36833171  0.23547829  0.24797969  1
  O  O363  1  0.38719751  0.24082167  0.74723890  1
  O  O364  1  0.38958454  0.76056722  0.25287832  1
  O  O365  1  0.38257286  0.76877621  0.74066342  1
  O  O366  1  0.86505152  0.28717956  0.24476569  1
  O  O367  1  0.87859868  0.25611599  0.73455460  1
  O  O368  1  0.84452401  0.73658401  0.22580714  1
  O  O369  1  0.85262360  0.71404469  0.76821963  1
  O  O370  1  0.38756115  0.51123776  0.51047686  1
  O  O371  1  0.37289817  0.48805162  0.99891566  1
  O  O372  1  0.38259467  0.99890046  0.49279427  1
  O  O373  1  0.38817967  1.00560558  0.99247012  1
  O  O374  1  0.86869451  0.49220741  0.51520769  1
  O  O375  1  0.88596987  0.48817620  0.98515394  1
  O  O376  1  0.88464895  1.02847555  0.46804909  1
  O  O377  1  0.86877800  0.99880730  0.99885441  1
  O  O378  1  0.09844222  0.01284168  -0.03466501  1
  O  O379  1  0.11405140  -0.01412382  0.48850489  1
  O  O380  1  0.11512296  0.50121436  -0.00940299  1
  O  O381  1  0.13351457  0.51141930  0.51678463  1
  O  O382  1  0.61938946  0.01078042  -0.00468307  1
  O  O383  1  0.62085653  0.00975626  0.50757868  1
  O  O384  1  0.61388266  0.51571379  -0.01255865  1
  O  O385  1  0.61615874  0.51480898  0.51292638  1
  O  O386  1  0.35938605  0.35887175  0.13596762  1
  O  O387  1  0.37713688  0.37493714  0.63413694  1
  O  O388  1  0.38376327  0.89168357  0.11256690  1
  O  O389  1  0.37972521  0.87082926  0.61008921  1
  O  O390  1  0.87302019  0.36878620  0.10274637  1
  O  O391  1  0.87580203  0.36985654  0.61525717  1
  O  O392  1  0.85967238  0.88352222  0.11305572  1
  O  O393  1  0.91530108  0.83478301  0.74107046  1
  O  O394  1  0.11064125  0.12908952  0.38426757  1
  O  O395  1  0.14754080  0.13472252  0.86619612  1
  O  O396  1  0.12452844  0.62782174  0.38474074  1
  O  O397  1  0.11945969  0.63250899  0.88527316  1
  O  O398  1  0.63232985  0.12784276  0.38430981  1
  O  O399  1  0.63938866  0.14877332  0.87830734  1
  O  O400  1  0.62349114  0.64345379  0.38986827  1
  O  O401  1  0.60038606  0.63783736  0.88685607  1
