# generated using pymatgen
data_V73Zn73O256
_symmetry_space_group_name_H-M   'P 1'
_cell_length_a   16.85040724
_cell_length_b   16.87751360
_cell_length_c   16.85929391
_cell_angle_alpha   89.90724125
_cell_angle_beta   89.98304714
_cell_angle_gamma   90.05219769
_symmetry_Int_Tables_number   1
_chemical_formula_structural   V73Zn73O256
_chemical_formula_sum   'V73 Zn73 O256'
_cell_volume   4794.65630672
_cell_formula_units_Z   1
loop_
 _symmetry_equiv_pos_site_id
 _symmetry_equiv_pos_as_xyz
  1  'x, y, z'
loop_
 _atom_site_type_symbol
 _atom_site_label
 _atom_site_symmetry_multiplicity
 _atom_site_fract_x
 _atom_site_fract_y
 _atom_site_fract_z
 _atom_site_occupancy
  V  V0  1  0.00282585  0.25545087  0.23961969  1
  V  V1  1  0.35933821  0.13242442  0.75230040  1
  V  V2  1  0.88310159  0.01636351  0.37534418  1
  V  V3  1  0.24824168  0.38155298  0.62057477  1
  V  V4  1  0.75451231  0.50986650  0.25931179  1
  V  V5  1  0.50239981  0.75462785  0.73940635  1
  V  V6  1  0.00291455  0.36482900  0.87243820  1
  V  V7  1  0.51475633  0.24995360  0.25807478  1
  V  V8  1  0.63718988  0.62090366  0.48088178  1
  V  V9  1  0.86545541  0.01237415  0.87494080  1
  V  V10  1  0.49941213  -0.00299950  -0.00090441  1
  V  V11  1  0.62443995  0.12917367  -0.00943585  1
  V  V12  1  0.87951706  0.13405882  0.22693372  1
  V  V13  1  0.75904768  0.87486307  0.12436706  1
  V  V14  1  0.37066818  0.00516681  0.87433488  1
  V  V15  1  0.75060588  0.62569304  0.87491428  1
  V  V16  1  0.36902346  0.25983091  0.12502558  1
  V  V17  1  0.37022483  0.11375390  0.26006469  1
  V  V18  1  0.38055448  0.74355687  0.13598819  1
  V  V19  1  0.24885303  0.64365766  0.37434812  1
  V  V20  1  0.23984475  0.24654580  0.49816829  1
  V  V21  1  0.25253464  0.62855381  0.89227564  1
  V  V22  1  0.74353987  0.25279085  -0.00554544  1
  V  V23  1  0.10577137  0.86023329  0.25632970  1
  V  V24  1  0.50787148  0.11958567  0.62075117  1
  V  V25  1  0.62359757  0.75362153  0.87013014  1
  V  V26  1  0.50555557  0.49745004  0.49993248  1
  V  V27  1  0.24478417  0.11090602  0.37730682  1
  V  V28  1  0.62835243  -0.00678584  0.12659671  1
  V  V29  1  -0.00247434  0.38330176  0.37554480  1
  V  V30  1  0.87679264  0.50459176  0.87654891  1
  V  V31  1  0.12464430  0.00894384  0.12320931  1
  V  V32  1  0.61921509  0.37943070  0.75111531  1
  V  V33  1  0.88894631  0.62703979  0.26375758  1
  V  V34  1  0.51332308  0.61722036  0.62265979  1
  V  V35  1  0.88667271  0.88230471  0.48986569  1
  V  V36  1  0.75193635  0.00147241  0.25719540  1
  V  V37  1  -0.01925972  0.87031002  0.87362820  1
  V  V38  1  0.36773741  0.86722486  -0.00076935  1
  V  V39  1  0.12094305  0.36876055  0.75194352  1
  V  V40  1  0.51725133  0.74229508  0.25281202  1
  V  V41  1  0.75567098  0.75420940  0.00107823  1
  V  V42  1  0.87305613  0.37192867  0.00128666  1
  V  V43  1  0.24970752  -0.02689079  0.75279017  1
  V  V44  1  -0.00581916  0.50600848  0.50748105  1
  V  V45  1  0.74243627  0.49979220  0.73494499  1
  V  V46  1  0.12885161  -0.00310175  0.61307428  1
  V  V47  1  0.62038286  0.49795311  0.12940214  1
  V  V48  1  0.87083383  0.25122641  0.64241881  1
  V  V49  1  0.48558304  0.88888906  0.36660370  1
  V  V50  1  0.49269565  0.48585170  -0.01248953  1
  V  V51  1  0.23548326  0.47630000  0.25860139  1
  V  V52  1  0.13417060  0.75865419  0.87377513  1
  V  V53  1  -0.00149419  0.01262387  0.00108900  1
  V  V54  1  0.37711819  0.62328381  0.74038339  1
  V  V55  1  0.37436494  0.37829568  0.48999768  1
  V  V56  1  0.37955110  0.25314659  0.62221609  1
  V  V57  1  0.88734452  0.74192566  0.12742325  1
  V  V58  1  0.49918095  0.12539963  0.12709207  1
  V  V59  1  0.01220053  0.50838826  0.00836580  1
  V  V60  1  0.74357167  0.00357823  0.72993407  1
  V  V61  1  0.75202899  0.37260137  0.13412732  1
  V  V62  1  0.24544539  0.87215087  0.13402450  1
  V  V63  1  0.88698499  0.63065349  0.74214327  1
  V  V64  1  0.51244155  0.36987431  0.37108966  1
  V  V65  1  0.50417092  0.25702529  0.76714573  1
  V  V66  1  0.87732151  0.76455725  0.62779859  1
  V  V67  1  0.74398210  0.76593588  0.49110943  1
  V  V68  1  0.12680409  0.63884769  0.50421993  1
  V  V69  1  0.74048075  0.24384621  0.48528990  1
  V  V70  1  0.25876922  0.85395806  0.61369172  1
  V  V71  1  0.25500392  0.50587477  0.76037411  1
  V  V72  1  0.61600558  0.62465654  0.00518445  1
  Zn  Zn73  1  0.50265196  0.87761420  0.86497244  1
  Zn  Zn74  1  0.74690290  0.13737213  0.86184105  1
  Zn  Zn75  1  -0.00042253  0.13210660  0.63142175  1
  Zn  Zn76  1  0.11973866  0.24807303  0.37160156  1
  Zn  Zn77  1  0.62658631  0.88922797  0.70450862  1
  Zn  Zn78  1  0.86708494  0.37695650  0.50505136  1
  Zn  Zn79  1  0.11814010  0.50947950  0.62907437  1
  Zn  Zn80  1  0.02248436  0.01634536  0.48206272  1
  Zn  Zn81  1  0.37461388  0.50754040  0.35318046  1
  Zn  Zn82  1  0.18835509  0.19487881  0.18733030  1
  Zn  Zn83  1  0.14513221  0.15601464  0.72814121  1
  Zn  Zn84  1  0.19658743  0.68516600  0.19007568  1
  Zn  Zn85  1  0.17069040  0.69151731  0.69410047  1
  Zn  Zn86  1  0.69180531  0.18450274  0.18460642  1
  Zn  Zn87  1  0.69142208  0.19053417  0.68144488  1
  Zn  Zn88  1  0.69215460  0.68484812  0.18887399  1
  Zn  Zn89  1  0.69253220  0.68801493  0.67844850  1
  Zn  Zn90  1  0.31561891  0.30573534  0.30699323  1
  Zn  Zn91  1  0.30104703  0.30960435  0.80311216  1
  Zn  Zn92  1  0.31619140  0.81959963  0.31482253  1
  Zn  Zn93  1  0.32243865  0.80449007  0.81333722  1
  Zn  Zn94  1  0.81885125  0.31130285  0.31986156  1
  Zn  Zn95  1  0.80624609  0.31993193  0.81310264  1
  Zn  Zn96  1  0.81669048  0.81359714  0.31064004  1
  Zn  Zn97  1  0.80478440  0.82138601  0.80624326  1
  Zn  Zn98  1  0.17477154  0.44099626  0.43596158  1
  Zn  Zn99  1  0.17799469  0.41504312  0.96295270  1
  Zn  Zn100  1  0.19816861  0.91819117  0.43577803  1
  Zn  Zn101  1  0.18276041  0.93905607  0.94124659  1
  Zn  Zn102  1  0.69228514  0.42977654  0.44165791  1
  Zn  Zn103  1  0.68142737  0.43681030  0.93660411  1
  Zn  Zn104  1  0.64204501  0.93299448  0.50619890  1
  Zn  Zn105  1  0.68679001  0.93631895  0.93818058  1
  Zn  Zn106  1  0.31042463  0.06234367  0.06818950  1
  Zn  Zn107  1  0.30858834  0.06205244  0.56650834  1
  Zn  Zn108  1  0.32104470  0.55744870  0.07410434  1
  Zn  Zn109  1  0.31487736  0.56937371  0.55560337  1
  Zn  Zn110  1  0.81286623  0.06354381  0.05638318  1
  Zn  Zn111  1  0.82021926  0.07633421  0.56227530  1
  Zn  Zn112  1  0.81260569  0.56264704  0.06590210  1
  Zn  Zn113  1  0.81696775  0.56815689  0.55931853  1
  Zn  Zn114  1  0.42984555  0.44216400  0.18509545  1
  Zn  Zn115  1  0.43805759  0.43730888  0.68515400  1
  Zn  Zn116  1  0.43953755  0.93198657  0.19013437  1
  Zn  Zn117  1  0.43299678  0.94405034  0.59998170  1
  Zn  Zn118  1  0.93561281  0.44228018  0.19120455  1
  Zn  Zn119  1  0.93171168  0.43648703  0.68622394  1
  Zn  Zn120  1  0.93957633  0.93590979  0.18636482  1
  Zn  Zn121  1  0.93261750  0.93798875  0.68989008  1
  Zn  Zn122  1  0.06528933  0.06300139  0.29793808  1
  Zn  Zn123  1  0.03942393  0.02283595  0.78454296  1
  Zn  Zn124  1  0.07004703  0.56588412  0.31662711  1
  Zn  Zn125  1  0.07047615  0.56277839  0.81904101  1
  Zn  Zn126  1  0.56388229  0.05814794  0.31131067  1
  Zn  Zn127  1  0.55724982  0.06379506  0.80018494  1
  Zn  Zn128  1  0.56061795  0.55822353  0.30754420  1
  Zn  Zn129  1  0.56119612  0.56257756  0.81620980  1
  Zn  Zn130  1  0.43712568  0.18355404  0.44050021  1
  Zn  Zn131  1  0.42409211  0.19151067  0.93694538  1
  Zn  Zn132  1  0.44608844  0.67713260  0.41753587  1
  Zn  Zn133  1  0.43589229  0.68130329  0.93192023  1
  Zn  Zn134  1  0.93976267  0.19512268  0.44848961  1
  Zn  Zn135  1  0.93731543  0.18856840  0.93905856  1
  Zn  Zn136  1  0.94459218  0.69431992  0.43767565  1
  Zn  Zn137  1  0.94819022  0.68969702  0.94331615  1
  Zn  Zn138  1  0.06321136  0.35946391  0.09162938  1
  Zn  Zn139  1  0.05354499  0.31679989  0.56665769  1
  Zn  Zn140  1  0.06392727  0.81507105  0.04654701  1
  Zn  Zn141  1  0.06499279  0.81977290  0.57155225  1
  Zn  Zn142  1  0.55984195  0.31279168  0.06446638  1
  Zn  Zn143  1  0.57365205  0.31346574  0.56807570  1
  Zn  Zn144  1  0.56421652  0.80992238  0.06510210  1
  Zn  Zn145  1  0.55142344  0.80094625  0.54079548  1
  O  O146  1  0.13173376  0.10735912  0.13269332  1
  O  O147  1  0.14957291  0.09754787  0.62266566  1
  O  O148  1  0.17237882  0.58517599  0.12663729  1
  O  O149  1  0.12747748  0.62466141  0.61148300  1
  O  O150  1  0.61598850  0.11588441  0.11793007  1
  O  O151  1  0.60658351  0.13462057  0.63060136  1
  O  O152  1  0.63669809  0.61068654  0.11369615  1
  O  O153  1  0.61757573  0.62083514  0.61428745  1
  O  O154  1  0.38246191  0.37132154  0.38226882  1
  O  O155  1  0.28202459  0.37790491  0.91959236  1
  O  O156  1  0.38590234  0.87458329  0.38474402  1
  O  O157  1  0.38210340  0.87877455  0.88661579  1
  O  O158  1  0.89032348  0.37365614  0.38404842  1
  O  O159  1  0.88249614  0.38638183  0.87685472  1
  O  O160  1  0.87451655  0.88471039  0.38577273  1
  O  O161  1  0.87568015  0.88646345  0.87387439  1
  O  O162  1  0.25078322  0.01336184  0.38526271  1
  O  O163  1  0.26273237  -0.01481551  0.86799693  1
  O  O164  1  0.25119706  0.49155281  0.36573556  1
  O  O165  1  0.25353662  0.51303908  0.86157673  1
  O  O166  1  0.76200557  -0.00154523  0.35642616  1
  O  O167  1  0.76023686  0.00496975  0.88539296  1
  O  O168  1  0.74325072  0.49007229  0.35570735  1
  O  O169  1  0.75858812  0.51065925  0.87366516  1
  O  O170  1  0.22768914  0.52702643  0.13801849  1
  O  O171  1  0.25301056  0.48802928  0.62457876  1
  O  O172  1  0.23567784  0.98601739  0.11429391  1
  O  O173  1  0.24865208  0.98314517  0.63893175  1
  O  O174  1  0.74349837  0.49165328  0.13070068  1
  O  O175  1  0.75207483  0.50951179  0.63718499  1
  O  O176  1  0.74703015  0.99244242  0.12406421  1
  O  O177  1  0.75178300  1.00604475  0.63016521  1
  O  O178  1  -0.01173583  0.36655111  0.26321850  1
  O  O179  1  0.01118364  0.38467419  0.75962826  1
  O  O180  1  0.00455521  0.86751806  0.24960211  1
  O  O181  1  0.00521621  0.90350876  0.77451736  1
  O  O182  1  0.49733313  0.36129421  0.26058368  1
  O  O183  1  0.50329661  0.36854876  0.75255311  1
  O  O184  1  0.50297269  0.86882239  0.26046574  1
  O  O185  1  0.50905773  0.85651191  0.74591452  1
  O  O186  1  0.49472952  0.13157282  0.24939209  1
  O  O187  1  0.48854115  0.14461015  0.74528558  1
  O  O188  1  0.50288069  0.64047089  0.25280250  1
  O  O189  1  0.49670186  0.62363710  0.74064477  1
  O  O190  1  0.98860745  0.13853100  0.24707729  1
  O  O191  1  1.03655449  0.12693926  0.74276394  1
  O  O192  1  0.98830049  0.61691705  0.25221208  1
  O  O193  1  0.98429711  0.61966732  0.75911193  1
  O  O194  1  0.40614514  0.24436066  0.03140957  1
  O  O195  1  0.36923378  0.26062009  0.50476997  1
  O  O196  1  0.38946512  0.76521754  0.00704252  1
  O  O197  1  0.38112810  0.74472902  0.50442278  1
  O  O198  1  0.86493430  0.26442952  -0.00462230  1
  O  O199  1  0.86234864  0.25529631  0.50663285  1
  O  O200  1  0.86214883  0.74024387  0.01118043  1
  O  O201  1  0.86618605  0.76846343  0.50561438  1
  O  O202  1  0.13981595  0.25421809  0.50850426  1
  O  O203  1  0.19018129  0.16429848  0.99261311  1
  O  O204  1  0.11290224  0.73841569  0.50326824  1
  O  O205  1  0.09799954  0.73605231  0.96987761  1
  O  O206  1  0.63746347  0.25170842  0.50255332  1
  O  O207  1  0.62990265  0.24019000  1.00736799  1
  O  O208  1  0.63835071  0.73176500  0.50191156  1
  O  O209  1  0.63168656  0.74228736  0.99512441  1
  O  O210  1  0.50409727  0.24200726  0.14354661  1
  O  O211  1  0.48820615  0.25054235  0.62895157  1
  O  O212  1  0.49018778  0.76218716  0.13784363  1
  O  O213  1  0.51048906  0.73549729  0.63546703  1
  O  O214  1  0.99999401  0.27536154  0.14024658  1
  O  O215  1  0.98484596  0.25077719  0.62478547  1
  O  O216  1  0.98434738  0.75606006  0.11237782  1
  O  O217  1  0.97742900  0.75550680  0.61769521  1
  O  O218  1  -0.00052770  0.25647041  0.36758847  1
  O  O219  1  -0.00353780  0.26641434  0.87651322  1
  O  O220  1  0.00336557  0.77826575  0.39612206  1
  O  O221  1  -0.01756699  0.76820271  0.86906104  1
  O  O222  1  0.49700014  0.25666142  0.36817261  1
  O  O223  1  0.49503031  0.25053053  0.86535927  1
  O  O224  1  0.49771316  0.75782805  0.35781258  1
  O  O225  1  0.50970273  0.74411695  0.86163166  1
  O  O226  1  0.25771443  0.13880135  0.48976807  1
  O  O227  1  0.25140215  0.11079267  0.97784178  1
  O  O228  1  0.23638992  0.62333141  0.49328174  1
  O  O229  1  0.26651227  0.62066655  0.98925304  1
  O  O230  1  0.75630604  0.14196272  0.49852751  1
  O  O231  1  0.74032107  0.13758817  1.00374673  1
  O  O232  1  0.73911362  0.61808956  0.49266880  1
  O  O233  1  0.74342324  0.63167079  0.99107510  1
  O  O234  1  0.28957550  0.30550389  -0.04219327  1
  O  O235  1  0.25549379  0.36929728  0.50245688  1
  O  O236  1  0.26460698  0.87443726  0.00316774  1
  O  O237  1  0.25705322  0.86156910  0.51250578  1
  O  O238  1  0.75385732  0.37122339  0.00384283  1
  O  O239  1  0.75266965  0.36206559  0.50240908  1
  O  O240  1  0.74609145  0.86301926  0.00866870  1
  O  O241  1  0.74272209  0.86858458  0.49960301  1
  O  O242  1  0.13509612  0.49540715  0.25385776  1
  O  O243  1  0.13928121  0.49613081  0.74725131  1
  O  O244  1  0.11255992  0.98197764  0.22697400  1
  O  O245  1  0.15300568  1.00558359  0.75718203  1
  O  O246  1  0.63717012  0.50608249  0.23602438  1
  O  O247  1  0.63496626  0.49962095  0.75134860  1
  O  O248  1  0.64327813  1.01250606  0.24005382  1
  O  O249  1  0.63631619  0.99658898  0.75447664  1
  O  O250  1  0.37664732  0.01516175  0.24484735  1
  O  O251  1  0.35529478  0.01375623  0.75647950  1
  O  O252  1  0.34921457  0.49888630  0.23911014  1
  O  O253  1  0.36356013  0.50465019  0.74551465  1
  O  O254  1  0.87402756  0.01176658  0.25374432  1
  O  O255  1  0.85801381  -0.00136774  0.76356830  1
  O  O256  1  0.86473937  0.51461640  0.24513356  1
  O  O257  1  0.86444877  0.51151131  0.75609863  1
  O  O258  1  0.10561556  0.36592096  0.38220432  1
  O  O259  1  0.11151146  0.38269490  0.86603185  1
  O  O260  1  0.13410266  0.88005691  0.35172143  1
  O  O261  1  0.12609586  0.86220207  0.87587870  1
  O  O262  1  0.61020168  0.37577932  0.37477542  1
  O  O263  1  0.62738653  0.38161939  0.85559999  1
  O  O264  1  0.55806143  0.87328494  0.44420651  1
  O  O265  1  0.62138161  0.85898860  0.88162824  1
  O  O266  1  0.38772934  0.12303244  0.13585574  1
  O  O267  1  0.37370093  0.13894667  0.63574968  1
  O  O268  1  0.37549469  0.64575991  0.12358260  1
  O  O269  1  0.38886150  0.62022411  0.63229400  1
  O  O270  1  0.88032022  0.12663431  0.12769690  1
  O  O271  1  0.87989517  0.13958100  0.63435593  1
  O  O272  1  0.87144727  0.63705006  0.13239671  1
  O  O273  1  0.87694690  0.63161620  0.63866011  1
  O  O274  1  0.27050259  0.23367116  0.12225470  1
  O  O275  1  0.26173826  0.26496535  0.61272179  1
  O  O276  1  0.26521997  0.76405599  0.12497650  1
  O  O277  1  0.24440476  0.75615297  0.63631468  1
  O  O278  1  0.74342611  0.26707718  0.11784360  1
  O  O279  1  0.76348860  0.24926123  0.61897483  1
  O  O280  1  0.75356748  0.75760958  0.11857687  1
  O  O281  1  0.76490923  0.73965045  0.60551388  1
  O  O282  1  0.24675343  0.24902176  0.38885708  1
  O  O283  1  0.31023655  0.24945826  0.90246638  1
  O  O284  1  0.25430442  0.74331386  0.37371386  1
  O  O285  1  0.24478583  0.74137567  0.87493652  1
  O  O286  1  0.74699123  0.25238372  0.38209599  1
  O  O287  1  0.74801468  0.25287283  0.88846590  1
  O  O288  1  0.75834190  0.75387255  0.39171356  1
  O  O289  1  0.74490288  0.74483652  0.88001070  1
  O  O290  1  0.00020556  0.11339220  -0.00170930  1
  O  O291  1  -0.00633985  0.11907125  0.51428796  1
  O  O292  1  -0.01264364  0.60600032  0.00805561  1
  O  O293  1  0.00930352  0.61319045  0.49114801  1
  O  O294  1  0.50425005  0.11355660  0.00851785  1
  O  O295  1  0.48927349  0.12550438  0.52037756  1
  O  O296  1  0.51183734  0.61994329  -0.00296197  1
  O  O297  1  0.50982742  0.61687592  0.50143511  1
  O  O298  1  0.49614844  0.37799213  0.48939292  1
  O  O299  1  0.50858421  0.38650884  0.99704360  1
  O  O300  1  0.42344898  0.80454658  0.52060521  1
  O  O301  1  0.49414541  0.88851969  1.00500041  1
  O  O302  1  0.99761314  0.38852864  0.49397431  1
  O  O303  1  0.99063416  0.38456814  0.98312264  1
  O  O304  1  0.98640994  0.89195210  0.50586917  1
  O  O305  1  1.00360617  0.88967067  0.97831345  1
  O  O306  1  0.49404150  0.48598088  0.37499190  1
  O  O307  1  0.49512864  0.50407458  0.88730685  1
  O  O308  1  0.49283788  0.99048126  0.36266283  1
  O  O309  1  0.49143235  0.99705539  0.88098404  1
  O  O310  1  1.00494135  0.48922365  0.38254266  1
  O  O311  1  0.98836448  0.50036190  0.88170274  1
  O  O312  1  0.98776931  1.00644528  0.36922501  1
  O  O313  1  0.98291955  1.00217909  0.88484439  1
  O  O314  1  0.00709778  -0.00819404  0.10885667  1
  O  O315  1  0.02422319  -0.00502352  0.63513913  1
  O  O316  1  0.01029173  0.46996321  0.10777962  1
  O  O317  1  -0.00086409  0.49769030  0.61362498  1
  O  O318  1  0.50808054  0.00554482  0.12178054  1
  O  O319  1  0.49609078  0.02209025  0.64983705  1
  O  O320  1  0.51777843  0.49246276  0.12651539  1
  O  O321  1  0.49829346  0.50365095  0.61049748  1
  O  O322  1  0.24201177  0.37509076  0.25127610  1
  O  O323  1  0.24394044  0.38836560  0.74462320  1
  O  O324  1  0.25061268  0.87911923  0.23484607  1
  O  O325  1  0.25036868  0.87244162  0.75267946  1
  O  O326  1  0.76290370  0.38289934  0.23683541  1
  O  O327  1  0.74147522  0.39389857  0.75134676  1
  O  O328  1  0.75907167  0.89179939  0.23973052  1
  O  O329  1  0.73980622  0.89109960  0.74487409  1
  O  O330  1  0.26206664  0.13022154  0.26329198  1
  O  O331  1  0.25960099  0.14806387  0.75613551  1
  O  O332  1  0.24363014  0.61940331  0.27321058  1
  O  O333  1  0.25728751  0.61257132  0.74003878  1
  O  O334  1  0.76679277  0.11347908  0.23792389  1
  O  O335  1  0.73936639  0.11066731  0.75157131  1
  O  O336  1  0.75675813  0.61426629  0.25222181  1
  O  O337  1  0.75380290  0.61794145  0.75866852  1
  O  O338  1  0.36758397  0.12823574  0.36579939  1
  O  O339  1  0.38255060  0.11173998  0.86648020  1
  O  O340  1  0.35556560  0.61604587  0.39093365  1
  O  O341  1  0.36125896  0.63301812  0.85660650  1
  O  O342  1  0.87402882  0.11564314  0.37088376  1
  O  O343  1  0.86896790  0.11686788  0.87710978  1
  O  O344  1  0.87794851  0.63566112  0.36309258  1
  O  O345  1  0.86707344  0.62363732  0.86769865  1
  O  O346  1  0.16572312  0.35442181  0.05574549  1
  O  O347  1  0.13104508  0.37820133  0.63785317  1
  O  O348  1  0.13656826  0.87223143  0.12254781  1
  O  O349  1  0.14253889  0.88347229  0.62774489  1
  O  O350  1  0.63967063  0.38820556  0.12002390  1
  O  O351  1  0.61859794  0.38102024  0.64693684  1
  O  O352  1  0.63465032  0.88777422  0.12144699  1
  O  O353  1  0.58815706  0.89256406  0.59898360  1
  O  O354  1  0.10760011  0.24503218  0.24925981  1
  O  O355  1  0.13957110  0.27158861  0.75570580  1
  O  O356  1  0.12707819  0.76211846  0.23648987  1
  O  O357  1  0.10770814  0.73468831  0.77655860  1
  O  O358  1  0.61401640  0.23746718  0.25442091  1
  O  O359  1  0.61155230  0.26170006  0.75057783  1
  O  O360  1  0.61754623  0.75215472  0.24070029  1
  O  O361  1  0.61962950  0.74222467  0.75612235  1
  O  O362  1  0.38687894  0.23655071  0.24201390  1
  O  O363  1  0.38395545  0.25430088  0.74329851  1
  O  O364  1  0.37979132  0.75663837  0.23816825  1
  O  O365  1  0.39541465  0.74010064  0.75066272  1
  O  O366  1  0.87905332  0.23807070  0.24759204  1
  O  O367  1  0.86707735  0.25592296  0.74457961  1
  O  O368  1  0.87149992  0.73950233  0.23840533  1
  O  O369  1  0.86442372  0.74284443  0.73819617  1
  O  O370  1  0.38631775  0.48885781  0.49836079  1
  O  O371  1  0.39599204  0.49818892  1.01730862  1
  O  O372  1  0.38195194  0.99596949  0.51422533  1
  O  O373  1  0.38094247  0.99382337  0.99427059  1
  O  O374  1  0.88880215  0.50289518  0.50109656  1
  O  O375  1  0.87445143  0.49228724  0.99141403  1
  O  O376  1  0.86502764  0.99359993  0.48550803  1
  O  O377  1  0.88459620  1.00125120  0.99085405  1
  O  O378  1  0.11292703  -0.00006831  0.00791344  1
  O  O379  1  0.13140398  -0.01264343  0.50800537  1
  O  O380  1  0.10956705  0.50569309  -0.01537545  1
  O  O381  1  0.11258201  0.50684117  0.50672593  1
  O  O382  1  0.61834559  0.00641935  0.00728480  1
  O  O383  1  0.63091186  0.05097336  0.47634916  1
  O  O384  1  0.61756547  0.50634014  0.00749956  1
  O  O385  1  0.61469871  0.50661046  0.49026482  1
  O  O386  1  0.37367505  0.35957889  0.13256747  1
  O  O387  1  0.36948282  0.37132075  0.61438836  1
  O  O388  1  0.36639771  0.87736880  0.11390776  1
  O  O389  1  0.35976886  0.86802093  0.63915561  1
  O  O390  1  0.86061222  0.38521062  0.11228661  1
  O  O391  1  0.87776676  0.36231487  0.62323336  1
  O  O392  1  0.86569365  0.86202054  0.12839790  1
  O  O393  1  0.87066132  0.87117211  0.61681434  1
  O  O394  1  0.14048768  0.12522642  0.36540516  1
  O  O395  1  0.15068342  0.18431952  0.93191717  1
  O  O396  1  0.13660309  0.62522348  0.38980411  1
  O  O397  1  0.14912528  0.62499758  0.87525167  1
  O  O398  1  0.63249098  0.08774038  0.41020921  1
  O  O399  1  0.62235056  0.11847048  0.88840488  1
  O  O400  1  0.62266014  0.62288621  0.38249563  1
  O  O401  1  0.63370224  0.63249032  0.88284706  1
