# generated using pymatgen
data_V73Zn73O256
_symmetry_space_group_name_H-M   'P 1'
_cell_length_a   16.86964070
_cell_length_b   16.99193810
_cell_length_c   16.95590000
_cell_angle_alpha   89.71821478
_cell_angle_beta   89.38793928
_cell_angle_gamma   89.67890612
_symmetry_Int_Tables_number   1
_chemical_formula_structural   V73Zn73O256
_chemical_formula_sum   'V73 Zn73 O256'
_cell_volume   4859.96196715
_cell_formula_units_Z   1
loop_
 _symmetry_equiv_pos_site_id
 _symmetry_equiv_pos_as_xyz
  1  'x, y, z'
loop_
 _atom_site_type_symbol
 _atom_site_label
 _atom_site_symmetry_multiplicity
 _atom_site_fract_x
 _atom_site_fract_y
 _atom_site_fract_z
 _atom_site_occupancy
  V  V0  1  0.49164441  0.12368066  0.13373779  1
  V  V1  1  -0.00209552  0.75478765  0.28016421  1
  V  V2  1  0.37539112  0.12220912  0.76308828  1
  V  V3  1  0.00285964  0.85772270  0.87708419  1
  V  V4  1  0.12228929  0.64111728  -0.00419358  1
  V  V5  1  0.50722971  0.12843304  0.63061806  1
  V  V6  1  0.63601157  0.85736320  0.24729771  1
  V  V7  1  0.86677248  0.74967877  0.12540326  1
  V  V8  1  0.73118935  0.62653113  0.37072331  1
  V  V9  1  0.75644238  0.87108295  0.62695204  1
  V  V10  1  0.35639151  0.12063459  0.25656856  1
  V  V11  1  0.49366382  -0.00114237  0.00007858  1
  V  V12  1  0.23434650  0.12368759  0.88469629  1
  V  V13  1  0.38398276  0.64053047  0.24522917  1
  V  V14  1  0.54269721  0.33565649  0.34962578  1
  V  V15  1  0.63372678  0.49389391  0.14889552  1
  V  V16  1  0.87979968  0.24804655  0.63291712  1
  V  V17  1  0.73637419  0.74902941  -0.00496467  1
  V  V18  1  0.50781052  0.86490226  0.87776324  1
  V  V19  1  0.12293600  -0.00440416  0.62612663  1
  V  V20  1  0.26163212  0.75475548  0.48944185  1
  V  V21  1  0.73333970  0.75264864  0.48900742  1
  V  V22  1  0.00360202  0.47363018  0.50062142  1
  V  V23  1  0.37545556  0.50408079  0.87748229  1
  V  V24  1  0.50341699  0.37804601  0.88235458  1
  V  V25  1  0.87116053  0.49991611  0.39563629  1
  V  V26  1  0.87169749  0.61741821  0.25589549  1
  V  V27  1  -0.00219063  0.62747792  0.12327112  1
  V  V28  1  0.73260755  0.24091349  0.50664012  1
  V  V29  1  0.62945832  0.00011582  0.13454940  1
  V  V30  1  0.87110767  0.87071017  0.00128798  1
  V  V31  1  0.37464829  0.24945500  0.13033467  1
  V  V32  1  0.11879976  0.00891877  0.11047538  1
  V  V33  1  -0.01087131  0.00562911  0.48628094  1
  V  V34  1  0.24068081  0.49760312  0.74744932  1
  V  V35  1  0.37068386  -0.00976435  0.88647291  1
  V  V36  1  0.62318670  0.12612888  0.00242422  1
  V  V37  1  0.37720057  0.75324573  0.10870328  1
  V  V38  1  0.12596431  0.35107521  0.74625124  1
  V  V39  1  0.24599911  0.63768485  0.87719400  1
  V  V40  1  0.23403747  0.24741920  -0.00191153  1
  V  V41  1  0.13054090  0.26991632  0.36835724  1
  V  V42  1  0.24065012  -0.02354270  0.25503386  1
  V  V43  1  0.37122096  0.37635520  0.00276102  1
  V  V44  1  0.24036555  0.52095620  0.25026066  1
  V  V45  1  0.78237292  0.50130634  0.75965410  1
  V  V46  1  -0.01128815  0.22985213  0.26450601  1
  V  V47  1  0.01200224  0.39689813  0.88401187  1
  V  V48  1  -0.00687584  0.12262234  0.64014991  1
  V  V49  1  0.12155895  0.12872010  0.48650100  1
  V  V50  1  0.74838319  0.00127411  0.75287521  1
  V  V51  1  0.24461401  0.37697575  0.13432157  1
  V  V52  1  0.62284018  0.86421782  0.74832764  1
  V  V53  1  0.49813792  0.00920615  0.49815271  1
  V  V54  1  0.24773571  -0.00694634  0.75016576  1
  V  V55  1  0.62741383  0.38885942  0.75218363  1
  V  V56  1  0.36975193  0.49923944  0.37012051  1
  V  V57  1  0.87860072  -0.00486725  0.87523802  1
  V  V58  1  0.38836640  0.62680600  0.74070289  1
  V  V59  1  0.36133344  0.90172703  0.48133647  1
  V  V60  1  0.51341499  0.51140030  0.01066298  1
  V  V61  1  0.11691296  0.62784525  0.49971680  1
  V  V62  1  0.62741150  0.24993819  0.88021044  1
  V  V63  1  0.48230613  0.26203137  0.75091863  1
  V  V64  1  0.24347997  0.86702846  0.10035834  1
  V  V65  1  0.86666676  0.88574252  0.48121511  1
  V  V66  1  0.75593643  0.38191060  0.62207912  1
  V  V67  1  0.11799783  0.49993657  0.11895299  1
  V  V68  1  0.37724597  0.77895722  0.63182168  1
  V  V69  1  0.75316559  0.12109623  0.87352509  1
  V  V70  1  0.75408719  0.62123443  0.88044526  1
  V  V71  1  0.12825662  0.86013138  0.74519495  1
  V  V72  1  -0.01701844  0.74916084  0.72494953  1
  Zn  Zn73  1  0.63035783  0.00645598  0.62127882  1
  Zn  Zn74  1  0.60693003  0.58538301  0.54461800  1
  Zn  Zn75  1  0.56139906  0.69324235  0.67673153  1
  Zn  Zn76  1  0.30216801  0.06262655  0.41774466  1
  Zn  Zn77  1  0.36999416  0.36407884  0.48895814  1
  Zn  Zn78  1  0.73737663  0.35559270  0.11563544  1
  Zn  Zn79  1  0.79842765  0.26046249  -0.00665637  1
  Zn  Zn80  1  0.48391328  0.49664122  0.49753507  1
  Zn  Zn81  1  0.36184555  0.25676801  0.61670887  1
  Zn  Zn82  1  0.17517220  0.18788756  0.18916550  1
  Zn  Zn83  1  0.17862092  0.17882143  0.69828880  1
  Zn  Zn84  1  0.18117329  0.70345064  0.19413845  1
  Zn  Zn85  1  0.19838991  0.67818929  0.67008715  1
  Zn  Zn86  1  0.82291806  0.22648137  0.18729681  1
  Zn  Zn87  1  0.68626244  0.19565741  0.69300221  1
  Zn  Zn88  1  0.67621035  0.68230800  0.18661522  1
  Zn  Zn89  1  0.76253661  0.64291889  0.63589545  1
  Zn  Zn90  1  0.30949840  0.31026183  0.31403475  1
  Zn  Zn91  1  0.31086812  0.31508196  0.80929055  1
  Zn  Zn92  1  0.44447972  0.80983945  0.31879944  1
  Zn  Zn93  1  0.32041422  0.81226093  0.81038951  1
  Zn  Zn94  1  0.75274784  0.33008522  0.32550098  1
  Zn  Zn95  1  0.80924097  0.30978551  0.81129835  1
  Zn  Zn96  1  0.81606435  0.81159296  0.31035058  1
  Zn  Zn97  1  0.81141341  0.80553772  0.81371332  1
  Zn  Zn98  1  0.19144081  0.43965305  0.44062057  1
  Zn  Zn99  1  0.18498886  0.44334373  0.93687988  1
  Zn  Zn100  1  0.17247737  0.92595058  0.43581566  1
  Zn  Zn101  1  0.17801697  0.93195565  0.93369175  1
  Zn  Zn102  1  0.67893623  0.44235441  0.43683996  1
  Zn  Zn103  1  0.69833618  0.43571679  0.94197268  1
  Zn  Zn104  1  0.65551020  0.90807479  0.45131587  1
  Zn  Zn105  1  0.68474009  0.93574248  0.94092646  1
  Zn  Zn106  1  0.30219215  0.06023937  0.06781758  1
  Zn  Zn107  1  0.29358711  0.10492730  0.58602529  1
  Zn  Zn108  1  0.30903562  0.56950099  0.06440642  1
  Zn  Zn109  1  0.29235311  0.56420880  0.56116831  1
  Zn  Zn110  1  0.80866305  0.05576051  0.05709513  1
  Zn  Zn111  1  0.80843721  0.06736541  0.56376777  1
  Zn  Zn112  1  0.78168999  0.57473647  0.08362246  1
  Zn  Zn113  1  0.95667258  0.60580557  0.63080738  1
  Zn  Zn114  1  0.43880746  0.43839784  0.19420309  1
  Zn  Zn115  1  0.39399447  0.43268935  0.66853653  1
  Zn  Zn116  1  0.42301685  0.93385177  0.18129290  1
  Zn  Zn117  1  0.44545347  0.94735417  0.69780151  1
  Zn  Zn118  1  0.88437801  0.40112731  0.24176365  1
  Zn  Zn119  1  0.95162447  0.42402779  0.68311679  1
  Zn  Zn120  1  0.94613055  0.92845179  0.18595021  1
  Zn  Zn121  1  0.93739751  0.93420229  0.69125070  1
  Zn  Zn122  1  0.06489789  0.05411892  0.30262436  1
  Zn  Zn123  1  0.06190349  0.04902113  0.81799586  1
  Zn  Zn124  1  0.05934358  0.57097437  0.31995793  1
  Zn  Zn125  1  0.05557617  0.57256585  0.80605879  1
  Zn  Zn126  1  0.53604442  -0.01937068  0.31075315  1
  Zn  Zn127  1  0.56344091  0.06049056  0.81595365  1
  Zn  Zn128  1  0.55085983  0.56463711  0.30841867  1
  Zn  Zn129  1  0.56696668  0.56984053  0.82198520  1
  Zn  Zn130  1  0.45234802  0.19698729  0.43454461  1
  Zn  Zn131  1  0.42970879  0.18758489  0.93671031  1
  Zn  Zn132  1  0.42091464  0.66119222  0.44376500  1
  Zn  Zn133  1  0.43721351  0.68700693  0.93811713  1
  Zn  Zn134  1  0.94113643  0.28236188  0.45452510  1
  Zn  Zn135  1  0.93324907  0.18468045  0.81371825  1
  Zn  Zn136  1  0.91017729  0.67692352  0.47346977  1
  Zn  Zn137  1  0.93374388  0.68312689  0.93461199  1
  Zn  Zn138  1  0.05019762  0.31832398  0.06776386  1
  Zn  Zn139  1  0.19441367  0.29925119  0.55922263  1
  Zn  Zn140  1  0.06031907  0.81385700  0.06896500  1
  Zn  Zn141  1  0.06673733  0.81737913  0.54258534  1
  Zn  Zn142  1  0.56027470  0.31279081  0.07062297  1
  Zn  Zn143  1  0.56121155  0.36079466  0.54950106  1
  Zn  Zn144  1  0.55833975  0.81845787  0.06978002  1
  Zn  Zn145  1  0.51782950  0.78438589  0.50496329  1
  O  O146  1  0.13356810  0.10898441  0.12149978  1
  O  O147  1  0.10986031  0.11504052  0.62445817  1
  O  O148  1  0.11896000  0.62632324  0.11273055  1
  O  O149  1  0.17993018  0.59947694  0.58490674  1
  O  O150  1  0.60726612  0.11374993  0.11235166  1
  O  O151  1  0.61057836  0.12519902  0.64100171  1
  O  O152  1  0.63932466  0.59663993  0.12508727  1
  O  O153  1  0.64753205  0.63423937  0.63365351  1
  O  O154  1  0.35950726  0.39400533  0.36813810  1
  O  O155  1  0.38207562  0.38400729  0.88448437  1
  O  O156  1  0.37147860  0.89229890  0.38461122  1
  O  O157  1  0.39016771  0.88451927  0.86728838  1
  O  O158  1  0.85752762  0.40194842  0.36246185  1
  O  O159  1  0.90527849  0.34291768  0.87263188  1
  O  O160  1  0.85618619  0.89242817  0.38284171  1
  O  O161  1  0.88201104  0.87357214  0.88088842  1
  O  O162  1  0.23231375  -0.00863111  0.36154109  1
  O  O163  1  0.25293230  0.00172705  0.87233818  1
  O  O164  1  0.24411609  0.49994415  0.35159951  1
  O  O165  1  0.25931701  0.50886022  0.86829122  1
  O  O166  1  0.76450335  0.03305899  0.33977274  1
  O  O167  1  0.75554679  0.00187567  0.87185172  1
  O  O168  1  0.75444949  0.52175184  0.39519877  1
  O  O169  1  0.75704227  0.50777091  0.86930630  1
  O  O170  1  0.24161048  0.49697755  0.13247408  1
  O  O171  1  0.28259065  0.48600335  0.65282206  1
  O  O172  1  0.24238330  0.98289072  0.12861202  1
  O  O173  1  0.23798041  1.01464353  0.64452489  1
  O  O174  1  0.74025046  0.48229486  0.13308328  1
  O  O175  1  0.76042602  0.48151285  0.64987133  1
  O  O176  1  0.72770042  1.00146528  0.11798714  1
  O  O177  1  0.74900763  0.99715262  0.63881987  1
  O  O178  1  -0.01506335  0.34191426  0.21916584  1
  O  O179  1  0.02540468  0.38523055  0.75735871  1
  O  O180  1  -0.02461665  0.85403086  0.26443826  1
  O  O181  1  0.00731436  0.86080293  0.75344202  1
  O  O182  1  0.49552758  0.37066004  0.26582377  1
  O  O183  1  0.51508004  0.37324051  0.76736091  1
  O  O184  1  0.49598470  0.88928920  0.25523628  1
  O  O185  1  0.51442492  0.88477398  0.76469430  1
  O  O186  1  0.47703242  0.11121409  0.23355020  1
  O  O187  1  0.49308243  0.13042878  0.75312716  1
  O  O188  1  0.48269745  0.62214290  0.23829781  1
  O  O189  1  0.49328528  0.62645731  0.75395996  1
  O  O190  1  1.01143539  0.13475077  0.24273077  1
  O  O191  1  1.00361254  0.12111944  0.74625966  1
  O  O192  1  0.98940574  0.63374978  0.24425265  1
  O  O193  1  1.00726319  0.64366490  0.72942330  1
  O  O194  1  0.36737971  0.26198927  0.00731191  1
  O  O195  1  0.38341744  0.25133070  0.50526412  1
  O  O196  1  0.36914047  0.74457223  0.00963423  1
  O  O197  1  0.37258793  0.79466598  0.51775232  1
  O  O198  1  0.91383650  0.22783627  -0.00883695  1
  O  O199  1  0.86088475  0.24733610  0.52579479  1
  O  O200  1  0.86645637  0.75358474  0.00662141  1
  O  O201  1  0.84854523  0.77953647  0.49092185  1
  O  O202  1  0.12037468  0.23516080  0.48594046  1
  O  O203  1  0.13613570  0.25715184  1.01298761  1
  O  O204  1  0.15327109  0.73102177  0.51702986  1
  O  O205  1  0.12513977  0.73915862  1.00008136  1
  O  O206  1  0.63516770  0.27102061  0.51803309  1
  O  O207  1  0.61328919  0.23944960  0.99031486  1
  O  O208  1  0.63772859  0.79358822  0.49040463  1
  O  O209  1  0.63849276  0.75736538  1.01277252  1
  O  O210  1  0.48429077  0.23854063  0.11758901  1
  O  O211  1  0.50334339  0.24035128  0.64831758  1
  O  O212  1  0.47721332  0.76034872  0.12115243  1
  O  O213  1  0.48300329  0.75350440  0.61478990  1
  O  O214  1  0.97995953  0.28098478  0.15648747  1
  O  O215  1  0.98529149  0.23378683  0.62963253  1
  O  O216  1  0.98680140  0.73849636  0.12401706  1
  O  O217  1  1.00035310  0.76742596  0.62709605  1
  O  O218  1  0.00792547  0.25125077  0.36896146  1
  O  O219  1  -0.03027029  0.28644425  0.86097915  1
  O  O220  1  -0.02254403  0.73321350  0.37579071  1
  O  O221  1  -0.00681853  0.75615639  0.85656641  1
  O  O222  1  0.52550933  0.23519524  0.35520989  1
  O  O223  1  0.50524736  0.26268998  0.87415614  1
  O  O224  1  0.48221127  0.74872898  0.40395315  1
  O  O225  1  0.49670387  0.76684553  0.88119291  1
  O  O226  1  0.22493896  0.10577475  0.49518704  1
  O  O227  1  0.25260795  0.14084964  0.99885889  1
  O  O228  1  0.30952830  0.66155732  0.49438534  1
  O  O229  1  0.24150619  0.62418702  0.98493393  1
  O  O230  1  0.73355484  0.13997097  0.52074179  1
  O  O231  1  0.73715790  0.11528271  0.98604242  1
  O  O232  1  0.72245868  0.65123439  0.49007261  1
  O  O233  1  0.75134866  0.63426430  0.98990412  1
  O  O234  1  0.25566009  0.36930182  0.00545854  1
  O  O235  1  0.25501878  0.38001969  0.51016167  1
  O  O236  1  0.24947435  0.87061978  0.00063699  1
  O  O237  1  0.25805011  0.88023447  0.50369290  1
  O  O238  1  0.76384869  0.36881201  0.00095110  1
  O  O239  1  0.75032229  0.38082473  0.52302729  1
  O  O240  1  0.75835214  0.85991112  -0.00663153  1
  O  O241  1  0.75475340  0.89609070  0.51392909  1
  O  O242  1  0.13221962  0.51633789  0.23589501  1
  O  O243  1  0.14272211  0.51643869  0.74172334  1
  O  O244  1  0.13735477  0.99746976  0.23583251  1
  O  O245  1  0.12994317  0.98653154  0.74596453  1
  O  O246  1  0.61928767  0.49461884  0.24737758  1
  O  O247  1  0.62149730  0.48749760  0.75769899  1
  O  O248  1  0.61987806  1.01221473  0.23380735  1
  O  O249  1  0.63800456  0.99315826  0.75728217  1
  O  O250  1  0.35271783  0.01189814  0.24292898  1
  O  O251  1  0.36694368  0.00714770  0.76494182  1
  O  O252  1  0.35748594  0.50801213  0.24655327  1
  O  O253  1  0.38002384  0.50811570  0.76700169  1
  O  O254  1  0.86963272  0.02354696  0.21157401  1
  O  O255  1  0.86013598  -0.01280877  0.76349499  1
  O  O256  1  0.87911232  0.51565977  0.25501553  1
  O  O257  1  0.88016719  0.48674623  0.75534120  1
  O  O258  1  0.12484413  0.36811078  0.37588468  1
  O  O259  1  0.11784853  0.38167480  0.86976368  1
  O  O260  1  0.09306913  0.84997876  0.43605053  1
  O  O261  1  0.10921556  0.87126757  0.86336289  1
  O  O262  1  0.64584349  0.36728538  0.35490756  1
  O  O263  1  0.62067039  0.36945424  0.87569408  1
  O  O264  1  0.62223229  0.89700572  0.34573083  1
  O  O265  1  0.61646013  0.87769977  0.86707012  1
  O  O266  1  0.37260928  0.13262798  0.12819673  1
  O  O267  1  0.38561336  0.13225492  0.65214804  1
  O  O268  1  0.36082781  0.64306471  0.13363080  1
  O  O269  1  0.37861098  0.61135406  0.64451746  1
  O  O270  1  0.92748698  0.15367591  0.03024464  1
  O  O271  1  0.88690314  0.12609843  0.62969245  1
  O  O272  1  0.87751980  0.62885991  0.13361034  1
  O  O273  1  0.86233408  0.63974314  0.58116877  1
  O  O274  1  0.25373389  0.25902584  0.11604468  1
  O  O275  1  0.25144774  0.21663562  0.61879983  1
  O  O276  1  0.25056339  0.76368094  0.12612468  1
  O  O277  1  0.27701257  0.74881035  0.62232567  1
  O  O278  1  0.76195809  0.23208715  0.09914243  1
  O  O279  1  0.75505142  0.26169086  0.62752032  1
  O  O280  1  0.76008593  0.73512491  0.11257142  1
  O  O281  1  0.74463681  0.77076877  0.60757079  1
  O  O282  1  0.23033689  0.24958683  0.36893559  1
  O  O283  1  0.24973989  0.24308321  0.89247788  1
  O  O284  1  0.25565367  0.76603050  0.39445278  1
  O  O285  1  0.25471334  0.73526754  0.86631301  1
  O  O286  1  0.75963129  0.25576568  0.40964340  1
  O  O287  1  0.74547464  0.23835217  0.88133685  1
  O  O288  1  0.74962206  0.74162931  0.38128284  1
  O  O289  1  0.74863297  0.74321181  0.88852365  1
  O  O290  1  -0.00868431  0.11913043  0.00860254  1
  O  O291  1  0.00654488  0.11205012  0.51669595  1
  O  O292  1  0.01182400  0.63055462  0.00465629  1
  O  O293  1  0.01589796  0.63736619  0.52068086  1
  O  O294  1  0.50196634  0.11664467  0.00168127  1
  O  O295  1  0.49170244  0.12315572  0.52550847  1
  O  O296  1  0.49587783  0.60879375  -0.00324027  1
  O  O297  1  0.49870193  0.60882694  0.51055563  1
  O  O298  1  0.50337203  0.36660055  0.43836931  1
  O  O299  1  0.48992550  0.38154916  0.99571932  1
  O  O300  1  0.47505275  0.90486711  0.50859860  1
  O  O301  1  0.50908823  0.88743976  0.98652912  1
  O  O302  1  0.99900579  0.37541558  0.49626315  1
  O  O303  1  1.01092380  0.38386317  0.98490075  1
  O  O304  1  0.97280043  0.89428064  0.50559944  1
  O  O305  1  0.99151540  0.85782312  0.98256512  1
  O  O306  1  0.47355014  0.50509428  0.37009036  1
  O  O307  1  0.49457123  0.49429024  0.88749618  1
  O  O308  1  0.49543006  1.03147787  0.40040552  1
  O  O309  1  0.48988409  0.99737596  0.88422833  1
  O  O310  1  0.98325288  0.50995276  0.39047851  1
  O  O311  1  1.00038533  0.49683405  0.87099665  1
  O  O312  1  0.99816868  1.00838135  0.38796666  1
  O  O313  1  0.98671933  0.97694534  0.86468616  1
  O  O314  1  0.01972072  -0.00928817  0.12897206  1
  O  O315  1  0.00302844  0.00899348  0.63133668  1
  O  O316  1  0.01473428  0.51656584  0.12918624  1
  O  O317  1  -0.01082136  0.49705127  0.60413532  1
  O  O318  1  0.49633395  0.00576613  0.11358803  1
  O  O319  1  0.49980989  0.01855526  0.62852287  1
  O  O320  1  0.50842712  0.49319259  0.11484322  1
  O  O321  1  0.45215659  0.41319148  0.57342852  1
  O  O322  1  0.24981632  0.37999237  0.23474616  1
  O  O323  1  0.23326223  0.39029297  0.76997977  1
  O  O324  1  0.24879676  0.88097999  0.24635008  1
  O  O325  1  0.24238009  0.88558320  0.76185950  1
  O  O326  1  0.79048729  0.34058219  0.21907220  1
  O  O327  1  0.74043027  0.38620535  0.76332634  1
  O  O328  1  0.73697852  0.86034558  0.24210038  1
  O  O329  1  0.74283798  0.87653300  0.74555647  1
  O  O330  1  0.25483902  0.12346862  0.24731727  1
  O  O331  1  0.25561890  0.11464344  0.76732336  1
  O  O332  1  0.24971105  0.62157960  0.24277401  1
  O  O333  1  0.26163436  0.61485275  0.75977582  1
  O  O334  1  0.86763573  0.08098978  0.15960810  1
  O  O335  1  0.73953611  0.11553788  0.76533711  1
  O  O336  1  0.75558657  0.63412020  0.26527186  1
  O  O337  1  0.76725494  0.60248157  0.75080246  1
  O  O338  1  0.37232896  0.13256959  0.35832542  1
  O  O339  1  0.36236359  0.10534741  0.88173711  1
  O  O340  1  0.36495245  0.61361998  0.34894300  1
  O  O341  1  0.36652904  0.62014407  0.87103677  1
  O  O342  1  0.81558779  0.08218490  0.35287262  1
  O  O343  1  0.86583462  0.10913599  0.87402309  1
  O  O344  1  0.86215221  0.61607082  0.37588118  1
  O  O345  1  0.85822222  0.63339416  0.87020134  1
  O  O346  1  0.12911624  0.39374620  0.11960435  1
  O  O347  1  0.13708997  0.35518008  0.64702937  1
  O  O348  1  0.13711481  0.87878756  0.11929749  1
  O  O349  1  0.11915258  0.88976303  0.63047981  1
  O  O350  1  0.62340646  0.38481999  0.12412414  1
  O  O351  1  0.64082222  0.37040785  0.64951338  1
  O  O352  1  0.61262145  0.89123301  0.14004463  1
  O  O353  1  0.63603745  0.88660287  0.64387485  1
  O  O354  1  0.11330528  0.25013783  0.26308260  1
  O  O355  1  0.12749909  0.25265387  0.76725159  1
  O  O356  1  0.09757717  0.74399161  0.25802233  1
  O  O357  1  0.13287678  0.75934690  0.73039309  1
  O  O358  1  0.67602215  0.17673237  0.27002486  1
  O  O359  1  0.61871731  0.25843989  0.76933047  1
  O  O360  1  0.61492569  0.75950342  0.24286875  1
  O  O361  1  0.62121483  0.76628332  0.74779162  1
  O  O362  1  0.36296634  0.23833561  0.23692243  1
  O  O363  1  0.38447452  0.22229158  0.80092470  1
  O  O364  1  0.37693411  0.74224045  0.24799420  1
  O  O365  1  0.37654375  0.73632260  0.74018344  1
  O  O366  1  0.88694307  0.22081747  0.27638410  1
  O  O367  1  0.86122909  0.23697946  0.73901244  1
  O  O368  1  0.87773563  0.73776457  0.24280043  1
  O  O369  1  0.88317477  0.75564971  0.73723903  1
  O  O370  1  0.35091627  0.51019105  0.47219306  1
  O  O371  1  0.37664411  0.49308423  0.99636797  1
  O  O372  1  0.36887355  1.00962412  0.50284375  1
  O  O373  1  0.38017467  1.00123322  0.99651052  1
  O  O374  1  0.88240318  0.49079963  0.49405136  1
  O  O375  1  0.87673216  0.49956087  1.01149690  1
  O  O376  1  0.87993541  1.00312848  0.50037383  1
  O  O377  1  0.86709111  0.98250959  0.98804449  1
  O  O378  1  0.12763356  -0.00108240  0.00913868  1
  O  O379  1  0.10635233  0.00336768  0.51018832  1
  O  O380  1  0.13359011  0.51487075  0.01519184  1
  O  O381  1  0.10452911  0.50227074  0.49118790  1
  O  O382  1  0.61309978  0.00721913  0.00394511  1
  O  O383  1  0.60296179  -0.00576372  0.50715674  1
  O  O384  1  0.61301624  0.49768517  -0.00490048  1
  O  O385  1  0.60377697  0.47498490  0.51386390  1
  O  O386  1  0.36721002  0.36993274  0.11942878  1
  O  O387  1  0.38504156  0.32442720  0.70796494  1
  O  O388  1  0.35622625  0.86421298  0.12181892  1
  O  O389  1  0.37148220  0.87633758  0.65203694  1
  O  O390  1  0.88579150  0.43696497  0.04851458  1
  O  O391  1  0.86625819  0.35835421  0.63916209  1
  O  O392  1  0.88227450  0.86171457  0.11192229  1
  O  O393  1  0.85792856  0.88236672  0.62549079  1
  O  O394  1  0.11311517  0.12048572  0.38784358  1
  O  O395  1  0.13526858  0.11300670  0.87672605  1
  O  O396  1  0.12880107  0.62139449  0.39973141  1
  O  O397  1  0.13472009  0.62274553  0.88371417  1
  O  O398  1  0.65427550  0.14328383  0.33097569  1
  O  O399  1  0.62815163  0.13149647  0.88366647  1
  O  O400  1  0.63211760  0.62072539  0.36547610  1
  O  O401  1  0.65218932  0.62738883  0.86160669  1
