# generated using pymatgen
data_V73Zn73O256
_symmetry_space_group_name_H-M   'P 1'
_cell_length_a   16.86924507
_cell_length_b   16.87341909
_cell_length_c   16.88174088
_cell_angle_alpha   89.99097656
_cell_angle_beta   89.93774701
_cell_angle_gamma   89.99181269
_symmetry_Int_Tables_number   1
_chemical_formula_structural   V73Zn73O256
_chemical_formula_sum   'V73 Zn73 O256'
_cell_volume   4805.24687521
_cell_formula_units_Z   1
loop_
 _symmetry_equiv_pos_site_id
 _symmetry_equiv_pos_as_xyz
  1  'x, y, z'
loop_
 _atom_site_type_symbol
 _atom_site_label
 _atom_site_symmetry_multiplicity
 _atom_site_fract_x
 _atom_site_fract_y
 _atom_site_fract_z
 _atom_site_occupancy
  V  V0  1  0.61760079  0.00850200  0.62439297  1
  V  V1  1  0.26212948  0.24979657  -0.00888535  1
  V  V2  1  0.12197637  0.62694275  0.00735866  1
  V  V3  1  0.49903526  0.63170693  0.11896653  1
  V  V4  1  0.00828219  0.61887184  0.62106020  1
  V  V5  1  0.25670065  0.25167608  0.50372156  1
  V  V6  1  0.12736767  0.25049893  0.36825332  1
  V  V7  1  0.00590227  0.25024808  0.74914351  1
  V  V8  1  0.00798469  0.49830481  0.50291661  1
  V  V9  1  0.75882717  0.01280337  0.25701397  1
  V  V10  1  0.48955111  0.38475084  0.36753514  1
  V  V11  1  0.87590804  0.00090619  0.87710650  1
  V  V12  1  0.49598869  0.00894129  0.49241651  1
  V  V13  1  0.86690996  0.75019954  0.61523623  1
  V  V14  1  0.25248139  0.87097449  0.62293443  1
  V  V15  1  -0.00441022  0.75276463  0.24627416  1
  V  V16  1  0.48650461  0.48539147  0.01006627  1
  V  V17  1  0.25858543  0.39098905  0.11408118  1
  V  V18  1  0.74347415  0.87715777  0.61309071  1
  V  V19  1  0.11542174  0.73426269  0.38392196  1
  V  V20  1  0.13122909  0.38170927  0.24469978  1
  V  V21  1  0.86171726  0.62172673  0.74631307  1
  V  V22  1  0.87547205  0.37011536  0.01888085  1
  V  V23  1  0.74659730  -0.00337613  0.74932632  1
  V  V24  1  0.37859226  0.87668634  0.49786954  1
  V  V25  1  -0.00823649  0.37929355  0.37583087  1
  V  V26  1  0.88812269  0.01695469  0.37683554  1
  V  V27  1  0.63683934  0.13275151  0.49620826  1
  V  V28  1  0.49261105  0.24027667  0.25009914  1
  V  V29  1  0.75820402  0.63848642  0.90515541  1
  V  V30  1  0.24655893  0.73508968  0.49615110  1
  V  V31  1  0.62312483  0.11103953  0.01259341  1
  V  V32  1  0.63635596  0.38052641  0.24837417  1
  V  V33  1  0.86163887  0.36808689  0.52042480  1
  V  V34  1  0.26904230  0.50931135  0.74111784  1
  V  V35  1  0.63886925  0.50291437  0.12761954  1
  V  V36  1  0.26475982  0.62414229  0.87679741  1
  V  V37  1  0.61966808  0.27618784  0.87100254  1
  V  V38  1  0.88040519  0.60462037  0.25353497  1
  V  V39  1  0.12134803  0.87106598  0.74718455  1
  V  V40  1  0.00101049  0.12575583  0.62170223  1
  V  V41  1  0.50139749  0.75051316  0.25910983  1
  V  V42  1  -0.00453099  0.87571452  0.87313910  1
  V  V43  1  0.74735939  0.13074963  0.87477133  1
  V  V44  1  0.87625316  0.13012372  0.74568736  1
  V  V45  1  0.75726472  0.60468730  0.37594788  1
  V  V46  1  0.13218463  0.24982525  0.87608295  1
  V  V47  1  -0.00592639  0.23951598  0.23473667  1
  V  V48  1  0.37188959  0.38104866  0.50838665  1
  V  V49  1  0.13492238  0.87795263  0.25950182  1
  V  V50  1  0.63387606  0.87707640  0.25737411  1
  V  V51  1  0.00484881  0.50139619  0.01125562  1
  V  V52  1  0.39102916  0.74444647  0.63471479  1
  V  V53  1  0.87074330  0.49139785  0.86602331  1
  V  V54  1  0.00625188  0.00651025  0.01611544  1
  V  V55  1  0.37187694  -0.00607402  0.36268619  1
  V  V56  1  0.75688290  0.87112228  0.12899635  1
  V  V57  1  -0.00783300  0.74888016  0.74867984  1
  V  V58  1  0.37911370  0.24383645  0.12229823  1
  V  V59  1  0.25849255  0.50473833  0.26836395  1
  V  V60  1  0.25174214  0.00518355  0.75666043  1
  V  V61  1  0.60647690  0.77188430  0.87727934  1
  V  V62  1  0.87565675  0.86750827  0.00417409  1
  V  V63  1  0.75422447  0.25389371  0.01419550  1
  V  V64  1  0.11941981  -0.00193389  0.61725820  1
  V  V65  1  0.12781402  0.38908326  0.73868962  1
  V  V66  1  0.50313542  0.51105026  0.50388820  1
  V  V67  1  0.63436434  0.24585925  0.37699644  1
  V  V68  1  0.25542046  0.11859504  0.36103382  1
  V  V69  1  0.64094732  0.74963699  0.38416812  1
  V  V70  1  0.12180659  0.12092943  0.49687057  1
  V  V71  1  0.23398695  0.84500596  0.11067451  1
  V  V72  1  0.89163172  0.88302238  0.49407726  1
  Zn  Zn73  1  0.63643876  0.62406853  0.50867856  1
  Zn  Zn74  1  0.39595601  0.23604779  0.64835924  1
  Zn  Zn75  1  0.36414624  0.00783902  0.89591598  1
  Zn  Zn76  1  0.12234549  0.12784035  0.00787965  1
  Zn  Zn77  1  0.37096660  0.62228321  0.25143817  1
  Zn  Zn78  1  0.87456140  0.73332297  0.11890572  1
  Zn  Zn79  1  0.13396363  0.74965491  0.88533658  1
  Zn  Zn80  1  0.45450501  0.05343583  0.07322048  1
  Zn  Zn81  1  0.00096936  0.37519266  0.87492800  1
  Zn  Zn82  1  0.18598018  0.18843626  0.17794295  1
  Zn  Zn83  1  0.22461552  0.21025819  0.71132424  1
  Zn  Zn84  1  0.17967991  0.68303172  0.19188632  1
  Zn  Zn85  1  0.19143278  0.68478277  0.68948180  1
  Zn  Zn86  1  0.68610474  0.19129398  0.19275390  1
  Zn  Zn87  1  0.58052369  0.19732232  0.68603898  1
  Zn  Zn88  1  0.69491662  0.68289095  0.19512559  1
  Zn  Zn89  1  0.63682229  0.63303187  0.75853479  1
  Zn  Zn90  1  0.31121845  0.31236091  0.31073285  1
  Zn  Zn91  1  0.31646579  0.33076942  0.80618611  1
  Zn  Zn92  1  0.31584452  0.79467391  0.31229894  1
  Zn  Zn93  1  0.31468315  0.80969519  0.81500974  1
  Zn  Zn94  1  0.81634911  0.30743737  0.30898836  1
  Zn  Zn95  1  0.80395659  0.31010843  0.80119677  1
  Zn  Zn96  1  0.81584874  0.81300704  0.31957045  1
  Zn  Zn97  1  0.76095873  0.78138551  0.77668109  1
  Zn  Zn98  1  0.18609433  0.43854716  0.44020939  1
  Zn  Zn99  1  0.18995648  0.44135583  0.92682214  1
  Zn  Zn100  1  0.18639713  0.93066941  0.43304320  1
  Zn  Zn101  1  0.18564677  0.93266774  0.93835116  1
  Zn  Zn102  1  0.68371621  0.43317984  0.43866326  1
  Zn  Zn103  1  0.69106392  0.44445539  0.94769657  1
  Zn  Zn104  1  0.69247799  0.94683502  0.43517907  1
  Zn  Zn105  1  0.68859433  0.93165400  0.94238520  1
  Zn  Zn106  1  0.27753193  0.06287149  0.07273882  1
  Zn  Zn107  1  0.30496263  0.06352299  0.55900313  1
  Zn  Zn108  1  0.31344621  0.57949535  0.06434410  1
  Zn  Zn109  1  0.31715848  0.56163619  0.56518439  1
  Zn  Zn110  1  0.81498759  0.06050419  0.07216044  1
  Zn  Zn111  1  0.81404478  0.06393770  0.55984507  1
  Zn  Zn112  1  0.82243359  0.55282656  0.07109073  1
  Zn  Zn113  1  0.82013773  0.55588991  0.55400442  1
  Zn  Zn114  1  0.43628336  0.43962745  0.18617645  1
  Zn  Zn115  1  0.45567959  0.56843619  0.69122192  1
  Zn  Zn116  1  0.42604064  0.90635830  0.18605725  1
  Zn  Zn117  1  0.42894303  1.05736838  0.68780156  1
  Zn  Zn118  1  0.94312278  0.42997994  0.19130891  1
  Zn  Zn119  1  0.93803793  0.43472109  0.68569187  1
  Zn  Zn120  1  0.94060678  0.93539208  0.19689425  1
  Zn  Zn121  1  0.93235444  0.93988686  0.68459714  1
  Zn  Zn122  1  0.06601870  0.05981211  0.30507519  1
  Zn  Zn123  1  0.06988039  0.06472301  0.81368794  1
  Zn  Zn124  1  0.06372560  0.56141370  0.31101794  1
  Zn  Zn125  1  0.05768885  0.56554996  0.82125055  1
  Zn  Zn126  1  0.53259461  0.03044095  0.25804260  1
  Zn  Zn127  1  0.57088339  0.05730585  0.82423087  1
  Zn  Zn128  1  0.56698658  0.56707837  0.31302177  1
  Zn  Zn129  1  0.55250860  0.46651775  0.82126022  1
  Zn  Zn130  1  0.43822427  0.18621605  0.43257478  1
  Zn  Zn131  1  0.44483970  0.18858835  0.93555544  1
  Zn  Zn132  1  0.43330362  0.69330422  0.43011077  1
  Zn  Zn133  1  0.48488441  0.62706712  0.87552627  1
  Zn  Zn134  1  0.93767168  0.19683389  0.43590952  1
  Zn  Zn135  1  0.94022431  0.18784219  0.94018632  1
  Zn  Zn136  1  0.93360811  0.68480287  0.43709503  1
  Zn  Zn137  1  0.93858639  0.68267837  0.93495720  1
  Zn  Zn138  1  0.07143963  0.31955304  0.06020103  1
  Zn  Zn139  1  0.06649573  0.31025283  0.56046284  1
  Zn  Zn140  1  0.05752433  0.81307267  0.06711519  1
  Zn  Zn141  1  0.06101022  0.80634233  0.56246259  1
  Zn  Zn142  1  0.56685271  0.31224961  0.06337715  1
  Zn  Zn143  1  0.56058071  0.32287720  0.56094001  1
  Zn  Zn144  1  0.60036970  0.78657963  0.07258432  1
  Zn  Zn145  1  0.56240161  0.81805735  0.55768030  1
  O  O146  1  0.17642341  0.10445089  0.10558769  1
  O  O147  1  0.11879107  0.11378039  0.61372874  1
  O  O148  1  0.12944153  0.62044641  0.10691002  1
  O  O149  1  0.10584605  0.63366490  0.62898870  1
  O  O150  1  0.63265522  0.13261968  0.11067531  1
  O  O151  1  0.62470593  0.12097452  0.60979228  1
  O  O152  1  0.62004629  0.60955774  0.14205795  1
  O  O153  1  0.66439297  0.59371267  0.62814083  1
  O  O154  1  0.38700911  0.36857246  0.37942253  1
  O  O155  1  0.42441703  0.37637717  0.82519003  1
  O  O156  1  0.35866482  0.88497614  0.38854142  1
  O  O157  1  0.35258595  0.88203798  0.89942258  1
  O  O158  1  0.89159782  0.37378470  0.37103781  1
  O  O159  1  0.86978240  0.38525061  0.86666480  1
  O  O160  1  0.87656861  0.87774423  0.39231535  1
  O  O161  1  0.88242971  0.88609899  0.88403650  1
  O  O162  1  0.25579591  0.01160130  0.38115039  1
  O  O163  1  0.24665560  -0.00816829  0.86242336  1
  O  O164  1  0.25097255  0.49902949  0.36801710  1
  O  O165  1  0.24914671  0.51384967  0.86123406  1
  O  O166  1  0.76516418  -0.00065352  0.36451519  1
  O  O167  1  0.75823184  0.00604181  0.87127499  1
  O  O168  1  0.74411441  0.50644078  0.36952693  1
  O  O169  1  0.76966221  0.51066658  0.89040799  1
  O  O170  1  0.25815879  0.49154029  0.12970828  1
  O  O171  1  0.24559281  0.51617535  0.64214835  1
  O  O172  1  0.27601272  0.95319889  0.13076857  1
  O  O173  1  0.23757413  0.98827091  0.63045211  1
  O  O174  1  0.73842672  0.49913281  0.12809096  1
  O  O175  1  0.71685446  0.53515909  0.62694791  1
  O  O176  1  0.76318213  0.98590735  0.14477368  1
  O  O177  1  0.74371396  0.99635749  0.62961460  1
  O  O178  1  0.01288396  0.36902695  0.26045834  1
  O  O179  1  0.00689792  0.36289054  0.74962673  1
  O  O180  1  0.01289421  0.85948527  0.25081555  1
  O  O181  1  -0.00041447  0.86911496  0.75257850  1
  O  O182  1  0.50289494  0.36914082  0.25940201  1
  O  O183  1  0.46154431  0.34952473  0.75705254  1
  O  O184  1  0.53184377  0.86976313  0.25134078  1
  O  O185  1  0.48667989  0.90491581  0.79917655  1
  O  O186  1  0.50600707  0.14245584  0.25416546  1
  O  O187  1  0.47570787  0.11282752  0.78497528  1
  O  O188  1  0.49995091  0.64020340  0.25001354  1
  O  O189  1  0.53762424  0.57708883  0.76946032  1
  O  O190  1  1.01424902  0.14085996  0.24633535  1
  O  O191  1  0.99678053  0.12999074  0.74409047  1
  O  O192  1  0.98733664  0.63324104  0.26259162  1
  O  O193  1  0.98792495  0.63201870  0.74119614  1
  O  O194  1  0.37374582  0.25298092  0.00743958  1
  O  O195  1  0.36367738  0.25412245  0.49353748  1
  O  O196  1  0.40683495  0.83842132  -0.04544202  1
  O  O197  1  0.36406273  0.75722855  0.50601610  1
  O  O198  1  0.86817252  0.26273963  -0.00793050  1
  O  O199  1  0.87614809  0.27011619  0.49401762  1
  O  O200  1  0.89321068  0.76411440  0.00482354  1
  O  O201  1  0.87882917  0.76281098  0.50931929  1
  O  O202  1  0.13363302  0.24511322  0.48542694  1
  O  O203  1  0.13984541  0.25350899  0.99394793  1
  O  O204  1  0.13329708  0.74878831  0.49586369  1
  O  O205  1  0.10199166  0.73117778  0.99832648  1
  O  O206  1  0.62002228  0.24429435  0.48903820  1
  O  O207  1  0.64312589  0.25593956  0.99167733  1
  O  O208  1  0.61844033  0.74177091  0.48847045  1
  O  O209  1  0.63551222  0.75195184  0.97544164  1
  O  O210  1  0.48974985  0.25775114  0.13636276  1
  O  O211  1  0.50541875  0.25122672  0.62655900  1
  O  O212  1  0.52379633  0.73764948  0.14028920  1
  O  O213  1  0.49004718  0.75674485  0.62078396  1
  O  O214  1  1.01224341  0.25926799  0.13686737  1
  O  O215  1  1.01215881  0.23621489  0.63692779  1
  O  O216  1  0.99696707  0.74526689  0.14282633  1
  O  O217  1  0.98785722  0.74178572  0.63025154  1
  O  O218  1  0.01225688  0.25913511  0.36565932  1
  O  O219  1  0.00968587  0.25060497  0.86504063  1
  O  O220  1  0.01079102  0.74817249  0.37766608  1
  O  O221  1  -0.00927435  0.75970554  0.86054252  1
  O  O222  1  0.50313033  0.25843208  0.36371149  1
  O  O223  1  0.52341790  0.26069156  0.89095051  1
  O  O224  1  0.52029228  0.75156017  0.36383863  1
  O  O225  1  0.50979723  0.73951884  0.86948256  1
  O  O226  1  0.23966756  0.13511449  0.48911982  1
  O  O227  1  0.25746430  0.15239858  0.97769019  1
  O  O228  1  0.25534615  0.63654959  0.50265102  1
  O  O229  1  0.23448447  0.61669907  0.98755457  1
  O  O230  1  0.73615316  0.12484508  0.49984147  1
  O  O231  1  0.74742505  0.13665098  0.99251359  1
  O  O232  1  0.75380432  0.61818207  0.48327987  1
  O  O233  1  0.77316169  0.63184319  1.00487442  1
  O  O234  1  0.24828444  0.38036202  0.01091997  1
  O  O235  1  0.26155416  0.36323961  0.48741313  1
  O  O236  1  0.21610055  0.85157381  0.01072590  1
  O  O237  1  0.25355404  0.86997980  0.50978000  1
  O  O238  1  0.76496840  0.36581784  -0.00044529  1
  O  O239  1  0.76278008  0.38521524  0.50285681  1
  O  O240  1  0.76307794  0.88337095  0.01826338  1
  O  O241  1  0.75952159  0.88319199  0.51125952  1
  O  O242  1  0.13589210  0.48855064  0.25544782  1
  O  O243  1  0.10733443  0.48743547  0.75252306  1
  O  O244  1  0.12957333  0.97824492  0.25876670  1
  O  O245  1  0.12504002  0.98504038  0.74216860  1
  O  O246  1  0.62032211  0.48659421  0.24660964  1
  O  O247  1  0.52127786  0.39548947  0.73328843  1
  O  O248  1  0.64274712  0.98480791  0.26422555  1
  O  O249  1  0.63510122  1.01413938  0.73796031  1
  O  O250  1  0.36835948  -0.01732142  0.26571639  1
  O  O251  1  0.35268958  -0.00688247  0.74740489  1
  O  O252  1  0.36393656  0.50163916  0.25395035  1
  O  O253  1  0.36865990  0.50697053  0.74249111  1
  O  O254  1  0.87037137  -0.00201974  0.26464143  1
  O  O255  1  0.87014340  0.00882781  0.75832979  1
  O  O256  1  0.88466307  0.50520165  0.25432720  1
  O  O257  1  0.87808581  0.50518402  0.75946681  1
  O  O258  1  0.12491968  0.36460213  0.36650689  1
  O  O259  1  0.12052995  0.36707718  0.86504889  1
  O  O260  1  0.12735221  0.85956382  0.36605424  1
  O  O261  1  0.11075715  0.86902252  0.86444035  1
  O  O262  1  0.61229333  0.36558085  0.36855938  1
  O  O263  1  0.62900547  0.38266743  0.86910142  1
  O  O264  1  0.64231023  0.86206879  0.36941966  1
  O  O265  1  0.61888240  0.87471913  0.87562700  1
  O  O266  1  0.37069445  0.14445692  0.12657321  1
  O  O267  1  0.37583233  0.12601181  0.61769487  1
  O  O268  1  0.39303298  0.63081779  0.13391321  1
  O  O269  1  0.38401613  0.63814641  0.62727098  1
  O  O270  1  0.87468050  0.14574535  0.10808613  1
  O  O271  1  0.88674005  0.11635480  0.63425652  1
  O  O272  1  0.87320687  0.62158132  0.14793867  1
  O  O273  1  0.87669561  0.63182942  0.62846725  1
  O  O274  1  0.26292078  0.26063714  0.11042406  1
  O  O275  1  0.23862522  0.24775000  0.60047291  1
  O  O276  1  0.25375988  0.74684714  0.12830020  1
  O  O277  1  0.25092231  0.75457150  0.61596856  1
  O  O278  1  0.75072333  0.24970243  0.11279746  1
  O  O279  1  0.70206594  0.33630453  0.66347658  1
  O  O280  1  0.75954184  0.76367896  0.13569521  1
  O  O281  1  0.75677609  0.77295069  0.63389955  1
  O  O282  1  0.24548469  0.23872460  0.37751738  1
  O  O283  1  0.24868191  0.27846981  0.88821550  1
  O  O284  1  0.23564964  0.75222099  0.39327366  1
  O  O285  1  0.24672961  0.73235808  0.86598013  1
  O  O286  1  0.73307950  0.25454282  0.36942466  1
  O  O287  1  0.74340241  0.24496352  0.87969068  1
  O  O288  1  0.74397305  0.74341507  0.37891050  1
  O  O289  1  0.77692422  0.73709942  0.88232403  1
  O  O290  1  0.00077092  0.11160883  0.00002077  1
  O  O291  1  0.01258274  0.13663193  0.50729716  1
  O  O292  1  0.00158885  0.60860761  0.00002150  1
  O  O293  1  -0.00875750  0.61621730  0.51376442  1
  O  O294  1  0.51820435  0.12367152  0.00177966  1
  O  O295  1  0.50696477  0.11399060  0.49181490  1
  O  O296  1  0.50461487  0.62881115  0.02074357  1
  O  O297  1  0.49235729  0.61169768  0.48171320  1
  O  O298  1  0.49131670  0.38443709  0.48740641  1
  O  O299  1  0.49533307  0.38526895  1.01049407  1
  O  O300  1  0.48839273  0.88998272  0.50066580  1
  O  O301  1  0.45704711  0.88181822  0.98867097  1
  O  O302  1  0.99961338  0.37416166  0.48762994  1
  O  O303  1  0.98903710  0.37789663  0.99670599  1
  O  O304  1  0.99067256  0.87926654  0.50832602  1
  O  O305  1  0.99577316  0.88568487  0.99196266  1
  O  O306  1  0.49918796  0.48755142  0.37195631  1
  O  O307  1  0.50851202  0.51815202  0.91195187  1
  O  O308  1  0.47987490  1.00344348  0.37532746  1
  O  O309  1  0.48955209  0.96152714  0.84840531  1
  O  O310  1  1.00820414  0.48395273  0.38153361  1
  O  O311  1  0.98265119  0.49663017  0.88521209  1
  O  O312  1  0.98786774  1.00385103  0.36940292  1
  O  O313  1  0.99158561  0.99258867  0.87157044  1
  O  O314  1  -0.00094530  -0.00554325  0.11475823  1
  O  O315  1  0.01035111  0.00956254  0.63088439  1
  O  O316  1  0.00028930  0.49038085  0.11069055  1
  O  O317  1  -0.00253381  0.51382771  0.62370230  1
  O  O318  1  0.49270598  -0.00669791  0.15712432  1
  O  O319  1  0.51186033  0.00320685  0.61694413  1
  O  O320  1  0.50631908  0.51156155  0.12460456  1
  O  O321  1  0.49973136  0.50633610  0.60350572  1
  O  O322  1  0.24812215  0.38599622  0.24580381  1
  O  O323  1  0.23664975  0.39989620  0.75424868  1
  O  O324  1  0.23677012  0.85298748  0.24782503  1
  O  O325  1  0.23691051  0.87475009  0.74158016  1
  O  O326  1  0.73504664  0.37037894  0.25579861  1
  O  O327  1  0.73818348  0.37546930  0.72452132  1
  O  O328  1  0.75256010  0.87934124  0.24604785  1
  O  O329  1  0.75797118  0.89221903  0.73758644  1
  O  O330  1  0.24657385  0.12901679  0.26338091  1
  O  O331  1  0.22963232  0.10123211  0.74507439  1
  O  O332  1  0.24596908  0.60578169  0.24511615  1
  O  O333  1  0.24524243  0.61697338  0.76217852  1
  O  O334  1  0.74768588  0.11134068  0.24632056  1
  O  O335  1  0.76212361  0.11610705  0.76127467  1
  O  O336  1  0.76910282  0.62817840  0.26461542  1
  O  O337  1  0.76161784  0.62616636  0.75377133  1
  O  O338  1  0.36234239  0.11355266  0.37613512  1
  O  O339  1  0.41642010  0.11283595  0.84979469  1
  O  O340  1  0.37083109  0.69424388  0.33702741  1
  O  O341  1  0.36405305  0.62732778  0.88242554  1
  O  O342  1  0.87682800  0.11625676  0.38435353  1
  O  O343  1  0.86961858  0.11820750  0.87096239  1
  O  O344  1  0.86676383  0.62072386  0.37030784  1
  O  O345  1  0.87289485  0.61364418  0.86689885  1
  O  O346  1  0.14609236  0.37054371  0.13566460  1
  O  O347  1  0.12192244  0.37230227  0.63953677  1
  O  O348  1  0.12997202  0.86181735  0.14280765  1
  O  O349  1  0.12809802  0.87859005  0.62830140  1
  O  O350  1  0.62055503  0.38137380  0.14281553  1
  O  O351  1  0.64680267  0.38163376  0.62827405  1
  O  O352  1  0.64689058  0.86954221  0.13996258  1
  O  O353  1  0.63698065  0.88903177  0.61417558  1
  O  O354  1  0.12812123  0.25851626  0.25426049  1
  O  O355  1  0.12566238  0.26055488  0.75741963  1
  O  O356  1  0.11261741  0.74488955  0.26556525  1
  O  O357  1  0.10921080  0.75954399  0.74312531  1
  O  O358  1  0.61436339  0.25962467  0.25739948  1
  O  O359  1  0.62836639  0.24473284  0.77412298  1
  O  O360  1  0.62721901  0.75670169  0.26246084  1
  O  O361  1  0.64820760  0.74714095  0.78005196  1
  O  O362  1  0.38497802  0.25264416  0.24162710  1
  O  O363  1  0.32957909  0.24347391  0.73847723  1
  O  O364  1  0.41094025  0.79651280  0.23233633  1
  O  O365  1  0.37643284  0.75971245  0.73324401  1
  O  O366  1  0.89438027  0.25233621  0.25012597  1
  O  O367  1  0.88660152  0.23751150  0.75671738  1
  O  O368  1  0.89072051  0.75062008  0.25812108  1
  O  O369  1  0.87716569  0.74389786  0.73602012  1
  O  O370  1  0.37950608  0.48755094  0.49998543  1
  O  O371  1  0.38777408  0.50394182  1.01548191  1
  O  O372  1  0.37897058  0.99407885  0.49578662  1
  O  O373  1  0.36585878  1.03749774  1.00472730  1
  O  O374  1  0.89297984  0.47962602  0.50684519  1
  O  O375  1  0.88330317  0.48337286  0.99633810  1
  O  O376  1  0.87467121  0.99291496  0.49024146  1
  O  O377  1  0.88540220  0.99377656  0.99349463  1
  O  O378  1  0.10731446  0.00022352  -0.00936486  1
  O  O379  1  0.13140267  0.00772258  0.50575809  1
  O  O380  1  0.10874495  0.50264472  -0.00909076  1
  O  O381  1  0.10946070  0.49101214  0.50412238  1
  O  O382  1  0.63486586  0.01147387  0.00626052  1
  O  O383  1  0.61888302  0.01249515  0.50012255  1
  O  O384  1  0.61822155  0.49007216  0.02494206  1
  O  O385  1  0.60824108  0.50564891  0.48929985  1
  O  O386  1  0.36262242  0.36628781  0.13180178  1
  O  O387  1  0.37619255  0.36473735  0.60428655  1
  O  O388  1  0.33666029  0.89703196  0.10707389  1
  O  O389  1  0.36252026  0.86412477  0.61369097  1
  O  O390  1  0.87522111  0.37208324  0.11724324  1
  O  O391  1  0.87423909  0.36717190  0.62161365  1
  O  O392  1  0.87270244  0.87208533  0.12084236  1
  O  O393  1  0.86774885  0.87425548  0.61422296  1
  O  O394  1  0.13331599  0.12918843  0.37902481  1
  O  O395  1  0.12478033  0.14410746  0.87781922  1
  O  O396  1  0.12314868  0.63451228  0.37891656  1
  O  O397  1  0.12455320  0.62926516  0.88575926  1
  O  O398  1  0.62301716  0.14011455  0.38519982  1
  O  O399  1  0.63667320  0.12449024  0.89015393  1
  O  O400  1  0.64185072  0.63464338  0.37067413  1
  O  O401  1  0.66042020  0.62112948  0.88157138  1
