# generated using pymatgen
data_V73Zn73O256
_symmetry_space_group_name_H-M   'P 1'
_cell_length_a   16.97580021
_cell_length_b   16.90356437
_cell_length_c   16.97671075
_cell_angle_alpha   90.27078196
_cell_angle_beta   89.82441969
_cell_angle_gamma   90.29511719
_symmetry_Int_Tables_number   1
_chemical_formula_structural   V73Zn73O256
_chemical_formula_sum   'V73 Zn73 O256'
_cell_volume   4871.35161426
_cell_formula_units_Z   1
loop_
 _symmetry_equiv_pos_site_id
 _symmetry_equiv_pos_as_xyz
  1  'x, y, z'
loop_
 _atom_site_type_symbol
 _atom_site_label
 _atom_site_symmetry_multiplicity
 _atom_site_fract_x
 _atom_site_fract_y
 _atom_site_fract_z
 _atom_site_occupancy
  V  V0  1  -0.00080645  0.12739725  0.11778530  1
  V  V1  1  0.12253024  -0.01227284  0.12651501  1
  V  V2  1  0.25180132  0.74301561  0.00077598  1
  V  V3  1  0.39891881  0.63390774  0.74076923  1
  V  V4  1  0.50641882  0.39536729  0.86398661  1
  V  V5  1  0.61796197  0.00564064  0.12408573  1
  V  V6  1  0.62397204  0.87245922  0.75079174  1
  V  V7  1  0.24551461  0.12616605  0.86920069  1
  V  V8  1  0.51649511  0.50846827  0.51410837  1
  V  V9  1  0.62650985  0.02155125  0.61296552  1
  V  V10  1  0.11632796  0.75199076  0.86679442  1
  V  V11  1  0.47625824  0.11364873  0.63066919  1
  V  V12  1  0.61718930  0.87749633  0.25352657  1
  V  V13  1  0.51380568  0.36703193  0.39182480  1
  V  V14  1  0.75512086  0.87725399  0.12104926  1
  V  V15  1  0.05223418  0.05350653  0.45081147  1
  V  V16  1  0.75501838  0.74867138  -0.00231042  1
  V  V17  1  0.33071965  0.31062051  0.04628964  1
  V  V18  1  0.00443033  0.87198118  0.36255799  1
  V  V19  1  0.87115177  0.01459798  0.37078728  1
  V  V20  1  0.87419099  0.13721646  0.23725592  1
  V  V21  1  -0.00388725  -0.01511819  0.00060487  1
  V  V22  1  -0.00467269  0.49471610  0.00330536  1
  V  V23  1  0.01239748  0.24604712  0.76068087  1
  V  V24  1  0.61931516  0.61732853  0.00039829  1
  V  V25  1  0.75027897  0.88056985  0.62310232  1
  V  V26  1  0.74977507  0.12318527  0.88054932  1
  V  V27  1  0.50534507  0.60319367  0.13198129  1
  V  V28  1  0.77381596  0.38472744  0.12356057  1
  V  V29  1  0.87818900  0.73955375  0.13812693  1
  V  V30  1  0.37836436  0.87632691  0.49093923  1
  V  V31  1  0.88342677  0.61128940  0.76800046  1
  V  V32  1  0.14050180  0.48281539  0.12929112  1
  V  V33  1  0.76676288  0.25079666  0.00765215  1
  V  V34  1  0.24633865  0.62861342  0.86021325  1
  V  V35  1  0.90089260  0.73805943  0.61864691  1
  V  V36  1  0.24635558  0.87012086  0.62516271  1
  V  V37  1  0.62615712  0.75126026  0.87951845  1
  V  V38  1  0.74105856  0.74911060  0.49681327  1
  V  V39  1  0.12926725  0.12756336  -0.00347090  1
  V  V40  1  0.37950005  0.61934646  0.26238556  1
  V  V41  1  0.00924281  0.11442763  0.62934588  1
  V  V42  1  0.61788389  0.24811746  0.86267017  1
  V  V43  1  0.74625320  0.00295027  0.75662141  1
  V  V44  1  0.36054825  0.50642144  0.87319116  1
  V  V45  1  0.60261444  0.37140788  0.22659747  1
  V  V46  1  0.49554907  0.00544748  0.00069668  1
  V  V47  1  0.11838461  -0.01125614  0.63457048  1
  V  V48  1  0.12587027  0.62086894  0.47198320  1
  V  V49  1  0.87375498  -0.01499483  0.88134455  1
  V  V50  1  0.88294648  0.25546287  0.61371425  1
  V  V51  1  0.01478335  0.25496496  0.25001663  1
  V  V52  1  0.35324630  0.26720607  0.63097879  1
  V  V53  1  0.24870843  0.00459131  0.24939457  1
  V  V54  1  0.37542636  0.87040857  0.00067037  1
  V  V55  1  0.87628965  0.89074841  0.49449927  1
  V  V56  1  0.37820649  0.12884841  0.21885693  1
  V  V57  1  0.37168245  0.49394224  0.38583138  1
  V  V58  1  0.00079734  0.86719326  0.86607714  1
  V  V59  1  0.37144166  -0.00143766  0.86346759  1
  V  V60  1  0.37405434  0.01675575  0.37773908  1
  V  V61  1  0.62026211  0.73955923  0.37286756  1
  V  V62  1  0.12013236  0.62114056  0.00599975  1
  V  V63  1  0.49916358  0.86968794  0.87261147  1
  V  V64  1  0.39077713  0.74719016  0.13351141  1
  V  V65  1  0.61853159  0.13313327  0.00301318  1
  V  V66  1  0.24578649  0.86498616  0.13369587  1
  V  V67  1  0.13617223  0.38095643  0.75786037  1
  V  V68  1  0.12557991  0.51927837  0.63596169  1
  V  V69  1  0.74838678  0.00849140  0.25066050  1
  V  V70  1  0.87928311  0.12383328  0.75736362  1
  V  V71  1  -0.00025144  0.36969777  0.88421611  1
  V  V72  1  0.24858799  0.74183995  0.48285073  1
  Zn  Zn73  1  -0.01777062  0.52192582  0.51910622  1
  Zn  Zn74  1  0.85525376  0.48795719  0.89097520  1
  Zn  Zn75  1  0.39133908  0.74225157  0.62044656  1
  Zn  Zn76  1  0.70540470  0.42908254  0.69163000  1
  Zn  Zn77  1  0.23242993  0.22466664  0.49044086  1
  Zn  Zn78  1  0.24883211  -0.01064144  0.75003159  1
  Zn  Zn79  1  0.46877663  0.24095507  0.75848855  1
  Zn  Zn80  1  0.23521046  0.37946490  0.60603306  1
  Zn  Zn81  1  0.49986415  0.87793415  0.37342567  1
  Zn  Zn82  1  0.22911489  0.24608959  0.21394657  1
  Zn  Zn83  1  0.19051520  0.18187063  0.69390226  1
  Zn  Zn84  1  0.23086885  0.63482976  0.15738916  1
  Zn  Zn85  1  0.18989125  0.70208038  0.68464671  1
  Zn  Zn86  1  0.68262827  0.19524690  0.18320048  1
  Zn  Zn87  1  0.67360537  0.23411545  0.65116314  1
  Zn  Zn88  1  0.68206736  0.69061724  0.18930184  1
  Zn  Zn89  1  0.71370413  0.69518711  0.70245793  1
  Zn  Zn90  1  0.37448775  0.28104504  0.33354227  1
  Zn  Zn91  1  0.31412233  0.30822137  0.83456370  1
  Zn  Zn92  1  0.31644114  0.80692421  0.30767715  1
  Zn  Zn93  1  0.31368134  0.80905391  0.81190601  1
  Zn  Zn94  1  0.72425199  0.30628830  0.31960019  1
  Zn  Zn95  1  0.81754853  0.30560617  0.82417019  1
  Zn  Zn96  1  0.80870849  0.81873530  0.31246941  1
  Zn  Zn97  1  0.81750088  0.80067307  0.80225650  1
  Zn  Zn98  1  0.19169147  0.40605328  0.38933885  1
  Zn  Zn99  1  0.18725190  0.43073316  0.93719990  1
  Zn  Zn100  1  0.19182200  0.93585227  0.43486548  1
  Zn  Zn101  1  0.18735904  0.93221215  0.94104149  1
  Zn  Zn102  1  0.68120005  0.40223131  0.53420856  1
  Zn  Zn103  1  0.68206664  0.42557603  0.94475869  1
  Zn  Zn104  1  0.68935364  0.94157132  0.43526678  1
  Zn  Zn105  1  0.68442999  0.93577744  0.94179440  1
  Zn  Zn106  1  0.30431193  0.05349508  0.05526210  1
  Zn  Zn107  1  0.29830366  0.06060184  0.55820233  1
  Zn  Zn108  1  0.32433088  0.48097501  0.05459619  1
  Zn  Zn109  1  0.31069831  0.55856638  0.56396700  1
  Zn  Zn110  1  0.80942207  0.06076899  0.06164342  1
  Zn  Zn111  1  0.83491354  0.04400960  0.58300950  1
  Zn  Zn112  1  0.79060755  0.56863120  0.15559644  1
  Zn  Zn113  1  0.76307469  0.55924886  0.57616637  1
  Zn  Zn114  1  0.43281688  0.42966210  0.19700247  1
  Zn  Zn115  1  0.42424034  0.43984054  0.69894538  1
  Zn  Zn116  1  0.43222772  0.93842324  0.18734091  1
  Zn  Zn117  1  0.45064920  0.91221099  0.66940837  1
  Zn  Zn118  1  0.95510785  0.44687923  0.19489537  1
  Zn  Zn119  1  0.94280348  0.43798545  0.69216324  1
  Zn  Zn120  1  0.93574201  0.93667610  0.18886389  1
  Zn  Zn121  1  0.93452813  0.92142885  0.69203668  1
  Zn  Zn122  1  0.10320931  0.11237307  0.27680770  1
  Zn  Zn123  1  0.06466434  0.04937625  0.81284748  1
  Zn  Zn124  1  0.05571669  0.54484810  0.30821077  1
  Zn  Zn125  1  0.05713482  0.56300230  0.81664093  1
  Zn  Zn126  1  0.54521801  0.06274782  0.30040398  1
  Zn  Zn127  1  0.55533467  0.06558495  0.81111464  1
  Zn  Zn128  1  0.56947165  0.54880440  0.31589589  1
  Zn  Zn129  1  0.58181176  0.57484955  0.79346965  1
  Zn  Zn130  1  0.43971730  0.19412709  0.46597173  1
  Zn  Zn131  1  0.42764869  0.19402927  0.95257204  1
  Zn  Zn132  1  0.44817337  0.68351816  0.44714503  1
  Zn  Zn133  1  0.43760641  0.67812971  0.94079181  1
  Zn  Zn134  1  0.88984400  0.23681945  0.40185865  1
  Zn  Zn135  1  0.94464345  0.17963395  0.93734661  1
  Zn  Zn136  1  0.93754959  0.69595693  0.44076745  1
  Zn  Zn137  1  0.93157118  0.67779891  0.94191658  1
  Zn  Zn138  1  0.07490874  0.31057993  0.06700583  1
  Zn  Zn139  1  0.04300415  0.33252396  0.57473721  1
  Zn  Zn140  1  0.05970919  0.80529161  0.06078672  1
  Zn  Zn141  1  0.06790231  0.81339006  0.54060792  1
  Zn  Zn142  1  0.51967175  0.31913924  0.05424812  1
  Zn  Zn143  1  0.52660611  0.34637768  0.61037104  1
  Zn  Zn144  1  0.56699238  0.81983462  0.06048058  1
  Zn  Zn145  1  0.56361145  0.81655586  0.56173826  1
  O  O146  1  0.11454970  0.10527611  0.10701164  1
  O  O147  1  0.11559934  0.10788718  0.63660926  1
  O  O148  1  0.12563327  0.62785954  0.10657524  1
  O  O149  1  0.12350001  0.61836858  0.64667670  1
  O  O150  1  0.62587037  0.11522575  0.11709969  1
  O  O151  1  0.63586375  0.12136811  0.62930341  1
  O  O152  1  0.61251634  0.63081244  0.11248396  1
  O  O153  1  0.67620916  0.59576287  0.65880217  1
  O  O154  1  0.39434523  0.39261710  0.36951972  1
  O  O155  1  0.38455212  0.40564163  0.85642427  1
  O  O156  1  0.37526112  0.87516532  0.38192221  1
  O  O157  1  0.38162734  0.87576876  0.88113554  1
  O  O158  1  0.87552329  0.45597714  0.34398694  1
  O  O159  1  0.89498861  0.37585219  0.87753298  1
  O  O160  1  0.87669567  0.89333011  0.37683276  1
  O  O161  1  0.88032127  0.87880364  0.86712702  1
  O  O162  1  0.26051150  -0.01104416  0.35764212  1
  O  O163  1  0.25788142  -0.00963005  0.87318933  1
  O  O164  1  0.27166116  0.48815274  0.38354131  1
  O  O165  1  0.25628823  0.51244151  0.87628367  1
  O  O166  1  0.75409672  0.00345740  0.35788314  1
  O  O167  1  0.75599559  0.00016221  0.87493998  1
  O  O168  1  0.80695780  0.47504212  0.33503868  1
  O  O169  1  0.74785672  0.45949929  0.85233820  1
  O  O170  1  0.23973545  0.52252660  0.11779792  1
  O  O171  1  0.23112737  0.49638388  0.62280177  1
  O  O172  1  0.24236892  0.98318487  0.12747919  1
  O  O173  1  0.23497530  0.98539593  0.62475599  1
  O  O174  1  0.75008852  0.48032996  0.10099378  1
  O  O175  1  0.76582794  0.45116990  0.59497157  1
  O  O176  1  0.73788644  0.99596678  0.12820062  1
  O  O177  1  0.73791575  1.00321206  0.63845883  1
  O  O178  1  0.01471322  0.35168155  0.22876710  1
  O  O179  1  0.00794662  0.36466490  0.76649137  1
  O  O180  1  0.00229466  0.88669166  0.26345633  1
  O  O181  1  0.00680015  0.87534778  0.76759735  1
  O  O182  1  0.50150258  0.36371173  0.25997825  1
  O  O183  1  0.49272277  0.36060163  0.76016192  1
  O  O184  1  0.51313250  0.88362530  0.24860831  1
  O  O185  1  0.51490442  0.88760343  0.76552250  1
  O  O186  1  0.47608338  0.12984454  0.24285405  1
  O  O187  1  0.50448227  0.13129346  0.73483588  1
  O  O188  1  0.50740176  0.61739171  0.23649671  1
  O  O189  1  0.49826804  0.63591611  0.74472594  1
  O  O190  1  0.99016320  0.12556944  0.23310930  1
  O  O191  1  0.99709779  0.12478613  0.75413567  1
  O  O192  1  1.05415029  0.69026641  0.25389699  1
  O  O193  1  0.98163549  0.63366158  0.76401110  1
  O  O194  1  0.34487746  0.27282695  -0.05698190  1
  O  O195  1  0.35214807  0.23657924  0.52662808  1
  O  O196  1  0.36807465  0.75008848  0.00571322  1
  O  O197  1  0.36755526  0.75767415  0.49974356  1
  O  O198  1  0.86431601  0.24076582  -0.00599210  1
  O  O199  1  0.88280532  0.23010048  0.51786179  1
  O  O200  1  0.85789368  0.74512458  0.00141518  1
  O  O201  1  0.86246195  0.76541269  0.51545413  1
  O  O202  1  0.13098939  0.29459489  0.49934595  1
  O  O203  1  0.11962454  0.22601695  0.99982145  1
  O  O204  1  0.13852919  0.73434747  0.49397987  1
  O  O205  1  0.13059844  0.73817039  0.99526000  1
  O  O206  1  0.69532855  0.22447468  0.51349185  1
  O  O207  1  0.61922311  0.23713926  0.99590804  1
  O  O208  1  0.63404465  0.76496036  0.48910176  1
  O  O209  1  0.62861042  0.75058965  0.99312053  1
  O  O210  1  0.42764889  0.25497879  0.05873467  1
  O  O211  1  0.46546141  0.24493700  0.63275524  1
  O  O212  1  0.49038310  0.75674882  0.11804557  1
  O  O213  1  0.48568827  0.80193013  0.63745995  1
  O  O214  1  1.00648028  0.23141825  0.12086043  1
  O  O215  1  0.99882161  0.22928354  0.64166866  1
  O  O216  1  0.97534401  0.76293480  0.11989627  1
  O  O217  1  0.99880861  0.74322706  0.60274275  1
  O  O218  1  -0.00777933  0.24848755  0.34800704  1
  O  O219  1  0.00190390  0.25789064  0.87465290  1
  O  O220  1  -0.01879727  0.77290014  0.37386830  1
  O  O221  1  0.00884823  0.75217998  0.88659984  1
  O  O222  1  0.47651903  0.26376223  0.38429515  1
  O  O223  1  0.51276332  0.23577635  0.87047093  1
  O  O224  1  0.51804683  0.75605888  0.38548688  1
  O  O225  1  0.50734541  0.76356242  0.88408676  1
  O  O226  1  0.22790908  0.11440178  0.49639522  1
  O  O227  1  0.23453516  0.11330601  0.99046191  1
  O  O228  1  0.24565836  0.63656410  0.50051957  1
  O  O229  1  0.23875977  0.63547284  0.98667768  1
  O  O230  1  0.66255280  0.12973142  0.40688438  1
  O  O231  1  0.74025916  0.13316789  0.99968425  1
  O  O232  1  0.74445867  0.65156704  0.51458534  1
  O  O233  1  0.72907017  0.64737015  1.00489908  1
  O  O234  1  0.27010602  0.38891044  -0.00202597  1
  O  O235  1  0.18873098  0.36089837  0.49741498  1
  O  O236  1  0.25428800  0.85956668  0.01002798  1
  O  O237  1  0.25415866  0.86069477  0.50033514  1
  O  O238  1  0.75039786  0.35776792  0.00781345  1
  O  O239  1  0.70272616  0.28883024  0.47617499  1
  O  O240  1  0.73933966  0.86640266  0.01257777  1
  O  O241  1  0.75659928  0.87436771  0.50457488  1
  O  O242  1  0.12738403  0.50428969  0.22556365  1
  O  O243  1  0.11936188  0.49144874  0.74768741  1
  O  O244  1  0.13332168  1.00856847  0.23264890  1
  O  O245  1  0.12498173  0.98511341  0.73853298  1
  O  O246  1  0.61760259  0.47024030  0.24891615  1
  O  O247  1  0.66903657  0.54017167  0.72641616  1
  O  O248  1  0.62829915  1.00336391  0.24229559  1
  O  O249  1  0.63640351  0.99449408  0.75712877  1
  O  O250  1  0.36839419  0.01141170  0.25435384  1
  O  O251  1  0.37840342  -0.01548020  0.76362093  1
  O  O252  1  0.38813508  0.51163914  0.26577197  1
  O  O253  1  0.38104145  0.52489353  0.76143077  1
  O  O254  1  0.86468806  0.00648998  0.25333608  1
  O  O255  1  0.86685927  0.00282893  0.76127499  1
  O  O256  1  0.95195698  0.52798291  0.27258285  1
  O  O257  1  0.87156512  0.51135173  0.74289670  1
  O  O258  1  0.02161492  0.39086501  0.40342746  1
  O  O259  1  0.11453927  0.37839218  0.86628277  1
  O  O260  1  0.10154927  0.87981022  0.38959486  1
  O  O261  1  0.11738083  0.85817618  0.88566545  1
  O  O262  1  0.61215383  0.36422117  0.37007709  1
  O  O263  1  0.61418258  0.35559447  0.87562207  1
  O  O264  1  0.62198640  0.88033847  0.36585076  1
  O  O265  1  0.61771062  0.87196385  0.87081377  1
  O  O266  1  0.37590689  0.11178957  0.12092323  1
  O  O267  1  0.37710037  0.09940807  0.63223010  1
  O  O268  1  0.39491784  0.63002703  0.13938269  1
  O  O269  1  0.37329809  0.62519931  0.63808765  1
  O  O270  1  0.88676628  0.11192954  0.12892672  1
  O  O271  1  0.88717166  0.12537574  0.64255408  1
  O  O272  1  0.87368409  0.63934415  0.12355485  1
  O  O273  1  0.87348294  0.64189300  0.63915120  1
  O  O274  1  0.26351128  0.25936652  0.10145531  1
  O  O275  1  0.24475185  0.25302445  0.62529628  1
  O  O276  1  0.26310375  0.74628182  0.11815401  1
  O  O277  1  0.25455758  0.76126760  0.61185674  1
  O  O278  1  0.75398930  0.25338256  0.11022718  1
  O  O279  1  0.78772265  0.26110075  0.64708243  1
  O  O280  1  0.75356033  0.75955089  0.11594817  1
  O  O281  1  0.73975133  0.77303355  0.61487000  1
  O  O282  1  0.26625138  0.26380448  0.37854141  1
  O  O283  1  0.23270220  0.22297557  0.86483558  1
  O  O284  1  0.25379457  0.74943135  0.38426067  1
  O  O285  1  0.23868419  0.74791668  0.88255252  1
  O  O286  1  0.80452317  0.30627271  0.38980763  1
  O  O287  1  0.73862924  0.24372148  0.89064315  1
  O  O288  1  0.74376043  0.75837336  0.39064270  1
  O  O289  1  0.73890870  0.76697189  0.89155133  1
  O  O290  1  0.00806852  0.10698214  0.00014203  1
  O  O291  1  0.00077792  0.11347743  0.51717124  1
  O  O292  1  0.01325825  0.60971536  -0.00800790  1
  O  O293  1  0.01918046  0.62699573  0.48210590  1
  O  O294  1  0.50407361  0.11179836  -0.00751055  1
  O  O295  1  0.50251618  0.13081089  0.53359661  1
  O  O296  1  0.51148487  0.62775647  0.01125635  1
  O  O297  1  0.50549021  0.60960471  0.51442132  1
  O  O298  1  0.51113929  0.37143641  0.49390999  1
  O  O299  1  0.49301215  0.38113838  0.96265241  1
  O  O300  1  0.47987202  0.87924535  0.49688128  1
  O  O301  1  0.49684931  0.88585038  0.99056371  1
  O  O302  1  0.99386982  0.40477542  0.47845113  1
  O  O303  1  1.01565654  0.37878550  0.99092252  1
  O  O304  1  0.97791591  0.87843416  0.49876440  1
  O  O305  1  0.99894898  0.88154813  0.99214206  1
  O  O306  1  0.50414317  0.48904870  0.39605087  1
  O  O307  1  0.52395808  0.49396430  0.85251935  1
  O  O308  1  0.47775819  0.99828612  0.36832454  1
  O  O309  1  0.49164002  0.99357371  0.88303819  1
  O  O310  1  1.08006042  0.44432408  0.38021069  1
  O  O311  1  1.00475129  0.48509295  0.88837547  1
  O  O312  1  0.98756211  0.99699449  0.38676320  1
  O  O313  1  0.99199520  0.98713421  0.88229164  1
  O  O314  1  0.00426168  -0.00164248  0.11642884  1
  O  O315  1  0.00433599  0.00211746  0.63704622  1
  O  O316  1  0.02467290  0.48844915  0.10584221  1
  O  O317  1  0.01842092  0.49443080  0.62313506  1
  O  O318  1  0.50847693  -0.00914733  0.11285354  1
  O  O319  1  0.51792461  0.00853372  0.63484453  1
  O  O320  1  0.49784647  0.50586809  0.12375777  1
  O  O321  1  0.49608406  0.46820292  0.61141611  1
  O  O322  1  0.22165012  0.31230501  0.32437821  1
  O  O323  1  0.23425363  0.37228240  0.76857188  1
  O  O324  1  0.25537176  0.87779654  0.23733214  1
  O  O325  1  0.25595180  0.86776902  0.72840716  1
  O  O326  1  0.73172595  0.37348605  0.21726456  1
  O  O327  1  0.75071337  0.39552689  0.79228140  1
  O  O328  1  0.73818966  0.89037437  0.24179058  1
  O  O329  1  0.74465316  0.88626663  0.74394599  1
  O  O330  1  0.25783514  0.10795383  0.23913266  1
  O  O331  1  0.23764396  0.10587552  0.76565627  1
  O  O332  1  0.27982623  0.62537118  0.25717544  1
  O  O333  1  0.24620135  0.63248016  0.76060544  1
  O  O334  1  0.76368366  0.12017825  0.23221784  1
  O  O335  1  0.76319663  0.11401118  0.76234038  1
  O  O336  1  0.73819109  0.61178005  0.24087066  1
  O  O337  1  0.80605994  0.68786257  0.76973614  1
  O  O338  1  0.37486713  0.11575478  0.38444954  1
  O  O339  1  0.35485815  0.11006940  0.88506885  1
  O  O340  1  0.39492469  0.61706085  0.36738222  1
  O  O341  1  0.36789241  0.62813306  0.86036288  1
  O  O342  1  0.87708026  0.12260806  0.35085635  1
  O  O343  1  0.87249262  0.11045648  0.87208004  1
  O  O344  1  0.86718599  0.60131038  0.42231210  1
  O  O345  1  0.87582790  0.60124539  0.87490912  1
  O  O346  1  0.14539869  0.38213237  0.12212922  1
  O  O347  1  0.12274082  0.37864150  0.64915951  1
  O  O348  1  0.13391151  0.87561241  0.11957117  1
  O  O349  1  0.13621791  0.87576270  0.61145387  1
  O  O350  1  0.59391624  0.36046871  0.12575616  1
  O  O351  1  0.63869422  0.34437572  0.63052807  1
  O  O352  1  0.63110540  0.88657919  0.13314637  1
  O  O353  1  0.63440449  0.89323312  0.63407540  1
  O  O354  1  0.11704794  0.22270151  0.24079830  1
  O  O355  1  0.11597849  0.25756147  0.75045905  1
  O  O356  1  0.11661110  0.72764249  0.24897942  1
  O  O357  1  0.12476731  0.74904329  0.76880291  1
  O  O358  1  0.63768579  0.26530153  0.25811031  1
  O  O359  1  0.63722115  0.23966882  0.76642417  1
  O  O360  1  0.63396036  0.76515783  0.26591795  1
  O  O361  1  0.63851844  0.76573550  0.76200907  1
  O  O362  1  0.34751686  0.22915174  0.23619978  1
  O  O363  1  0.35312738  0.24875552  0.73832690  1
  O  O364  1  0.38393422  0.73942370  0.24382250  1
  O  O365  1  0.37215376  0.73621054  0.74744345  1
  O  O366  1  0.88627032  0.23535508  0.23541786  1
  O  O367  1  0.88964500  0.23470738  0.76172466  1
  O  O368  1  0.86246092  0.75401916  0.23692819  1
  O  O369  1  0.88363472  0.80395344  0.69629755  1
  O  O370  1  0.38644655  0.50730494  0.49012897  1
  O  O371  1  0.38793252  0.52368304  0.96887621  1
  O  O372  1  0.35918038  0.98764782  0.48204858  1
  O  O373  1  0.38058620  0.98884463  0.99323872  1
  O  O374  1  0.87018107  0.54840423  0.48014582  1
  O  O375  1  0.89724165  0.49543871  1.00520461  1
  O  O376  1  0.85579212  1.00459070  0.47951115  1
  O  O377  1  0.88085237  1.00190289  0.98923175  1
  O  O378  1  0.11501187  -0.00558063  0.00917717  1
  O  O379  1  0.11473229  -0.00553802  0.50846530  1
  O  O380  1  0.12741954  0.51152916  0.00070538  1
  O  O381  1  0.12736819  0.52781391  0.51959077  1
  O  O382  1  0.61670875  0.00861610  0.00536823  1
  O  O383  1  0.63551565  0.00622496  0.51488934  1
  O  O384  1  0.63306029  0.52004528  -0.01416364  1
  O  O385  1  0.61692975  0.49423883  0.50771588  1
  O  O386  1  0.37191245  0.39032915  0.11076695  1
  O  O387  1  0.35413309  0.37086904  0.62855988  1
  O  O388  1  0.36629270  0.86614408  0.12117816  1
  O  O389  1  0.35510424  0.88971679  0.60280966  1
  O  O390  1  0.87150333  0.38840957  0.14149718  1
  O  O391  1  0.92395093  0.35266651  0.61446544  1
  O  O392  1  0.85783372  0.87595615  0.12870354  1
  O  O393  1  0.85561824  0.92009508  0.60617898  1
  O  O394  1  0.10634287  0.11035435  0.38970491  1
  O  O395  1  0.13085565  0.10399914  0.88907773  1
  O  O396  1  0.13181222  0.60215766  0.37467960  1
  O  O397  1  0.12857352  0.63480766  0.88102707  1
  O  O398  1  0.59871469  0.14885686  0.37440620  1
  O  O399  1  0.63043039  0.12851027  0.88447304  1
  O  O400  1  0.62247495  0.64099608  0.36888549  1
  O  O401  1  0.61635769  0.64305189  0.88497890  1
