# generated using pymatgen
data_V73Zn73O256
_symmetry_space_group_name_H-M   'P 1'
_cell_length_a   16.96254226
_cell_length_b   17.00183525
_cell_length_c   16.90054028
_cell_angle_alpha   90.03107832
_cell_angle_beta   89.74257418
_cell_angle_gamma   90.03650702
_symmetry_Int_Tables_number   1
_chemical_formula_structural   V73Zn73O256
_chemical_formula_sum   'V73 Zn73 O256'
_cell_volume   4873.96941709
_cell_formula_units_Z   1
loop_
 _symmetry_equiv_pos_site_id
 _symmetry_equiv_pos_as_xyz
  1  'x, y, z'
loop_
 _atom_site_type_symbol
 _atom_site_label
 _atom_site_symmetry_multiplicity
 _atom_site_fract_x
 _atom_site_fract_y
 _atom_site_fract_z
 _atom_site_occupancy
  V  V0  1  0.75190167  0.13887267  0.38740473  1
  V  V1  1  0.25005739  0.74709622  -0.00135757  1
  V  V2  1  0.50089402  0.37090313  0.86494829  1
  V  V3  1  0.88437307  0.49134898  0.37667185  1
  V  V4  1  0.76005340  0.24822372  0.01504664  1
  V  V5  1  0.24485132  0.38525169  0.13603778  1
  V  V6  1  0.36948925  0.61847492  0.25352786  1
  V  V7  1  0.00971304  0.12779309  0.63096762  1
  V  V8  1  0.23766814  0.62826682  0.87541513  1
  V  V9  1  0.25686632  0.60966968  0.37765533  1
  V  V10  1  0.62008575  0.25965750  0.37436107  1
  V  V11  1  0.62092981  0.12306313  0.51539531  1
  V  V12  1  0.11404216  0.86335195  0.76268397  1
  V  V13  1  0.11180137  0.24372262  0.37576842  1
  V  V14  1  0.11721538  0.24335811  0.88166493  1
  V  V15  1  0.62935281  0.49455468  0.63569296  1
  V  V16  1  0.10105517  0.37820232  0.25405628  1
  V  V17  1  0.39002367  0.24576669  0.12633736  1
  V  V18  1  0.36840764  0.37515660  -0.00315652  1
  V  V19  1  0.37856135  0.87313091  0.50059380  1
  V  V20  1  0.62476448  0.64773571  -0.00762093  1
  V  V21  1  0.75574279  0.88718368  0.64838406  1
  V  V22  1  0.36959876  0.49990167  0.87353105  1
  V  V23  1  0.87394924  0.25351163  0.62383272  1
  V  V24  1  0.24165351  0.23855599  0.00083689  1
  V  V25  1  0.39156588  0.12453413  0.25059545  1
  V  V26  1  0.86914549  0.14260734  0.24124084  1
  V  V27  1  0.02555143  0.13770832  0.13515018  1
  V  V28  1  0.62305756  0.75617497  0.36932351  1
  V  V29  1  -0.00328489  0.82656116  0.88392552  1
  V  V30  1  0.75843742  0.62383630  0.36868682  1
  V  V31  1  0.62436417  0.00210347  0.11854249  1
  V  V32  1  0.62335125  0.62565122  0.49996737  1
  V  V33  1  0.11907022  0.37659637  0.74761129  1
  V  V34  1  0.35403496  0.12133030  0.74762940  1
  V  V35  1  0.24296839  0.88020715  0.12100965  1
  V  V36  1  0.12179366  0.61263990  0.03101160  1
  V  V37  1  0.24435734  0.49374157  0.73512907  1
  V  V38  1  0.58781962  0.94036091  0.71628613  1
  V  V39  1  0.12668102  0.62105479  0.50017095  1
  V  V40  1  0.88180124  0.73980099  0.63482853  1
  V  V41  1  0.13962039  0.75656472  0.37739008  1
  V  V42  1  -0.01212582  0.74725334  0.24269429  1
  V  V43  1  -0.00300480  0.39860378  0.89129911  1
  V  V44  1  0.35681974  -0.00026671  0.88559701  1
  V  V45  1  0.87466053  0.87630118  0.50632296  1
  V  V46  1  0.50738456  0.88852738  0.37962126  1
  V  V47  1  0.37019351  0.62452264  0.74939183  1
  V  V48  1  0.73858702  0.48963979  0.24186889  1
  V  V49  1  0.00020671  0.87096211  0.37476383  1
  V  V50  1  0.92815600  0.57107539  0.19716765  1
  V  V51  1  0.24399504  0.87830181  0.62889660  1
  V  V52  1  0.49665702  0.62392251  0.62448629  1
  V  V53  1  0.87736696  0.11782214  0.75950515  1
  V  V54  1  0.87267380  0.38216517  0.02721162  1
  V  V55  1  0.12270399  0.88118681  0.24568065  1
  V  V56  1  0.00191377  0.62083965  0.63205984  1
  V  V57  1  0.49508309  0.49205435  0.49188157  1
  V  V58  1  0.00872565  0.01765423  0.00413048  1
  V  V59  1  0.86844426  0.00084706  0.36923221  1
  V  V60  1  0.49290426  0.88373665  0.87020334  1
  V  V61  1  0.75089330  0.59611251  0.87097234  1
  V  V62  1  0.50256388  0.62376388  0.12314224  1
  V  V63  1  0.01343762  -0.00172439  0.50648379  1
  V  V64  1  0.37604238  0.75772066  0.12899625  1
  V  V65  1  0.49960635  0.24742479  0.73824235  1
  V  V66  1  0.50634522  0.75051438  0.75132476  1
  V  V67  1  0.50576984  0.49851679  -0.00253320  1
  V  V68  1  0.35252500  0.25438424  0.62063785  1
  V  V69  1  0.36387883  0.74500419  0.62009440  1
  V  V70  1  0.64245599  0.25192276  0.86730332  1
  V  V71  1  0.74720392  0.75046758  0.50662968  1
  V  V72  1  0.35776314  0.37277288  0.49473986  1
  Zn  Zn73  1  0.13683440  0.00892556  0.64259913  1
  Zn  Zn74  1  0.49971486  0.37335090  0.36799858  1
  Zn  Zn75  1  0.36100326  0.02099521  0.40029016  1
  Zn  Zn76  1  0.24759112  0.14256142  0.38265168  1
  Zn  Zn77  1  0.50048656  0.75392718  0.24802027  1
  Zn  Zn78  1  -0.00536940  0.49272743  0.50323696  1
  Zn  Zn79  1  0.74717817  0.37451180  0.61817590  1
  Zn  Zn80  1  0.74878759  0.10476988  0.87184020  1
  Zn  Zn81  1  0.24602626  0.01420046  0.24958082  1
  Zn  Zn82  1  0.20188898  0.20171651  0.20209481  1
  Zn  Zn83  1  0.17708389  0.19780340  0.69072501  1
  Zn  Zn84  1  0.19049701  0.69497484  0.19528731  1
  Zn  Zn85  1  0.18597651  0.68691241  0.68629666  1
  Zn  Zn86  1  0.73779906  0.27868536  0.21872026  1
  Zn  Zn87  1  0.69393995  0.18740063  0.69572898  1
  Zn  Zn88  1  0.68969769  0.68465389  0.18317502  1
  Zn  Zn89  1  0.69047085  0.68132080  0.69074604  1
  Zn  Zn90  1  0.31219437  0.30913301  0.31553469  1
  Zn  Zn91  1  0.30404039  0.30878249  0.81121913  1
  Zn  Zn92  1  0.30818643  0.84146197  0.31826515  1
  Zn  Zn93  1  0.30978652  0.81322281  0.81240897  1
  Zn  Zn94  1  0.82578241  0.31911863  0.45002602  1
  Zn  Zn95  1  0.83991636  0.30874017  0.80292025  1
  Zn  Zn96  1  0.81425328  0.81032140  0.31629328  1
  Zn  Zn97  1  0.83248014  0.80314125  0.81163168  1
  Zn  Zn98  1  0.15246452  0.41107681  0.45628831  1
  Zn  Zn99  1  0.18526130  0.43952751  0.93882928  1
  Zn  Zn100  1  0.20955036  0.96373445  0.44080060  1
  Zn  Zn101  1  0.17547273  0.93449648  0.94092789  1
  Zn  Zn102  1  0.68841840  0.44064906  0.44011108  1
  Zn  Zn103  1  0.68931437  0.42407490  0.94290394  1
  Zn  Zn104  1  0.68744670  0.93869869  0.45331296  1
  Zn  Zn105  1  0.69740957  0.91591241  0.86368188  1
  Zn  Zn106  1  0.31299550  0.06328988  0.06700707  1
  Zn  Zn107  1  0.31634565  0.06472189  0.56540205  1
  Zn  Zn108  1  0.31204407  0.56648351  0.06264653  1
  Zn  Zn109  1  0.30864734  0.55948780  0.55321242  1
  Zn  Zn110  1  0.84451637  -0.05492951  -0.05385121  1
  Zn  Zn111  1  0.81896027  0.06747480  0.56573282  1
  Zn  Zn112  1  0.80305830  0.56384159  0.05992823  1
  Zn  Zn113  1  0.81225029  0.55815616  0.55900614  1
  Zn  Zn114  1  0.41831532  0.44648311  0.17625781  1
  Zn  Zn115  1  0.43318659  0.43483619  0.67883948  1
  Zn  Zn116  1  0.43660870  0.93134475  0.19616570  1
  Zn  Zn117  1  0.41592534  0.93520091  0.69406076  1
  Zn  Zn118  1  0.89000422  0.35717908  0.24439398  1
  Zn  Zn119  1  0.94657998  0.43361516  0.68659281  1
  Zn  Zn120  1  0.89503700  0.99414627  0.14514366  1
  Zn  Zn121  1  0.94400124  0.93506281  0.69822616  1
  Zn  Zn122  1  0.05299392  0.06674969  0.30798812  1
  Zn  Zn123  1  0.06344430  0.05247592  0.81612278  1
  Zn  Zn124  1  0.07338985  0.56342133  0.30618294  1
  Zn  Zn125  1  0.06365962  0.55933277  0.80918274  1
  Zn  Zn126  1  0.57032528  0.07437311  0.31187173  1
  Zn  Zn127  1  0.53616806  0.08923127  0.85433708  1
  Zn  Zn128  1  0.56154097  0.56669518  0.30943396  1
  Zn  Zn129  1  0.56289975  0.56408043  0.81678251  1
  Zn  Zn130  1  0.44532345  0.18954725  0.44253303  1
  Zn  Zn131  1  0.41670253  0.18745132  0.92989291  1
  Zn  Zn132  1  0.43829564  0.68998564  0.43851171  1
  Zn  Zn133  1  0.43598317  0.69339685  0.93836147  1
  Zn  Zn134  1  0.94835983  0.18218506  0.44406450  1
  Zn  Zn135  1  0.94043941  0.19399149  0.94928507  1
  Zn  Zn136  1  0.94157483  0.68777440  0.44229124  1
  Zn  Zn137  1  0.95248555  0.61499078  0.93011743  1
  Zn  Zn138  1  0.05947036  0.31926678  0.07005099  1
  Zn  Zn139  1  0.06181519  0.30652353  0.55684635  1
  Zn  Zn140  1  0.06670133  0.79867336  0.06232436  1
  Zn  Zn141  1  0.06530422  0.80632885  0.55997504  1
  Zn  Zn142  1  0.56573037  0.19107220  0.03588929  1
  Zn  Zn143  1  0.57005261  0.30860471  0.55982123  1
  Zn  Zn144  1  0.70693056  0.82003374  0.04837093  1
  Zn  Zn145  1  0.51126221  0.99736037  0.53542267  1
  O  O146  1  0.12402506  0.13333109  0.14629541  1
  O  O147  1  0.11688846  0.12199923  0.62903223  1
  O  O148  1  0.13634502  0.61856737  0.13084640  1
  O  O149  1  0.11527795  0.63668228  0.60903206  1
  O  O150  1  0.60355882  0.10500063  0.10867882  1
  O  O151  1  0.63458859  0.13665446  0.61348915  1
  O  O152  1  0.60902893  0.63368285  0.11239528  1
  O  O153  1  0.61485517  0.62122134  0.61677855  1
  O  O154  1  0.38401658  0.36342511  0.39148952  1
  O  O155  1  0.37173287  0.38505179  0.87621812  1
  O  O156  1  0.39340945  0.86155710  0.39323512  1
  O  O157  1  0.37936548  0.88982318  0.86052713  1
  O  O158  1  0.87680506  0.38941806  0.36731464  1
  O  O159  1  0.89971899  0.37414655  0.87395839  1
  O  O160  1  0.88164678  0.88100081  0.38466718  1
  O  O161  1  0.89990099  0.86733137  0.87411680  1
  O  O162  1  0.27751198  -0.04309036  0.34764443  1
  O  O163  1  0.25682737  -0.01433829  0.87860222  1
  O  O164  1  0.25578709  0.51488318  0.37657717  1
  O  O165  1  0.25791898  0.50936288  0.86775552  1
  O  O166  1  0.76782982  -0.01119529  0.38343785  1
  O  O167  1  0.77164086  -0.00246794  0.87740077  1
  O  O168  1  0.75858689  0.51467816  0.37470641  1
  O  O169  1  0.72878272  0.49872523  0.86806485  1
  O  O170  1  0.26515778  0.48291567  0.12223044  1
  O  O171  1  0.25217917  0.50228355  0.63647301  1
  O  O172  1  0.25597921  0.98170424  0.12713175  1
  O  O173  1  0.24858702  0.98219362  0.61947979  1
  O  O174  1  0.74099440  0.51260566  0.14508359  1
  O  O175  1  0.73013611  0.51165763  0.62273038  1
  O  O176  1  0.72498720  1.02043383  0.11751918  1
  O  O177  1  0.77227751  0.98268106  0.63273505  1
  O  O178  1  0.00256177  0.37393630  0.24469934  1
  O  O179  1  0.01493160  0.39252432  0.76926443  1
  O  O180  1  0.00719184  0.86353165  0.26328139  1
  O  O181  1  0.00803149  0.86108897  0.76006707  1
  O  O182  1  0.50485522  0.38966003  0.24291492  1
  O  O183  1  0.48545804  0.36960414  0.75916653  1
  O  O184  1  0.49128640  0.86615150  0.27350645  1
  O  O185  1  0.48921798  0.85414747  0.73814535  1
  O  O186  1  0.49212554  0.13117678  0.25115572  1
  O  O187  1  0.48081526  0.14747826  0.75800237  1
  O  O188  1  0.49081850  0.63149845  0.24344216  1
  O  O189  1  0.48646684  0.62812494  0.74651281  1
  O  O190  1  0.97996212  0.13222829  0.24286183  1
  O  O191  1  1.00137162  0.11630136  0.73422834  1
  O  O192  1  0.99864213  0.63695124  0.25320628  1
  O  O193  1  1.01101000  0.62453945  0.73110521  1
  O  O194  1  0.36116407  0.25738154  0.00261147  1
  O  O195  1  0.37722439  0.25971212  0.51158752  1
  O  O196  1  0.36357524  0.73891219  0.01643768  1
  O  O197  1  0.38767853  0.76076653  0.51302317  1
  O  O198  1  0.86783531  0.26550091  0.00394351  1
  O  O199  1  0.87878451  0.23965241  0.51439561  1
  O  O200  1  0.80091008  0.75221866  -0.03831715  1
  O  O201  1  0.86526555  0.76015026  0.50208086  1
  O  O202  1  0.12459067  0.25017869  0.47826516  1
  O  O203  1  0.13573689  0.25897742  0.99542437  1
  O  O204  1  0.12172655  0.74096055  0.48210221  1
  O  O205  1  0.14464617  0.72925753  1.01121464  1
  O  O206  1  0.62444615  0.23494703  0.48981205  1
  O  O207  1  0.64280397  0.25666878  0.97554996  1
  O  O208  1  0.63759447  0.74002738  0.49467552  1
  O  O209  1  0.62905012  0.74532096  0.99556391  1
  O  O210  1  0.48708467  0.24648368  0.10386978  1
  O  O211  1  0.49520509  0.25818657  0.63668355  1
  O  O212  1  0.48169671  0.73942845  0.12409920  1
  O  O213  1  0.48441788  0.73087086  0.63665073  1
  O  O214  1  1.00077162  0.23590141  0.12049051  1
  O  O215  1  1.00234321  0.22874374  0.61585726  1
  O  O216  1  1.00090796  0.75695068  0.14466434  1
  O  O217  1  0.98764479  0.73927221  0.61380755  1
  O  O218  1  0.00847390  0.24285459  0.37194329  1
  O  O219  1  0.01654165  0.26652913  0.89068722  1
  O  O220  1  0.00417940  0.75898300  0.37310064  1
  O  O221  1  -0.01528954  0.72886263  0.87916649  1
  O  O222  1  0.51577353  0.25278759  0.37342712  1
  O  O223  1  0.48909806  0.26593460  0.86473553  1
  O  O224  1  0.51791318  0.75124821  0.38108338  1
  O  O225  1  0.48319186  0.76019459  0.85615969  1
  O  O226  1  0.26348309  0.06770217  0.46568607  1
  O  O227  1  0.24827574  0.14055673  1.00811774  1
  O  O228  1  0.24520337  0.63021139  0.48743579  1
  O  O229  1  0.24548215  0.62783597  0.99213893  1
  O  O230  1  0.74270667  0.11176186  0.49267032  1
  O  O231  1  0.76370868  0.15628868  0.97357269  1
  O  O232  1  0.74205590  0.63172713  0.49267449  1
  O  O233  1  0.72505578  0.61276119  0.99243870  1
  O  O234  1  0.25929748  0.37534129  0.00572730  1
  O  O235  1  0.26059128  0.38566474  0.49270291  1
  O  O236  1  0.24029961  0.86209258  0.01378595  1
  O  O237  1  0.27259406  0.87815966  0.50594299  1
  O  O238  1  0.76280342  0.36148545  -0.00062324  1
  O  O239  1  0.76029243  0.38901249  0.50711150  1
  O  O240  1  0.74438860  0.88151318  -0.03558989  1
  O  O241  1  0.75643318  0.86715038  0.51863508  1
  O  O242  1  0.12620317  0.47778581  0.25997151  1
  O  O243  1  0.13815950  0.49284310  0.75052114  1
  O  O244  1  0.12433019  0.98294191  0.26065005  1
  O  O245  1  0.11845567  0.97371511  0.75062921  1
  O  O246  1  0.63993037  0.49781589  0.26682998  1
  O  O247  1  0.61261626  0.50567713  0.73367236  1
  O  O248  1  0.62304209  1.01289144  0.22522014  1
  O  O249  1  0.63746081  1.01870243  0.74263188  1
  O  O250  1  0.38045785  0.02114623  0.23545201  1
  O  O251  1  0.36042102  0.02025656  0.73947560  1
  O  O252  1  0.37989914  0.51966713  0.25401491  1
  O  O253  1  0.36443081  0.50600573  0.75227494  1
  O  O254  1  0.88456177  0.00871691  0.26957769  1
  O  O255  1  0.88811726  0.01679002  0.75130801  1
  O  O256  1  0.86037472  0.51233430  0.26350255  1
  O  O257  1  0.84088513  0.46465326  0.73403438  1
  O  O258  1  0.12217351  0.36087334  0.35954947  1
  O  O259  1  0.11222229  0.37813099  0.87620361  1
  O  O260  1  0.11863842  0.86448195  0.37126502  1
  O  O261  1  0.11363422  0.86199353  0.86824929  1
  O  O262  1  0.62364690  0.36361306  0.38534168  1
  O  O263  1  0.60404916  0.36765349  0.87215260  1
  O  O264  1  0.62050574  0.86474412  0.38483982  1
  O  O265  1  0.59603792  0.89450716  0.82370237  1
  O  O266  1  0.37242451  0.13985567  0.12981185  1
  O  O267  1  0.36770719  0.14313872  0.63171389  1
  O  O268  1  0.37538543  0.63177224  0.13856084  1
  O  O269  1  0.37616035  0.62463526  0.62878985  1
  O  O270  1  0.85491912  0.11285391  0.14824082  1
  O  O271  1  0.88886086  0.12964478  0.63222728  1
  O  O272  1  0.87288096  0.62132700  0.13008261  1
  O  O273  1  0.88700907  0.63359149  0.61150292  1
  O  O274  1  0.25782648  0.26426449  0.11206621  1
  O  O275  1  0.25397220  0.25592044  0.62261202  1
  O  O276  1  0.25992098  0.75465549  0.11975159  1
  O  O277  1  0.25873735  0.75451414  0.62207722  1
  O  O278  1  0.73451842  0.24052369  0.11181978  1
  O  O279  1  0.76847588  0.25975587  0.63686203  1
  O  O280  1  0.74728705  0.75956840  0.12823562  1
  O  O281  1  0.76209068  0.74734265  0.62114963  1
  O  O282  1  0.23576163  0.25252740  0.37217407  1
  O  O283  1  0.24049561  0.25691381  0.89272875  1
  O  O284  1  0.23927687  0.75878811  0.37090772  1
  O  O285  1  0.26224947  0.73908175  0.88589881  1
  O  O286  1  0.75360927  0.24010527  0.39092748  1
  O  O287  1  0.73771246  0.27482380  0.84833027  1
  O  O288  1  0.74171274  0.74710300  0.38266784  1
  O  O289  1  0.77326901  0.73497958  0.89312117  1
  O  O290  1  0.00421770  0.12485525  0.01796546  1
  O  O291  1  -0.00017140  0.10241699  0.51244316  1
  O  O292  1  0.02304017  0.62999089  0.01393191  1
  O  O293  1  0.01550388  0.61992389  0.49937294  1
  O  O294  1  0.50757634  0.13173544  -0.03964334  1
  O  O295  1  0.51506104  0.11867957  0.50268343  1
  O  O296  1  0.50768676  0.62068035  -0.00020000  1
  O  O297  1  0.50201521  0.61641232  0.50587378  1
  O  O298  1  0.50112077  0.38899833  0.50185957  1
  O  O299  1  0.47940668  0.38301076  0.98082465  1
  O  O300  1  0.49577578  0.88136849  0.48899969  1
  O  O301  1  0.50787810  0.87117542  0.96368507  1
  O  O302  1  1.04464782  0.39579290  0.49583770  1
  O  O303  1  0.98839793  0.38061184  0.99897700  1
  O  O304  1  0.99337022  0.87721431  0.49568638  1
  O  O305  1  1.01011780  0.84975672  0.98136520  1
  O  O306  1  0.50417456  0.49972300  0.38905754  1
  O  O307  1  0.48758079  0.49210054  0.87517097  1
  O  O308  1  0.50824084  0.98924487  0.36898228  1
  O  O309  1  0.47802014  0.99121906  0.85381866  1
  O  O310  1  0.98307841  0.51433335  0.36768787  1
  O  O311  1  0.99901435  0.50313793  0.88563023  1
  O  O312  1  0.99191267  0.99009372  0.38839574  1
  O  O313  1  0.99827413  1.01343164  0.90190913  1
  O  O314  1  0.00414763  0.02996465  0.12921461  1
  O  O315  1  0.00656250  -0.00403172  0.61556615  1
  O  O316  1  -0.01655369  0.50994528  0.14901569  1
  O  O317  1  -0.00886800  0.51735340  0.62109675  1
  O  O318  1  0.52122369  -0.02172531  0.13418989  1
  O  O319  1  0.51413582  -0.01955894  0.65233278  1
  O  O320  1  0.48426203  0.51583075  0.11007828  1
  O  O321  1  0.50381997  0.50916157  0.61702786  1
  O  O322  1  0.26437230  0.37472128  0.23401946  1
  O  O323  1  0.24083015  0.38981118  0.75547368  1
  O  O324  1  0.23656705  0.86271488  0.23076319  1
  O  O325  1  0.24524883  0.87024759  0.73348487  1
  O  O326  1  0.76175551  0.38893376  0.24697167  1
  O  O327  1  0.79259440  0.40163083  0.73298098  1
  O  O328  1  0.78310278  0.89214034  0.23186414  1
  O  O329  1  0.76317535  0.87003098  0.75022260  1
  O  O330  1  0.26871976  0.12691754  0.25768342  1
  O  O331  1  0.25586302  0.13793230  0.74896198  1
  O  O332  1  0.26182167  0.63049100  0.26335268  1
  O  O333  1  0.25341460  0.61506629  0.75329938  1
  O  O334  1  0.76865278  0.11964021  0.28387672  1
  O  O335  1  0.77201170  0.12925645  0.75522037  1
  O  O336  1  0.74262476  0.62379962  0.26720592  1
  O  O337  1  0.74232637  0.63151103  0.77552950  1
  O  O338  1  0.38417567  0.12928865  0.36297459  1
  O  O339  1  0.36587728  0.11145577  0.85891755  1
  O  O340  1  0.36646604  0.63634579  0.36665618  1
  O  O341  1  0.36949237  0.61647333  0.86560493  1
  O  O342  1  0.87008410  0.10938735  0.39023968  1
  O  O343  1  0.89103227  0.14028800  0.85866212  1
  O  O344  1  0.85936567  0.63129325  0.38058827  1
  O  O345  1  0.85029567  0.60184289  0.89242243  1
  O  O346  1  0.13856297  0.37392117  0.13684627  1
  O  O347  1  0.11445263  0.36136392  0.65021527  1
  O  O348  1  0.13444605  0.86675359  0.13240027  1
  O  O349  1  0.13901767  0.86876399  0.62071913  1
  O  O350  1  0.56274337  0.36334373  0.20113186  1
  O  O351  1  0.62596414  0.39091739  0.62168856  1
  O  O352  1  0.64504544  0.90018244  0.11758240  1
  O  O353  1  0.64826822  0.88418997  0.64903766  1
  O  O354  1  0.12720212  0.26824593  0.25538924  1
  O  O355  1  0.13555365  0.27007539  0.77233975  1
  O  O356  1  0.11548487  0.75528277  0.26421274  1
  O  O357  1  0.13059228  0.76514464  0.74395999  1
  O  O358  1  0.64497360  0.24750152  0.27642925  1
  O  O359  1  0.60550632  0.25335654  0.75382825  1
  O  O360  1  0.62553565  0.74678654  0.26714764  1
  O  O361  1  0.60389707  0.73970731  0.74447684  1
  O  O362  1  0.38095289  0.24717142  0.23263217  1
  O  O363  1  0.37345659  0.25083604  0.73637716  1
  O  O364  1  0.37297580  0.74455404  0.23802511  1
  O  O365  1  0.37116123  0.73483423  0.74091553  1
  O  O366  1  0.85289256  0.24450700  0.24381974  1
  O  O367  1  0.89164777  0.23575498  0.73221024  1
  O  O368  1  0.88885365  0.75189775  0.25626878  1
  O  O369  1  0.87850397  0.73573194  0.73312502  1
  O  O370  1  0.38635604  0.48651170  0.50579913  1
  O  O371  1  0.37865678  0.49739416  0.98781268  1
  O  O372  1  0.39328264  0.98372632  0.51360090  1
  O  O373  1  0.37122225  1.00816276  0.98407064  1
  O  O374  1  0.87820343  0.50524779  0.48190807  1
  O  O375  1  0.86238753  0.48047672  1.00868989  1
  O  O376  1  0.88477770  0.98488196  0.50076064  1
  O  O377  1  0.91185136  0.97170528  1.03029476  1
  O  O378  1  0.10513835  -0.01511347  0.01341497  1
  O  O379  1  0.11236972  -0.01467147  0.49764165  1
  O  O380  1  0.13562909  0.51629174  0.00432886  1
  O  O381  1  0.13550509  0.52264276  0.49289089  1
  O  O382  1  0.61079247  0.00037627  0.01597261  1
  O  O383  1  0.62367612  0.01397093  0.50551867  1
  O  O384  1  0.60467462  0.48701868  -0.00372127  1
  O  O385  1  0.61278227  0.51114696  0.50663966  1
  O  O386  1  0.37155009  0.36388136  0.11367472  1
  O  O387  1  0.37297969  0.36455981  0.61135147  1
  O  O388  1  0.36487589  0.86337178  0.13165018  1
  O  O389  1  0.36429113  0.86321000  0.62029647  1
  O  O390  1  0.87502134  0.37332080  0.12522491  1
  O  O391  1  0.90134714  0.35133574  0.62203498  1
  O  O392  1  0.82400867  0.89647144  0.16779240  1
  O  O393  1  0.87324432  0.85893906  0.62470778  1
  O  O394  1  0.12641373  0.13693596  0.35814030  1
  O  O395  1  0.11567472  0.14566448  0.86713846  1
  O  O396  1  0.14047661  0.63579332  0.37677092  1
  O  O397  1  0.13802633  0.62435615  0.87015904  1
  O  O398  1  0.64049069  0.13080459  0.38377341  1
  O  O399  1  0.63760510  0.14792699  0.85787211  1
  O  O400  1  0.63146912  0.63518464  0.38471211  1
  O  O401  1  0.62458730  0.62622899  0.88775014  1
