# generated using pymatgen
data_V73Zn73O256
_symmetry_space_group_name_H-M   'P 1'
_cell_length_a   16.91514408
_cell_length_b   16.92237245
_cell_length_c   16.89704575
_cell_angle_alpha   89.93737779
_cell_angle_beta   90.23356096
_cell_angle_gamma   89.95395792
_symmetry_Int_Tables_number   1
_chemical_formula_structural   V73Zn73O256
_chemical_formula_sum   'V73 Zn73 O256'
_cell_volume   4836.63953126
_cell_formula_units_Z   1
loop_
 _symmetry_equiv_pos_site_id
 _symmetry_equiv_pos_as_xyz
  1  'x, y, z'
loop_
 _atom_site_type_symbol
 _atom_site_label
 _atom_site_symmetry_multiplicity
 _atom_site_fract_x
 _atom_site_fract_y
 _atom_site_fract_z
 _atom_site_occupancy
  V  V0  1  0.38823660  0.75185212  0.62556253  1
  V  V1  1  0.24510080  0.74874719  -0.01725495  1
  V  V2  1  0.62195942  0.86491524  0.74949422  1
  V  V3  1  0.13737209  0.00956247  0.11634875  1
  V  V4  1  0.37257422  0.64254718  0.22554005  1
  V  V5  1  0.49457867  0.12179235  0.13648091  1
  V  V6  1  0.87140271  0.74672698  0.62244895  1
  V  V7  1  0.88327100  0.25750821  0.63033982  1
  V  V8  1  0.37319650  0.49949767  0.87014707  1
  V  V9  1  0.12895031  0.23132364  0.88091894  1
  V  V10  1  0.51401354  0.25389866  0.75745291  1
  V  V11  1  0.37069789  0.00073751  0.87912594  1
  V  V12  1  0.26339226  0.22377128  -0.00925413  1
  V  V13  1  0.50079774  0.12476274  0.62761085  1
  V  V14  1  0.24254822  0.24019900  0.49908941  1
  V  V15  1  0.51576267  0.37779231  0.87608981  1
  V  V16  1  0.12227197  0.37480516  0.76389644  1
  V  V17  1  0.37889599  0.25211099  0.13830101  1
  V  V18  1  0.84849742  0.25048113  0.11071409  1
  V  V19  1  0.63586838  0.88912566  0.24408172  1
  V  V20  1  0.12221525  0.86970094  0.76778679  1
  V  V21  1  0.62385315  0.62127264  0.01787684  1
  V  V22  1  0.37442228  0.25800332  0.63372401  1
  V  V23  1  0.37074317  0.89020424  0.50258148  1
  V  V24  1  0.36622447  0.36900048  0.47770179  1
  V  V25  1  0.37544854  0.86690116  0.00418688  1
  V  V26  1  0.51106494  0.75226544  0.24714179  1
  V  V27  1  0.50534439  0.88612642  0.38523579  1
  V  V28  1  0.49978075  0.86905827  0.87120059  1
  V  V29  1  0.24863290  -0.00551383  0.74918371  1
  V  V30  1  0.74745909  0.39917976  0.13495044  1
  V  V31  1  0.48597959  0.51176877  0.51059817  1
  V  V32  1  0.75145680  0.87205969  0.62022507  1
  V  V33  1  0.87937761  0.89373734  0.50199641  1
  V  V34  1  0.74768740  0.13082314  0.88560693  1
  V  V35  1  0.75304727  0.75956292  0.00647745  1
  V  V36  1  0.75054588  -0.00429243  0.75790127  1
  V  V37  1  0.00191058  0.49066445  -0.00246757  1
  V  V38  1  0.12543947  0.87669138  0.25019786  1
  V  V39  1  0.87756577  0.48901182  0.87623592  1
  V  V40  1  0.24112514  0.37618915  0.62951897  1
  V  V41  1  0.36628111  0.12705300  0.75888315  1
  V  V42  1  0.49858675  0.50365112  0.00661296  1
  V  V43  1  0.62225826  0.74476055  0.87410000  1
  V  V44  1  0.25442612  0.86369583  0.13501063  1
  V  V45  1  0.62314608  0.13558483  0.00030471  1
  V  V46  1  0.00435525  0.62173760  0.61235726  1
  V  V47  1  0.26543342  0.10715736  0.36582658  1
  V  V48  1  -0.00034102  0.74861161  0.75573661  1
  V  V49  1  -0.00101573  0.14140701  0.12320422  1
  V  V50  1  -0.00516724  -0.01099037  0.00429789  1
  V  V51  1  0.24581831  0.50389011  0.24377271  1
  V  V52  1  0.66936828  0.65439375  0.48660486  1
  V  V53  1  0.74449222  0.25197973  0.51434744  1
  V  V54  1  -0.01152905  0.75079499  0.25620464  1
  V  V55  1  0.87757396  0.76994204  0.12010946  1
  V  V56  1  0.87799043  0.12113569  0.75606004  1
  V  V57  1  0.88516053  0.37152704  0.47823658  1
  V  V58  1  0.37213904  0.52712429  0.37091198  1
  V  V59  1  0.24803818  0.74263077  0.50353018  1
  V  V60  1  0.24284011  0.51435819  0.74716758  1
  V  V61  1  0.11805154  0.11970550  0.49536934  1
  V  V62  1  0.25450160  0.38502005  0.10979320  1
  V  V63  1  0.12240134  0.63208504  -0.01806997  1
  V  V64  1  0.61938677  0.00014142  0.62403947  1
  V  V65  1  0.75579917  0.61917397  0.87281639  1
  V  V66  1  0.50719398  -0.00371907  0.00264855  1
  V  V67  1  0.62133676  0.25456178  0.35849470  1
  V  V68  1  0.39878833  0.63805137  0.75341340  1
  V  V69  1  -0.00379127  0.89139473  0.37647387  1
  V  V70  1  0.11981895  -0.00948349  0.62189708  1
  V  V71  1  0.75583068  0.11540565  0.36779668  1
  V  V72  1  0.00104985  0.62653178  0.12053815  1
  Zn  Zn73  1  0.88252305  -0.02137614  0.88400545  1
  Zn  Zn74  1  0.81005005  0.57073580  0.70095202  1
  Zn  Zn75  1  0.05760110  0.43876779  0.56451533  1
  Zn  Zn76  1  0.13572214  0.60479283  0.49253733  1
  Zn  Zn77  1  0.62042513  0.12486362  0.49903824  1
  Zn  Zn78  1  0.10813133  0.36579990  0.24571922  1
  Zn  Zn79  1  -0.00225432  0.25349467  0.76378877  1
  Zn  Zn80  1  0.13842947  0.74086650  0.37096577  1
  Zn  Zn81  1  -0.00101163  0.12132311  0.62496265  1
  Zn  Zn82  1  0.20064226  0.19026430  0.17999756  1
  Zn  Zn83  1  0.18379534  0.18614316  0.68732384  1
  Zn  Zn84  1  0.18212964  0.68922217  0.18107511  1
  Zn  Zn85  1  0.18492234  0.69729776  0.67425475  1
  Zn  Zn86  1  0.67766090  0.17832225  0.18918922  1
  Zn  Zn87  1  0.69122451  0.18461238  0.69169674  1
  Zn  Zn88  1  0.69430557  0.69653542  0.19340472  1
  Zn  Zn89  1  0.64629972  0.51993563  0.62849924  1
  Zn  Zn90  1  0.24157624  0.31019791  0.31348617  1
  Zn  Zn91  1  0.31202431  0.31788999  0.81736233  1
  Zn  Zn92  1  0.32094300  0.81939075  0.32189000  1
  Zn  Zn93  1  0.31131458  0.81436182  0.80713655  1
  Zn  Zn94  1  0.80010279  0.29730954  0.30401680  1
  Zn  Zn95  1  0.81426633  0.30474517  0.82653721  1
  Zn  Zn96  1  0.80832842  0.93251049  0.31569106  1
  Zn  Zn97  1  0.81168764  0.80664856  0.81010590  1
  Zn  Zn98  1  0.19272773  0.44716975  0.42899722  1
  Zn  Zn99  1  0.18595330  0.44750774  0.93427339  1
  Zn  Zn100  1  0.18740336  0.93145798  0.43748293  1
  Zn  Zn101  1  0.19021198  0.93947968  0.94147377  1
  Zn  Zn102  1  0.63446086  0.47023529  0.40482904  1
  Zn  Zn103  1  0.69015803  0.43865551  0.94921911  1
  Zn  Zn104  1  0.68130021  0.93373586  0.44083846  1
  Zn  Zn105  1  0.68797755  0.93748471  0.93773951  1
  Zn  Zn106  1  0.32044025  0.05268724  0.19048505  1
  Zn  Zn107  1  0.31133653  0.06363823  0.57461574  1
  Zn  Zn108  1  0.31306001  0.57022252  0.05537805  1
  Zn  Zn109  1  0.32173528  0.56269741  0.57212418  1
  Zn  Zn110  1  0.82231994  0.06693213  0.06900363  1
  Zn  Zn111  1  0.80686039  0.06830266  0.56653103  1
  Zn  Zn112  1  0.82038133  0.56703762  0.06278928  1
  Zn  Zn113  1  0.80965444  0.54973997  0.53184235  1
  Zn  Zn114  1  0.42484119  0.43890674  0.18949711  1
  Zn  Zn115  1  0.47589963  0.45780751  0.70003413  1
  Zn  Zn116  1  0.44757841  0.93128952  0.18936778  1
  Zn  Zn117  1  0.43582941  0.93653710  0.68763859  1
  Zn  Zn118  1  0.93536224  0.34656582  0.21648176  1
  Zn  Zn119  1  0.93612924  0.44043615  0.69571365  1
  Zn  Zn120  1  0.98709135  1.00522913  0.23513880  1
  Zn  Zn121  1  0.93939864  0.93607626  0.69269001  1
  Zn  Zn122  1  0.07442231  0.18122062  0.30480644  1
  Zn  Zn123  1  0.06341940  0.05594529  0.81918686  1
  Zn  Zn124  1  0.06794351  0.57307188  0.30285212  1
  Zn  Zn125  1  0.05618998  0.56665434  0.80783342  1
  Zn  Zn126  1  0.56890057  0.05952552  0.31852191  1
  Zn  Zn127  1  0.56116532  0.06014639  0.81381478  1
  Zn  Zn128  1  0.54862826  0.58952998  0.33136196  1
  Zn  Zn129  1  0.57538452  0.56222771  0.80800428  1
  Zn  Zn130  1  0.43705675  0.18530673  0.43672431  1
  Zn  Zn131  1  0.44123824  0.18883037  0.93910558  1
  Zn  Zn132  1  0.44004400  0.70319876  0.43754817  1
  Zn  Zn133  1  0.43646672  0.68427504  0.94086469  1
  Zn  Zn134  1  0.93507791  0.18433492  0.43373661  1
  Zn  Zn135  1  0.94456569  0.17966067  0.94404845  1
  Zn  Zn136  1  0.91437447  0.69412112  0.43871476  1
  Zn  Zn137  1  0.93337980  0.69478268  0.93722413  1
  Zn  Zn138  1  0.07984921  0.31242925  0.05714382  1
  Zn  Zn139  1  0.06470286  0.31621181  0.42479914  1
  Zn  Zn140  1  0.06769326  0.81215353  0.06198191  1
  Zn  Zn141  1  0.05914859  0.81113764  0.56049953  1
  Zn  Zn142  1  0.56080389  0.31345822  0.06344945  1
  Zn  Zn143  1  0.56309374  0.33296724  0.48635326  1
  Zn  Zn144  1  0.56616751  0.81184106  0.06775255  1
  Zn  Zn145  1  0.56851805  0.80332976  0.55628299  1
  O  O146  1  0.13772473  0.11147467  0.12378632  1
  O  O147  1  0.12292794  0.11622663  0.61785560  1
  O  O148  1  0.10959562  0.63851111  0.10784816  1
  O  O149  1  0.10751656  0.63395757  0.60888417  1
  O  O150  1  0.60864847  0.12638808  0.10988043  1
  O  O151  1  0.61785571  0.11526785  0.63398981  1
  O  O152  1  0.62946326  0.63062376  0.11608868  1
  O  O153  1  0.63901396  0.62353917  0.57589886  1
  O  O154  1  0.36098201  0.36207891  0.38054610  1
  O  O155  1  0.38371831  0.39595131  0.86689071  1
  O  O156  1  0.38490485  0.87988219  0.39520809  1
  O  O157  1  0.38331948  0.87832048  0.87830935  1
  O  O158  1  0.87757704  0.34852090  0.38144818  1
  O  O159  1  0.86920731  0.38919266  0.87641097  1
  O  O160  1  0.88589252  0.88122147  0.38533092  1
  O  O161  1  0.86489209  0.86941974  0.88190247  1
  O  O162  1  0.24865135  0.00972356  0.38088890  1
  O  O163  1  0.26203088  -0.00731864  0.86675188  1
  O  O164  1  0.26471506  0.50130346  0.35427614  1
  O  O165  1  0.26445846  0.50002252  0.86119648  1
  O  O166  1  0.74570399  0.00919738  0.38116033  1
  O  O167  1  0.75052919  0.00206496  0.86720927  1
  O  O168  1  0.61733669  0.50077852  0.28012337  1
  O  O169  1  0.76258117  0.50982246  0.89019987  1
  O  O170  1  0.26766795  0.49296321  0.12906784  1
  O  O171  1  0.26070695  0.49013905  0.64271174  1
  O  O172  1  0.24117790  0.98487898  0.12561270  1
  O  O173  1  0.23716679  1.00346616  0.64205827  1
  O  O174  1  0.75925286  0.49924943  0.12904538  1
  O  O175  1  0.75930108  0.50744137  0.62273054  1
  O  O176  1  0.80767666  0.99914482  0.16998534  1
  O  O177  1  0.74068164  0.99436096  0.63971515  1
  O  O178  1  0.01136896  0.41866380  0.23357979  1
  O  O179  1  0.01926501  0.37513921  0.74816673  1
  O  O180  1  0.00493357  0.86497609  0.26085470  1
  O  O181  1  0.01405778  0.86588021  0.74718336  1
  O  O182  1  0.51949770  0.40882960  0.25522479  1
  O  O183  1  0.49693432  0.36124176  0.76045037  1
  O  O184  1  0.51426527  0.86945397  0.26049832  1
  O  O185  1  0.50856803  0.87826777  0.76185645  1
  O  O186  1  0.50812937  0.11798935  0.23389040  1
  O  O187  1  0.49177270  0.13625120  0.75307411  1
  O  O188  1  0.48487252  0.64205451  0.25491377  1
  O  O189  1  0.49642248  0.63716680  0.75374755  1
  O  O190  1  1.01775349  0.11817656  0.22700610  1
  O  O191  1  0.98492773  0.12201646  0.76057551  1
  O  O192  1  1.00542717  0.64060290  0.23157474  1
  O  O193  1  1.00825247  0.64131444  0.73318651  1
  O  O194  1  0.36633116  0.24801141  -0.00105892  1
  O  O195  1  0.36822564  0.25754725  0.51109863  1
  O  O196  1  0.36396670  0.75823862  -0.00635667  1
  O  O197  1  0.36920744  0.75548258  0.51293521  1
  O  O198  1  0.87681319  0.24143736  0.01236726  1
  O  O199  1  0.87547893  0.24692648  0.51922293  1
  O  O200  1  0.86010037  0.75259745  0.00435647  1
  O  O201  1  0.87998197  0.77134943  0.51792447  1
  O  O202  1  0.13833176  0.23721923  0.50592009  1
  O  O203  1  0.14552995  0.24871390  0.98725256  1
  O  O204  1  0.14311365  0.75755440  0.50334840  1
  O  O205  1  0.13693284  0.74826225  0.99383987  1
  O  O206  1  0.64042549  0.25494265  0.52226685  1
  O  O207  1  0.61677862  0.23324187  0.99387835  1
  O  O208  1  0.63574303  0.75049556  0.48069442  1
  O  O209  1  0.63004998  0.73904838  0.99609211  1
  O  O210  1  0.48750666  0.23877074  0.11659545  1
  O  O211  1  0.48898048  0.24412654  0.64761240  1
  O  O212  1  0.49605106  0.76416995  0.14668614  1
  O  O213  1  0.48805480  0.74687902  0.61807201  1
  O  O214  1  1.01476596  0.24281737  0.12148681  1
  O  O215  1  0.98490865  0.23883911  0.64197402  1
  O  O216  1  0.99211804  0.75232591  0.12669603  1
  O  O217  1  0.99085001  0.74510621  0.62838917  1
  O  O218  1  0.00443852  0.24132274  0.36813140  1
  O  O219  1  0.02170149  0.24274587  0.88080131  1
  O  O220  1  -0.01354529  0.75157697  0.36021417  1
  O  O221  1  -0.00545586  0.74339223  0.85454620  1
  O  O222  1  0.52343758  0.24809160  0.39776097  1
  O  O223  1  0.49660372  0.26521998  0.86884495  1
  O  O224  1  0.48824355  0.76783437  0.35903037  1
  O  O225  1  0.50979087  0.75970989  0.88528841  1
  O  O226  1  0.24668197  0.13162603  0.50716621  1
  O  O227  1  0.25948295  0.12854060  0.99533172  1
  O  O228  1  0.25377110  0.63716760  0.50866244  1
  O  O229  1  0.23752886  0.63947109  1.00206492  1
  O  O230  1  0.74473095  0.13612568  0.49627086  1
  O  O231  1  0.73675892  0.10937356  0.99553660  1
  O  O232  1  0.77285271  0.64512057  0.48405960  1
  O  O233  1  0.73644381  0.63057315  0.99641469  1
  O  O234  1  0.25351131  0.39065052  0.00873722  1
  O  O235  1  0.25672092  0.36037974  0.50878457  1
  O  O236  1  0.25611786  0.86421262  0.00483968  1
  O  O237  1  0.26698316  0.87163360  0.50073340  1
  O  O238  1  0.73240547  0.36897469  0.02507570  1
  O  O239  1  0.77222929  0.34966238  0.50055037  1
  O  O240  1  0.73511438  0.85710253  0.00318898  1
  O  O241  1  0.75913414  0.88414631  0.51428370  1
  O  O242  1  0.14612903  0.51032806  0.24635971  1
  O  O243  1  0.13655890  0.49077523  0.76025101  1
  O  O244  1  0.11710694  0.97938896  0.23174582  1
  O  O245  1  0.12904613  0.98888913  0.74685181  1
  O  O246  1  0.58089034  0.45138637  0.22635609  1
  O  O247  1  0.58339294  0.49733134  0.71773670  1
  O  O248  1  0.62901286  0.98954843  0.24918550  1
  O  O249  1  0.63161615  0.98748025  0.74824617  1
  O  O250  1  0.36613084  -0.02794271  0.25092874  1
  O  O251  1  0.36794414  0.00374558  0.75745318  1
  O  O252  1  0.37564175  0.52142306  0.25707221  1
  O  O253  1  0.37258054  0.52019520  0.75735025  1
  O  O254  1  0.86047952  -0.00229471  0.22950517  1
  O  O255  1  0.86581256  0.00384305  0.75479285  1
  O  O256  1  0.90421347  0.50132036  0.32523672  1
  O  O257  1  0.87960205  0.50689826  0.76996374  1
  O  O258  1  0.14548935  0.36921020  0.36412417  1
  O  O259  1  0.13117790  0.37039365  0.86664041  1
  O  O260  1  0.11293537  0.87022118  0.36960542  1
  O  O261  1  0.12384972  0.87662826  0.86651367  1
  O  O262  1  0.63198158  0.35821978  0.39036843  1
  O  O263  1  0.61460630  0.38602927  0.87333664  1
  O  O264  1  0.61136936  0.87623511  0.37188470  1
  O  O265  1  0.61852886  0.86659968  0.87027053  1
  O  O266  1  0.38510418  0.13373165  0.12925561  1
  O  O267  1  0.38136342  0.13332615  0.63994841  1
  O  O268  1  0.38057615  0.63274352  0.12702537  1
  O  O269  1  0.37177616  0.64036715  0.64410270  1
  O  O270  1  0.89296406  0.13918859  0.12769139  1
  O  O271  1  0.87463594  0.12691666  0.64268533  1
  O  O272  1  0.89530755  0.64080343  0.11022270  1
  O  O273  1  0.87737790  0.64133385  0.62869980  1
  O  O274  1  0.26470843  0.25625169  0.10653321  1
  O  O275  1  0.25541259  0.25345319  0.62030835  1
  O  O276  1  0.24832075  0.76215613  0.11386193  1
  O  O277  1  0.26313782  0.75487351  0.61311327  1
  O  O278  1  0.75119452  0.22773069  0.11628522  1
  O  O279  1  0.76462665  0.24009114  0.62183137  1
  O  O280  1  0.76391901  0.74364393  0.11507043  1
  O  O281  1  0.76650137  0.76483656  0.63447479  1
  O  O282  1  0.25730659  0.23144603  0.39616575  1
  O  O283  1  0.24725973  0.25099147  0.88417358  1
  O  O284  1  0.25495990  0.75692178  0.39524654  1
  O  O285  1  0.25039578  0.75347929  0.88394532  1
  O  O286  1  0.73525665  0.23875850  0.38601142  1
  O  O287  1  0.74716067  0.23026336  0.87891162  1
  O  O288  1  0.79381126  0.67006245  0.32178390  1
  O  O289  1  0.74125332  0.73932265  0.88766980  1
  O  O290  1  0.00819362  0.11514482  0.01861038  1
  O  O291  1  0.01638265  0.12562385  0.50016513  1
  O  O292  1  0.01226051  0.63741235  -0.00007861  1
  O  O293  1  -0.01971799  0.62999353  0.51298830  1
  O  O294  1  0.51057780  0.11469263  -0.00352701  1
  O  O295  1  0.50113439  0.13535799  0.52470444  1
  O  O296  1  0.51281607  0.61751504  -0.00265093  1
  O  O297  1  0.48628533  0.61232707  0.49586015  1
  O  O298  1  0.46625110  0.38494360  0.50448382  1
  O  O299  1  0.50535595  0.39003501  0.98601203  1
  O  O300  1  0.49500150  0.87042995  0.49179233  1
  O  O301  1  0.49507880  0.87628283  0.99517393  1
  O  O302  1  0.99204437  0.36607566  0.50099499  1
  O  O303  1  1.01454970  0.39313545  1.00577825  1
  O  O304  1  0.99748047  0.87680640  0.48385611  1
  O  O305  1  1.00448127  0.88922897  1.00782182  1
  O  O306  1  0.47572250  0.50399723  0.38763671  1
  O  O307  1  0.49438672  0.49245383  0.87375754  1
  O  O308  1  0.50053668  0.98694407  0.37525889  1
  O  O309  1  0.49380717  0.98724853  0.88075014  1
  O  O310  1  0.97539408  0.48604809  0.33531012  1
  O  O311  1  0.98950995  0.50696626  0.88386305  1
  O  O312  1  0.99797353  0.98798681  0.35566910  1
  O  O313  1  1.00060880  1.00711511  0.89819582  1
  O  O314  1  0.01735666  0.00839110  0.11821752  1
  O  O315  1  0.01587823  0.00348696  0.63437356  1
  O  O316  1  -0.00109767  0.52333213  0.10268418  1
  O  O317  1  -0.00602414  0.51568249  0.62868864  1
  O  O318  1  0.48859323  0.01282445  0.11317135  1
  O  O319  1  0.50893100  0.01285688  0.64342489  1
  O  O320  1  0.48339993  0.49491288  0.10320260  1
  O  O321  1  0.44414516  0.50615362  0.60357022  1
  O  O322  1  0.26162515  0.39643911  0.23622939  1
  O  O323  1  0.24124067  0.38229084  0.74717602  1
  O  O324  1  0.24294474  0.86098287  0.24054862  1
  O  O325  1  0.23504396  0.88209433  0.75232377  1
  O  O326  1  0.74791155  0.37330571  0.23441710  1
  O  O327  1  0.74209886  0.38564513  0.75956199  1
  O  O328  1  0.73279944  0.86395881  0.26771321  1
  O  O329  1  0.74113500  0.87945356  0.74336201  1
  O  O330  1  0.25572051  0.12111507  0.26161825  1
  O  O331  1  0.26067603  0.11599125  0.74924464  1
  O  O332  1  0.26257539  0.61811164  0.23259198  1
  O  O333  1  0.23658729  0.61369351  0.74147022  1
  O  O334  1  0.74219412  0.12650096  0.26799447  1
  O  O335  1  0.75395840  0.11485164  0.76490312  1
  O  O336  1  0.75944388  0.62668566  0.26419964  1
  O  O337  1  0.73989650  0.62343027  0.77346207  1
  O  O338  1  0.36432659  0.11819315  0.38536845  1
  O  O339  1  0.38529931  0.11109113  0.86815097  1
  O  O340  1  0.36836968  0.62611877  0.37325396  1
  O  O341  1  0.37944281  0.62348982  0.85963230  1
  O  O342  1  0.85523383  0.12625564  0.37995258  1
  O  O343  1  0.86100287  0.11905427  0.87433574  1
  O  O344  1  0.86052592  0.63539788  0.34951259  1
  O  O345  1  0.85877724  0.62510820  0.88154822  1
  O  O346  1  0.15303282  0.36939229  0.12849711  1
  O  O347  1  0.13637800  0.37496905  0.63915481  1
  O  O348  1  0.14060191  0.87581964  0.12857290  1
  O  O349  1  0.12262076  0.88886815  0.62529200  1
  O  O350  1  0.64235045  0.37192209  0.11427397  1
  O  O351  1  0.69940115  0.36799362  0.70147491  1
  O  O352  1  0.62815159  0.86986480  0.14362380  1
  O  O353  1  0.62945672  0.87706445  0.63166668  1
  O  O354  1  0.14974378  0.25555487  0.25501093  1
  O  O355  1  0.13086855  0.25987832  0.76322698  1
  O  O356  1  0.11285001  0.75892318  0.24949994  1
  O  O357  1  0.11797895  0.76377953  0.74359962  1
  O  O358  1  0.61863031  0.25154951  0.25965552  1
  O  O359  1  0.61259613  0.24451159  0.75302829  1
  O  O360  1  0.61327931  0.74578910  0.25618671  1
  O  O361  1  0.62982076  0.76067508  0.76472629  1
  O  O362  1  0.36736137  0.25154523  0.23452102  1
  O  O363  1  0.37294687  0.24182448  0.75076385  1
  O  O364  1  0.37035894  0.74306491  0.24694697  1
  O  O365  1  0.37536164  0.74667613  0.74187582  1
  O  O366  1  0.87573658  0.25494272  0.22374602  1
  O  O367  1  0.87168465  0.24062616  0.74962288  1
  O  O368  1  0.88822733  0.75582124  0.23245346  1
  O  O369  1  0.89017577  0.76139935  0.73511258  1
  O  O370  1  0.35811592  0.48911253  0.47896904  1
  O  O371  1  0.38718680  0.51993026  0.97813287  1
  O  O372  1  0.37604787  0.98845618  0.51951150  1
  O  O373  1  0.38588692  0.98308531  0.98786474  1
  O  O374  1  0.87376234  0.47143530  0.48475586  1
  O  O375  1  0.89182242  0.50626770  0.98900668  1
  O  O376  1  0.87877800  0.99333277  0.51463412  1
  O  O377  1  0.88976595  1.00176389  1.00558735  1
  O  O378  1  0.12164498  -0.00512654  0.01268321  1
  O  O379  1  0.13356642  0.00815727  0.51402586  1
  O  O380  1  0.11377031  0.51978908  -0.01041762  1
  O  O381  1  0.14016011  0.49370884  0.51265263  1
  O  O382  1  0.61058378  -0.00230448  -0.00175791  1
  O  O383  1  0.62664623  0.00152536  0.52122408  1
  O  O384  1  0.61245292  0.51371957  -0.00034837  1
  O  O385  1  0.58536012  0.47551788  0.52017967  1
  O  O386  1  0.36956819  0.36224363  0.12386754  1
  O  O387  1  0.36082371  0.36139624  0.63420154  1
  O  O388  1  0.36255005  0.87778939  0.11367598  1
  O  O389  1  0.38310059  0.86343756  0.61808371  1
  O  O390  1  0.85131114  0.35984365  0.11599681  1
  O  O391  1  0.88113831  0.35918120  0.63325317  1
  O  O392  1  0.87576723  0.86494598  0.11825557  1
  O  O393  1  0.86952747  0.87459773  0.62255518  1
  O  O394  1  0.14063951  0.12102655  0.39382027  1
  O  O395  1  0.13621232  0.13345930  0.86574534  1
  O  O396  1  0.10657633  0.63264433  0.38733333  1
  O  O397  1  0.12061924  0.63182852  0.88252232  1
  O  O398  1  0.63012520  0.13574136  0.38156137  1
  O  O399  1  0.63620229  0.11486403  0.88609999  1
  O  O400  1  0.63637136  0.58746119  0.40560392  1
  O  O401  1  0.63137032  0.63016951  0.88321831  1
