# generated using pymatgen
data_V73Zn73O256
_symmetry_space_group_name_H-M   'P 1'
_cell_length_a   16.85876070
_cell_length_b   16.86153248
_cell_length_c   16.82864598
_cell_angle_alpha   90.33555399
_cell_angle_beta   89.97607647
_cell_angle_gamma   90.00550220
_symmetry_Int_Tables_number   1
_chemical_formula_structural   V73Zn73O256
_chemical_formula_sum   'V73 Zn73 O256'
_cell_volume   4783.70484976
_cell_formula_units_Z   1
loop_
 _symmetry_equiv_pos_site_id
 _symmetry_equiv_pos_as_xyz
  1  'x, y, z'
loop_
 _atom_site_type_symbol
 _atom_site_label
 _atom_site_symmetry_multiplicity
 _atom_site_fract_x
 _atom_site_fract_y
 _atom_site_fract_z
 _atom_site_occupancy
  V  V0  1  0.26975721  0.24660358  0.50227809  1
  V  V1  1  0.63517207  0.53046187  0.60701856  1
  V  V2  1  0.00259576  0.02161844  0.50111243  1
  V  V3  1  0.25139171  0.75678336  0.50619490  1
  V  V4  1  0.49513064  0.25236820  0.74412994  1
  V  V5  1  -0.00051983  0.61243881  0.61650754  1
  V  V6  1  0.74743133  0.62334992  0.36016715  1
  V  V7  1  0.73817722  0.27171063  0.50099406  1
  V  V8  1  0.62267103  0.87558016  0.25409986  1
  V  V9  1  0.86330708  0.24804021  0.12608489  1
  V  V10  1  0.62451164  0.75100025  0.37838252  1
  V  V11  1  0.37349989  0.87134308  0.00476665  1
  V  V12  1  0.13026929  0.24001184  0.38268943  1
  V  V13  1  0.82552092  0.07147599  0.80846227  1
  V  V14  1  0.00583964  0.36945250  0.86829116  1
  V  V15  1  0.62020121  0.11553583  0.50419001  1
  V  V16  1  0.24553415  0.25242502  0.00480792  1
  V  V17  1  0.11816678  0.61029986  0.49137292  1
  V  V18  1  0.75497822  0.87049312  0.12368361  1
  V  V19  1  0.49695131  0.00563082  -0.01224430  1
  V  V20  1  0.88018426  0.49871925  0.87986977  1
  V  V21  1  0.63325806  0.37583928  0.74391052  1
  V  V22  1  0.88726659  0.62255227  0.75323832  1
  V  V23  1  0.49783335  0.11070004  0.62256842  1
  V  V24  1  0.01458659  0.50370181  0.02157957  1
  V  V25  1  0.13323284  0.87850147  0.22726122  1
  V  V26  1  0.87881982  0.12254989  0.25281895  1
  V  V27  1  0.11639355  0.37491116  0.24718869  1
  V  V28  1  0.74797707  0.12942618  0.38001315  1
  V  V29  1  0.37900620  0.62652184  0.24279764  1
  V  V30  1  0.36953046  0.37685936  0.00253981  1
  V  V31  1  0.12336971  0.48334426  0.63064059  1
  V  V32  1  0.36558292  0.10139876  0.25155274  1
  V  V33  1  0.75355630  0.00053838  0.26189979  1
  V  V34  1  -0.01650617  0.74583605  0.23197920  1
  V  V35  1  0.62526088  0.00162409  0.12406876  1
  V  V36  1  0.28019027  0.37973214  0.62118309  1
  V  V37  1  0.63674689  0.24825035  0.88234473  1
  V  V38  1  0.12248124  0.24738172  0.86015412  1
  V  V39  1  0.62528790  0.89714899  0.74007681  1
  V  V40  1  0.87965163  0.24433635  0.62422027  1
  V  V41  1  0.49632486  0.37039879  0.88013346  1
  V  V42  1  0.60358153  0.26064795  0.36223103  1
  V  V43  1  0.75311478  0.74681100  0.50449512  1
  V  V44  1  0.88884597  0.87802747  0.49455166  1
  V  V45  1  0.22393919  0.71654333  -0.00662053  1
  V  V46  1  0.50100051  0.51027736  -0.00003697  1
  V  V47  1  -0.00033954  0.24918182  0.25171403  1
  V  V48  1  0.88786810  0.49992838  0.36537812  1
  V  V49  1  0.73661849  0.48127072  0.24441483  1
  V  V50  1  0.11397048  0.01571419  0.64109117  1
  V  V51  1  0.88431927  0.75242214  0.62901219  1
  V  V52  1  0.38758813  0.49436227  0.39230296  1
  V  V53  1  0.11405706  0.75457579  0.37259446  1
  V  V54  1  0.37790201  0.25079619  0.13674270  1
  V  V55  1  0.61735108  0.52885103  0.12559451  1
  V  V56  1  0.12283806  0.12201481  0.01723519  1
  V  V57  1  0.25065071  0.62571297  0.37346434  1
  V  V58  1  0.73766327  0.62260329  0.87675412  1
  V  V59  1  0.49628379  0.88716584  0.38653392  1
  V  V60  1  0.64162540  0.12795600  -0.00040615  1
  V  V61  1  0.25008109  0.48774797  0.24391585  1
  V  V62  1  0.49947794  0.75095410  0.24150803  1
  V  V63  1  0.37326250  0.11903791  0.75768747  1
  V  V64  1  0.87796373  0.86692477  -0.00370138  1
  V  V65  1  0.89340260  0.38503120  0.49605493  1
  V  V66  1  0.00587762  0.86240608  0.87191775  1
  V  V67  1  0.73747963  0.74256839  -0.00122032  1
  V  V68  1  0.25098664  0.87707229  0.63120371  1
  V  V69  1  -0.00406187  0.00444442  0.01116665  1
  V  V70  1  0.35559222  -0.00507287  0.39702204  1
  V  V71  1  0.12566113  0.84837723  0.75273279  1
  V  V72  1  0.86742112  0.37017227  0.00942705  1
  Zn  Zn73  1  0.50974936  0.87121309  0.86954767  1
  Zn  Zn74  1  0.00087035  0.88828840  0.36520115  1
  Zn  Zn75  1  0.24023316  0.11688577  0.86737891  1
  Zn  Zn76  1  0.75579179  0.49437314  0.74280772  1
  Zn  Zn77  1  0.38437446  0.64942755  0.71682738  1
  Zn  Zn78  1  0.50311004  0.12978709  0.13295667  1
  Zn  Zn79  1  0.36035874  0.75842867  0.12547036  1
  Zn  Zn80  1  0.34668362  -0.03099722  0.85172478  1
  Zn  Zn81  1  0.29386037  0.50872572  0.75957675  1
  Zn  Zn82  1  0.19238824  0.19072342  0.19228699  1
  Zn  Zn83  1  0.19628511  0.19597124  0.67681767  1
  Zn  Zn84  1  0.18510838  0.69312384  0.18018538  1
  Zn  Zn85  1  0.18873363  0.67478130  0.68815745  1
  Zn  Zn86  1  0.68777022  0.18967836  0.18957555  1
  Zn  Zn87  1  0.68999153  0.19119720  0.68605545  1
  Zn  Zn88  1  0.81988306  0.68831061  0.17943611  1
  Zn  Zn89  1  0.69779088  0.68758107  0.69248498  1
  Zn  Zn90  1  0.31468948  0.31360305  0.32582177  1
  Zn  Zn91  1  0.30851616  0.31530032  0.81038944  1
  Zn  Zn92  1  0.30874072  0.81671331  0.31471435  1
  Zn  Zn93  1  0.32336695  0.78374095  0.82716711  1
  Zn  Zn94  1  0.80736366  0.31421966  0.31683049  1
  Zn  Zn95  1  0.81922098  0.30277214  0.81763476  1
  Zn  Zn96  1  0.81092387  0.81941011  0.32055845  1
  Zn  Zn97  1  0.81743806  0.80823031  0.81873145  1
  Zn  Zn98  1  0.19471183  0.42707883  0.43230775  1
  Zn  Zn99  1  0.18476175  0.43984499  0.93762492  1
  Zn  Zn100  1  0.17482678  0.94231843  0.44707431  1
  Zn  Zn101  1  0.18477622  0.93660541  0.93844265  1
  Zn  Zn102  1  0.63660739  0.44068730  0.44590027  1
  Zn  Zn103  1  0.68483686  0.43923342  0.94011522  1
  Zn  Zn104  1  0.72210967  0.95949937  0.47952245  1
  Zn  Zn105  1  0.69660757  0.94356020  0.92166387  1
  Zn  Zn106  1  0.30823845  0.06364240  0.06253007  1
  Zn  Zn107  1  0.30441959  0.06310468  0.57790569  1
  Zn  Zn108  1  0.30861425  0.55914657  0.06528031  1
  Zn  Zn109  1  0.30124688  0.57603025  0.57393783  1
  Zn  Zn110  1  0.81776102  0.05783774  0.06716371  1
  Zn  Zn111  1  0.80488958  0.05617634  0.64153977  1
  Zn  Zn112  1  0.80653221  0.55301696  0.06164007  1
  Zn  Zn113  1  0.81232410  0.56161416  0.55357550  1
  Zn  Zn114  1  0.43669580  0.44205111  0.18346882  1
  Zn  Zn115  1  0.43467100  0.49487735  0.62965171  1
  Zn  Zn116  1  0.43951954  0.93937733  0.18787108  1
  Zn  Zn117  1  0.44205540  0.92927976  0.68663789  1
  Zn  Zn118  1  0.93149750  0.43864406  0.19289267  1
  Zn  Zn119  1  0.93605098  0.42924632  0.68426512  1
  Zn  Zn120  1  0.94281829  0.93367972  0.18828612  1
  Zn  Zn121  1  0.94343335  0.93938784  0.69199186  1
  Zn  Zn122  1  0.06833224  0.06023306  0.31080366  1
  Zn  Zn123  1  0.04770241  0.05514554  0.82532403  1
  Zn  Zn124  1  0.06897472  0.57447266  0.26783630  1
  Zn  Zn125  1  0.06753094  0.55434603  0.81495841  1
  Zn  Zn126  1  0.55621393  0.07057732  0.31431499  1
  Zn  Zn127  1  0.57277655  0.06693847  0.80940744  1
  Zn  Zn128  1  0.56066027  0.56411600  0.31557556  1
  Zn  Zn129  1  0.52143608  0.53589060  0.78754515  1
  Zn  Zn130  1  0.43450727  0.17555463  0.43243535  1
  Zn  Zn131  1  0.44071347  0.18757459  0.94132464  1
  Zn  Zn132  1  0.43182071  0.69694081  0.43269513  1
  Zn  Zn133  1  0.39284881  0.66661716  0.93926129  1
  Zn  Zn134  1  0.93253560  0.19757233  0.43525109  1
  Zn  Zn135  1  0.93780032  0.18383283  0.93537894  1
  Zn  Zn136  1  0.93328379  0.67916365  0.43263670  1
  Zn  Zn137  1  0.93927206  0.68297169  0.95161310  1
  Zn  Zn138  1  0.05705724  0.31465283  0.06628704  1
  Zn  Zn139  1  0.06028826  0.30654645  0.55659929  1
  Zn  Zn140  1  0.06259383  0.79250861  0.05595987  1
  Zn  Zn141  1  0.06585042  0.80502278  0.56587840  1
  Zn  Zn142  1  0.55905886  0.31041177  0.06395451  1
  Zn  Zn143  1  0.55859255  0.30866609  0.56241107  1
  Zn  Zn144  1  0.56084646  0.81585467  0.05930875  1
  Zn  Zn145  1  0.57282370  0.82712700  0.55932829  1
  O  O146  1  0.12526850  0.13163355  0.11613201  1
  O  O147  1  0.12436600  0.11484085  0.64162689  1
  O  O148  1  0.11512426  0.60866878  0.16878133  1
  O  O149  1  0.11614865  0.61132480  0.61114455  1
  O  O150  1  0.62605137  0.11996022  0.11660937  1
  O  O151  1  0.61497182  0.13230934  0.61338956  1
  O  O152  1  0.61967235  0.62375245  0.11850028  1
  O  O153  1  0.61682590  0.62384507  0.64248288  1
  O  O154  1  0.37904383  0.39486777  0.37249317  1
  O  O155  1  0.38455158  0.36801508  0.88797280  1
  O  O156  1  0.38466543  0.88625391  0.37135580  1
  O  O157  1  0.39083729  0.87000730  0.88503586  1
  O  O158  1  0.86758545  0.39001656  0.38124629  1
  O  O159  1  0.88586350  0.37561772  0.88642415  1
  O  O160  1  0.88531159  0.87337509  0.38843944  1
  O  O161  1  0.88436053  0.87392498  0.88702675  1
  O  O162  1  0.25692883  -0.01266436  0.38239451  1
  O  O163  1  0.24479209  0.00486284  0.87198946  1
  O  O164  1  0.25966079  0.51027872  0.36555130  1
  O  O165  1  0.22355455  0.51821234  0.85863550  1
  O  O166  1  0.74403662  0.00909889  0.36919410  1
  O  O167  1  0.77329838  0.01452845  0.87382588  1
  O  O168  1  0.73154580  0.51534282  0.35639549  1
  O  O169  1  0.76313434  0.51078444  0.88470950  1
  O  O170  1  0.25255312  0.50273502  0.14440465  1
  O  O171  1  0.23315635  0.47964520  0.60673697  1
  O  O172  1  0.23601180  0.99503620  0.11123000  1
  O  O173  1  0.22690125  0.98509712  0.62391934  1
  O  O174  1  0.72983565  0.50031538  0.13468323  1
  O  O175  1  0.73785205  0.51024233  0.62771130  1
  O  O176  1  0.74078776  0.99384121  0.13374561  1
  O  O177  1  0.74058349  0.98963823  0.58596289  1
  O  O178  1  0.00999410  0.36997217  0.25381096  1
  O  O179  1  -0.00470192  0.37757817  0.76906698  1
  O  O180  1  0.00746935  0.86131337  0.25067865  1
  O  O181  1  0.00452772  0.86923263  0.76509136  1
  O  O182  1  0.53321403  0.37644411  0.21239430  1
  O  O183  1  0.51396686  0.35987317  0.76246988  1
  O  O184  1  0.50654376  0.87155391  0.25728031  1
  O  O185  1  0.51772312  0.87727374  0.75159838  1
  O  O186  1  0.47701710  0.11546740  0.24556307  1
  O  O187  1  0.50081893  0.13499246  0.74271257  1
  O  O188  1  0.48616690  0.63619064  0.25806117  1
  O  O189  1  0.52446655  0.67479948  0.78176271  1
  O  O190  1  0.98511211  0.12838218  0.25767201  1
  O  O191  1  0.93736790  0.08914526  0.81152608  1
  O  O192  1  0.98492415  0.64955354  0.26327022  1
  O  O193  1  0.99325085  0.61541697  0.74292790  1
  O  O194  1  0.36595480  0.25700626  0.00385052  1
  O  O195  1  0.36943523  0.24806395  0.49377792  1
  O  O196  1  0.38829071  0.76567998  0.00360720  1
  O  O197  1  0.35042160  0.75270339  0.49383904  1
  O  O198  1  0.88362940  0.25749536  0.01690152  1
  O  O199  1  0.85895973  0.27161194  0.49370842  1
  O  O200  1  0.86655424  0.76298542  0.00238448  1
  O  O201  1  0.87389053  0.75091138  0.50832808  1
  O  O202  1  0.12363571  0.24639925  0.48507086  1
  O  O203  1  0.12829649  0.24214035  0.99948413  1
  O  O204  1  0.12736698  0.73769990  0.48835570  1
  O  O205  1  0.12264090  0.71251441  0.99972689  1
  O  O206  1  0.62771016  0.24765007  0.48935027  1
  O  O207  1  0.62144535  0.23868622  0.99686787  1
  O  O208  1  0.64443712  0.76205587  0.49180436  1
  O  O209  1  0.63882883  0.75653849  0.99789122  1
  O  O210  1  0.48154547  0.24492701  0.11843255  1
  O  O211  1  0.50280225  0.24720219  0.64106030  1
  O  O212  1  0.50323310  0.75641301  0.13995127  1
  O  O213  1  0.49834382  0.73580960  0.58936888  1
  O  O214  1  0.98820859  0.25308787  0.14354221  1
  O  O215  1  0.98041660  0.25471350  0.61394784  1
  O  O216  1  0.99129891  0.74384685  0.13236352  1
  O  O217  1  0.98987151  0.73074274  0.62227547  1
  O  O218  1  0.01099948  0.24722088  0.36354447  1
  O  O219  1  0.01037497  0.25989272  0.88053611  1
  O  O220  1  0.01042013  0.74875636  0.37823895  1
  O  O221  1  -0.00184105  0.76297337  0.89032475  1
  O  O222  1  0.50497474  0.24471718  0.37697777  1
  O  O223  1  0.50941518  0.25410016  0.87163760  1
  O  O224  1  0.50517368  0.76082726  0.36864024  1
  O  O225  1  0.52078072  0.71316730  0.84624094  1
  O  O226  1  0.24846623  0.14949515  0.52814604  1
  O  O227  1  0.23627024  0.13559356  0.99416434  1
  O  O228  1  0.23761227  0.63566578  0.49276230  1
  O  O229  1  0.28137386  0.62720898  0.98110741  1
  O  O230  1  0.73248791  0.13517778  0.48934468  1
  O  O231  1  0.74018006  0.12278986  1.00731621  1
  O  O232  1  0.75875070  0.64175671  0.48391690  1
  O  O233  1  0.75010487  0.63401436  0.99304780  1
  O  O234  1  0.26287458  0.37191336  -0.00843384  1
  O  O235  1  0.24819543  0.36011999  0.51023285  1
  O  O236  1  0.27445562  0.89046318  0.00040277  1
  O  O237  1  0.23299061  0.86409000  0.51500690  1
  O  O238  1  0.76846408  0.37784485  -0.00474612  1
  O  O239  1  0.73102571  0.37101111  0.49441745  1
  O  O240  1  0.75816774  0.87010891  0.00202977  1
  O  O241  1  0.77414284  0.85656724  0.49247562  1
  O  O242  1  0.13928772  0.48268054  0.26408298  1
  O  O243  1  0.12596388  0.49753303  0.72945599  1
  O  O244  1  0.11445553  0.97639234  0.25077789  1
  O  O245  1  0.10708678  0.99431187  0.74346249  1
  O  O246  1  0.62749385  0.51190728  0.23740633  1
  O  O247  1  0.61518560  0.48396260  0.73657257  1
  O  O248  1  0.63122048  0.99538775  0.24516918  1
  O  O249  1  0.63705038  0.99841000  0.74802940  1
  O  O250  1  0.35953205  -0.00012171  0.24447979  1
  O  O251  1  0.38628883  0.01403445  0.75249372  1
  O  O252  1  0.37126767  0.51103827  0.25558695  1
  O  O253  1  0.41601857  0.52875016  0.74357633  1
  O  O254  1  0.86348198  0.00734045  0.24332334  1
  O  O255  1  0.85507791  -0.00383860  0.73243922  1
  O  O256  1  0.85014373  0.49097070  0.25918801  1
  O  O257  1  0.87544702  0.50221350  0.76191635  1
  O  O258  1  0.13747101  0.35543839  0.35972858  1
  O  O259  1  0.11463404  0.36344019  0.87990885  1
  O  O260  1  0.12329981  0.85989014  0.37710241  1
  O  O261  1  0.11757581  0.86863332  0.86443103  1
  O  O262  1  0.61407096  0.36240892  0.37004844  1
  O  O263  1  0.61665290  0.36224612  0.87986118  1
  O  O264  1  0.61371915  0.87166383  0.36813729  1
  O  O265  1  0.62502550  0.88320085  0.86010287  1
  O  O266  1  0.37236385  0.13482166  0.13331547  1
  O  O267  1  0.39074807  0.12270364  0.63860193  1
  O  O268  1  0.37296327  0.62829030  0.14099613  1
  O  O269  1  0.40884923  0.60659485  0.60819747  1
  O  O270  1  0.86845554  0.13751406  0.13741455  1
  O  O271  1  0.86865898  0.14473458  0.61139133  1
  O  O272  1  0.87478575  0.61219784  0.12378706  1
  O  O273  1  0.88263020  0.62258847  0.63133907  1
  O  O274  1  0.26045830  0.24935363  0.11198911  1
  O  O275  1  0.25927564  0.27279027  0.62161225  1
  O  O276  1  0.24784819  0.74229479  0.09738484  1
  O  O277  1  0.23818878  0.75801569  0.61314245  1
  O  O278  1  0.76329668  0.25428476  0.13202538  1
  O  O279  1  0.75110597  0.25144696  0.60248132  1
  O  O280  1  0.75074679  0.76020333  0.11173209  1
  O  O281  1  0.76673074  0.73786714  0.61051935  1
  O  O282  1  0.24621206  0.24804473  0.39143540  1
  O  O283  1  0.23527724  0.25228251  0.88225464  1
  O  O284  1  0.23865979  0.74489003  0.38229435  1
  O  O285  1  0.24323706  0.77070967  0.90989051  1
  O  O286  1  0.73775523  0.24623951  0.38234618  1
  O  O287  1  0.73500353  0.25590252  0.88140247  1
  O  O288  1  0.74491676  0.74335898  0.37841129  1
  O  O289  1  0.75846525  0.73417206  0.88872248  1
  O  O290  1  0.00735322  0.11397240  -0.00180549  1
  O  O291  1  -0.00880480  0.11982300  0.49776732  1
  O  O292  1  -0.00280014  0.60160130  0.00028515  1
  O  O293  1  0.00545963  0.62201177  0.50433441  1
  O  O294  1  0.50801554  0.11498831  0.00696055  1
  O  O295  1  0.50692918  0.13146961  0.51391422  1
  O  O296  1  0.48246151  0.60668927  -0.01602304  1
  O  O297  1  0.49363702  0.67572676  0.54189299  1
  O  O298  1  0.53857604  0.41533009  0.52330557  1
  O  O299  1  0.49022193  0.37614917  0.99591139  1
  O  O300  1  0.50021185  0.87411974  0.48567304  1
  O  O301  1  0.50243139  0.89180258  0.99448389  1
  O  O302  1  0.99107910  0.37662131  0.48800780  1
  O  O303  1  0.99134897  0.38194477  0.99540379  1
  O  O304  1  0.99368801  0.86616902  0.49973166  1
  O  O305  1  0.98788846  0.87309772  1.00370656  1
  O  O306  1  0.48909268  0.51392156  0.38536421  1
  O  O307  1  0.51002833  0.48231783  0.89067338  1
  O  O308  1  0.49508390  0.98919685  0.37438716  1
  O  O309  1  0.50416722  1.00877342  0.88609742  1
  O  O310  1  0.98370881  0.50889496  0.34884493  1
  O  O311  1  0.99652013  0.48773357  0.88381296  1
  O  O312  1  1.01141070  1.00011584  0.39598711  1
  O  O313  1  1.01159003  0.97197843  0.90169936  1
  O  O314  1  0.00348318  -0.00641941  0.11106723  1
  O  O315  1  0.00655041  0.00187968  0.61810921  1
  O  O316  1  -0.00045798  0.49248854  0.12169567  1
  O  O317  1  0.00735284  0.50393246  0.62291915  1
  O  O318  1  0.51703403  -0.00161152  0.11772286  1
  O  O319  1  0.50181839  0.01225654  0.62534443  1
  O  O320  1  0.50547382  0.50782040  0.11320133  1
  O  O321  1  0.54275665  0.46425176  0.59576782  1
  O  O322  1  0.25326477  0.38580529  0.25177697  1
  O  O323  1  0.27502291  0.39288369  0.73264186  1
  O  O324  1  0.23253106  0.86059565  0.24463274  1
  O  O325  1  0.23231265  0.86489682  0.74211689  1
  O  O326  1  0.73629243  0.38298061  0.25071113  1
  O  O327  1  0.73482612  0.38163440  0.77198425  1
  O  O328  1  0.74278360  0.88222577  0.24684596  1
  O  O329  1  0.73320673  0.84595692  0.74679026  1
  O  O330  1  0.26920671  0.13387513  0.25169650  1
  O  O331  1  0.27135502  0.13606702  0.74626657  1
  O  O332  1  0.26238013  0.62507879  0.25895387  1
  O  O333  1  0.27404168  0.60365935  0.69377629  1
  O  O334  1  0.75385842  0.11750770  0.25887906  1
  O  O335  1  0.75903488  0.11911279  0.74212968  1
  O  O336  1  0.75267264  0.63255142  0.25984418  1
  O  O337  1  0.76483571  0.61998728  0.76496602  1
  O  O338  1  0.37710385  0.09975268  0.36547327  1
  O  O339  1  0.37716554  0.12892617  0.86243528  1
  O  O340  1  0.36701688  0.62278132  0.36968588  1
  O  O341  1  0.36050158  0.67095124  0.83205152  1
  O  O342  1  0.85863184  0.13566432  0.36606128  1
  O  O343  1  0.84954648  0.16342622  0.86864172  1
  O  O344  1  0.85940683  0.60911599  0.37520572  1
  O  O345  1  0.88114649  0.61372085  0.87064112  1
  O  O346  1  0.12827708  0.36448837  0.14672775  1
  O  O347  1  0.11272733  0.38345474  0.62170268  1
  O  O348  1  0.12001578  0.86192167  0.12825046  1
  O  O349  1  0.12009200  0.87313391  0.64376223  1
  O  O350  1  0.58917067  0.37918739  0.15604227  1
  O  O351  1  0.63588261  0.35100260  0.64835298  1
  O  O352  1  0.63441840  0.88179122  0.13308865  1
  O  O353  1  0.62437491  0.88257914  0.63730411  1
  O  O354  1  0.11883056  0.25533335  0.25516630  1
  O  O355  1  0.12990852  0.24786552  0.76160572  1
  O  O356  1  0.11263626  0.75635236  0.25954642  1
  O  O357  1  0.12327963  0.74820712  0.74863160  1
  O  O358  1  0.61968889  0.23930778  0.26326917  1
  O  O359  1  0.62091305  0.25083081  0.76689641  1
  O  O360  1  0.61754617  0.76465117  0.26066177  1
  O  O361  1  0.67317385  0.78430677  0.75349250  1
  O  O362  1  0.37025431  0.25962674  0.23706208  1
  O  O363  1  0.39226067  0.24446038  0.75775118  1
  O  O364  1  0.37942666  0.74336477  0.24954563  1
  O  O365  1  0.37831620  0.76401099  0.72924369  1
  O  O366  1  0.87726326  0.24676914  0.24616626  1
  O  O367  1  0.86259660  0.26710658  0.72192106  1
  O  O368  1  0.87828073  0.76417645  0.24580783  1
  O  O369  1  0.87105719  0.73773987  0.73681466  1
  O  O370  1  0.36405531  0.50774849  0.48908934  1
  O  O371  1  0.38542187  0.48369245  1.00982618  1
  O  O372  1  0.36593882  1.00493946  0.49603000  1
  O  O373  1  0.39213519  0.99883257  1.00181166  1
  O  O374  1  0.87420048  0.49407420  0.48179589  1
  O  O375  1  0.88191968  0.48572868  0.99587074  1
  O  O376  1  0.89385238  0.98100810  0.51086517  1
  O  O377  1  0.88798173  0.99274094  1.00278352  1
  O  O378  1  0.12017814  0.01616871  0.00183173  1
  O  O379  1  0.10919365  0.00185997  0.51889724  1
  O  O380  1  0.11492322  0.49136971  0.00927778  1
  O  O381  1  0.12860272  0.50779014  0.49239136  1
  O  O382  1  0.62339254  0.01211332  0.00345355  1
  O  O383  1  0.61882367  0.01760747  0.48920713  1
  O  O384  1  0.61262702  0.49439298  0.01447150  1
  O  O385  1  0.64223510  0.53717836  0.50610412  1
  O  O386  1  0.37880852  0.36408119  0.11256783  1
  O  O387  1  0.37808416  0.39389557  0.60938441  1
  O  O388  1  0.38688565  0.87465741  0.11109572  1
  O  O389  1  0.35041392  0.88525429  0.63249306  1
  O  O390  1  0.87476190  0.36594988  0.11814194  1
  O  O391  1  0.87361001  0.38021820  0.60056781  1
  O  O392  1  0.86165974  0.88474166  0.11397396  1
  O  O393  1  0.88763011  0.85500595  0.62075726  1
  O  O394  1  0.13181275  0.14070679  0.36099094  1
  O  O395  1  0.11757759  0.13861510  0.87896036  1
  O  O396  1  0.13259625  0.63309728  0.37284909  1
  O  O397  1  0.17284343  0.58472533  0.85921919  1
  O  O398  1  0.62591817  0.13469539  0.38407510  1
  O  O399  1  0.62545345  0.13589588  0.88926728  1
  O  O400  1  0.63258273  0.64233886  0.36975130  1
  O  O401  1  0.64231428  0.61325737  0.86859626  1
