# generated using pymatgen
data_V73Zn73O256
_symmetry_space_group_name_H-M   'P 1'
_cell_length_a   16.92626322
_cell_length_b   16.95364693
_cell_length_c   16.86153660
_cell_angle_alpha   89.93579459
_cell_angle_beta   89.89224437
_cell_angle_gamma   89.89282937
_symmetry_Int_Tables_number   1
_chemical_formula_structural   V73Zn73O256
_chemical_formula_sum   'V73 Zn73 O256'
_cell_volume   4838.59837752
_cell_formula_units_Z   1
loop_
 _symmetry_equiv_pos_site_id
 _symmetry_equiv_pos_as_xyz
  1  'x, y, z'
loop_
 _atom_site_type_symbol
 _atom_site_label
 _atom_site_symmetry_multiplicity
 _atom_site_fract_x
 _atom_site_fract_y
 _atom_site_fract_z
 _atom_site_occupancy
  V  V0  1  0.13223747  0.12992502  0.50658308  1
  V  V1  1  0.86110676  0.27125958  0.10751587  1
  V  V2  1  0.10187367  0.73254799  0.39981268  1
  V  V3  1  -0.00938501  0.38024368  0.39602682  1
  V  V4  1  0.64309110  0.24327586  0.36669020  1
  V  V5  1  0.11567868  0.50366895  0.61370584  1
  V  V6  1  0.87071270  0.74533975  0.64067361  1
  V  V7  1  0.46260853  0.71934853  0.73872767  1
  V  V8  1  0.00190989  0.25000632  0.75667367  1
  V  V9  1  0.25434398  0.11901228  0.36555358  1
  V  V10  1  0.87621262  0.13118253  0.75431419  1
  V  V11  1  0.73783070  0.49419994  0.25189870  1
  V  V12  1  0.12756787  0.74609359  0.89759701  1
  V  V13  1  0.26164082  0.65507602  0.37037882  1
  V  V14  1  0.37687830  0.50037727  0.86882539  1
  V  V15  1  0.12797269  0.86799292  0.25572652  1
  V  V16  1  0.12512118  -0.01150045  0.13462282  1
  V  V17  1  0.51907385  0.12069957  0.10617312  1
  V  V18  1  -0.00715804  0.62159547  0.62210719  1
  V  V19  1  0.65638463  0.13252563  -0.00948049  1
  V  V20  1  0.49584836  0.63315532  0.13865039  1
  V  V21  1  0.12510383  0.37273547  0.74849684  1
  V  V22  1  0.01292218  0.74872676  0.74791700  1
  V  V23  1  0.00178775  0.00203887  0.50735255  1
  V  V24  1  0.87824343  -0.00184760  0.87953181  1
  V  V25  1  0.49020931  0.00476253  0.50067250  1
  V  V26  1  0.73735448  0.75158405  0.50760675  1
  V  V27  1  0.74646469  0.62403354  0.38339914  1
  V  V28  1  0.76542858  0.60921685  0.86257190  1
  V  V29  1  0.74367795  0.88066136  0.63519097  1
  V  V30  1  0.61917745  0.01181879  0.62857917  1
  V  V31  1  0.24774830  0.50985142  0.74420903  1
  V  V32  1  0.60497497  0.88487179  0.77088599  1
  V  V33  1  0.86011487  0.00985906  0.37674465  1
  V  V34  1  0.39737946  0.24409257  0.62332885  1
  V  V35  1  0.75615766  0.00897557  0.23114016  1
  V  V36  1  0.50299251  0.35453661  0.39067897  1
  V  V37  1  0.59205955  0.37849978  0.74473585  1
  V  V38  1  0.38112084  0.37611215  -0.00577724  1
  V  V39  1  0.38099392  0.24467682  0.12300319  1
  V  V40  1  0.62488214  0.48528927  0.12075920  1
  V  V41  1  -0.00882887  0.74577999  0.25090464  1
  V  V42  1  0.63647703  0.88235555  0.23454073  1
  V  V43  1  0.62952155  0.25954125  0.87149014  1
  V  V44  1  0.63367014  0.12598091  0.49834691  1
  V  V45  1  -0.00324477  0.12848726  0.62501448  1
  V  V46  1  0.75173334  0.01086554  0.75836552  1
  V  V47  1  0.62524343  0.75913980  0.36772829  1
  V  V48  1  0.11365854  0.38238818  0.24968914  1
  V  V49  1  0.74610428  0.76022697  -0.01297323  1
  V  V50  1  0.38106931  0.87403700  0.00036690  1
  V  V51  1  0.25775039  0.84456032  0.58141045  1
  V  V52  1  -0.00776086  0.87372994  0.38025203  1
  V  V53  1  0.11872357  0.24002701  0.35793254  1
  V  V54  1  0.76929905  0.25512179  0.50739935  1
  V  V55  1  0.86909086  0.61638355  0.25399292  1
  V  V56  1  0.12493703  0.50143598  0.11299427  1
  V  V57  1  0.12376493  0.11766341  0.01216351  1
  V  V58  1  0.86438200  0.75662640  0.11745659  1
  V  V59  1  0.00681449  0.87515812  0.87087826  1
  V  V60  1  0.23430156  -0.00456312  0.74154460  1
  V  V61  1  0.25142988  0.11628879  0.88127683  1
  V  V62  1  0.11946784  0.26624887  0.89340931  1
  V  V63  1  0.87147443  0.87546149  0.50922758  1
  V  V64  1  0.50808314  0.24975279  0.24553546  1
  V  V65  1  0.49697395  0.88772917  0.37031334  1
  V  V66  1  0.25101406  0.37553084  0.13079827  1
  V  V67  1  -0.00464536  0.61504031  0.11382932  1
  V  V68  1  0.38512250  0.12418300  0.75393082  1
  V  V69  1  0.24418420  0.62096026  0.89511926  1
  V  V70  1  0.35873700  0.45697996  0.36458996  1
  V  V71  1  -0.00071103  -0.00934716  0.00632767  1
  V  V72  1  0.25130889  0.35640914  0.61564004  1
  Zn  Zn73  1  0.49684797  0.51630971  0.48646133  1
  Zn  Zn74  1  0.62251256  0.62952002  -0.00767059  1
  Zn  Zn75  1  0.49975121  0.50466351  0.00201972  1
  Zn  Zn76  1  0.75618232  0.37856174  0.63791017  1
  Zn  Zn77  1  0.39177067  0.11191509  0.25556883  1
  Zn  Zn78  1  -0.04990382  0.17852184  0.21257590  1
  Zn  Zn79  1  0.25614034  0.24400314  0.00179859  1
  Zn  Zn80  1  0.26837680  -0.02063800  0.25493406  1
  Zn  Zn81  1  0.58707188  0.53209694  0.62432897  1
  Zn  Zn82  1  0.18863773  0.18566093  0.18333192  1
  Zn  Zn83  1  0.18435121  0.18085115  0.69554207  1
  Zn  Zn84  1  0.17248347  0.66881228  0.20814957  1
  Zn  Zn85  1  0.19091781  0.68768854  0.67251744  1
  Zn  Zn86  1  0.70433303  0.19465341  0.18126643  1
  Zn  Zn87  1  0.68824579  0.19883389  0.68754376  1
  Zn  Zn88  1  0.67952875  0.68061078  0.18559991  1
  Zn  Zn89  1  0.65863526  0.69949615  0.70328659  1
  Zn  Zn90  1  0.30787884  0.29208151  0.30754273  1
  Zn  Zn91  1  0.30660802  0.30871186  0.80772996  1
  Zn  Zn92  1  0.30191858  0.82246155  0.37426511  1
  Zn  Zn93  1  0.30191678  0.80549942  0.80333538  1
  Zn  Zn94  1  0.81999718  0.31292409  0.30856826  1
  Zn  Zn95  1  0.81242023  0.32902864  0.80949715  1
  Zn  Zn96  1  0.80826573  0.81550552  0.31017398  1
  Zn  Zn97  1  0.81276149  0.81853610  0.81683111  1
  Zn  Zn98  1  0.17651492  0.42849992  0.43717116  1
  Zn  Zn99  1  0.18531585  0.43275314  0.94366842  1
  Zn  Zn100  1  0.18481090  0.94164372  0.44109895  1
  Zn  Zn101  1  0.18671433  0.93451815  0.93570543  1
  Zn  Zn102  1  0.70748122  0.46249545  0.48370101  1
  Zn  Zn103  1  0.66174340  0.47420695  0.89985675  1
  Zn  Zn104  1  0.68226967  0.93628790  0.44219325  1
  Zn  Zn105  1  0.69169044  0.94467531  0.94802288  1
  Zn  Zn106  1  0.31794944  0.05161006  0.08852847  1
  Zn  Zn107  1  0.31253723  0.06940748  0.57011508  1
  Zn  Zn108  1  0.31462761  0.55804051  0.07058107  1
  Zn  Zn109  1  0.29918446  0.52825957  0.53309592  1
  Zn  Zn110  1  0.82792633  0.07635378  0.06599202  1
  Zn  Zn111  1  0.81267783  0.06763907  0.56737485  1
  Zn  Zn112  1  0.80191932  0.56697768  0.06040924  1
  Zn  Zn113  1  0.76455866  0.57922487  0.65428768  1
  Zn  Zn114  1  0.44115279  0.43932050  0.19188622  1
  Zn  Zn115  1  0.42664553  0.44208241  0.67149922  1
  Zn  Zn116  1  0.45484146  0.94497062  0.18498156  1
  Zn  Zn117  1  0.42030050  0.93948800  0.68499682  1
  Zn  Zn118  1  0.93264951  0.43330033  0.18837159  1
  Zn  Zn119  1  0.93496089  0.43806647  0.70281607  1
  Zn  Zn120  1  0.93327231  0.93732704  0.19024042  1
  Zn  Zn121  1  0.94158078  0.93901589  0.69404232  1
  Zn  Zn122  1  0.05885797  0.05403549  0.31720356  1
  Zn  Zn123  1  0.06454345  0.06903601  0.82051155  1
  Zn  Zn124  1  0.05660742  0.55562836  0.31168307  1
  Zn  Zn125  1  0.07345938  0.57388417  0.79844398  1
  Zn  Zn126  1  0.57415659  0.06525213  0.30645705  1
  Zn  Zn127  1  0.56762268  0.06573844  0.82983456  1
  Zn  Zn128  1  0.55636859  0.55061183  0.31943681  1
  Zn  Zn129  1  0.56050207  0.57091807  0.80097200  1
  Zn  Zn130  1  0.43829223  0.18233265  0.44250433  1
  Zn  Zn131  1  0.44664503  0.19371947  0.92596321  1
  Zn  Zn132  1  0.45514453  0.67495196  0.34257100  1
  Zn  Zn133  1  0.44735064  0.67911284  0.92606290  1
  Zn  Zn134  1  0.94457094  0.18234374  0.41276516  1
  Zn  Zn135  1  0.93648295  0.18287315  0.94316559  1
  Zn  Zn136  1  0.92160274  0.68466686  0.44630623  1
  Zn  Zn137  1  0.93438098  0.68693358  0.93336473  1
  Zn  Zn138  1  0.04841822  0.30691127  0.06298812  1
  Zn  Zn139  1  0.06305847  0.30677520  0.56404985  1
  Zn  Zn140  1  0.05518938  0.81104630  0.06869923  1
  Zn  Zn141  1  0.06662507  0.82162189  0.57753328  1
  Zn  Zn142  1  0.56948843  0.31008759  0.05549239  1
  Zn  Zn143  1  0.57850593  0.31444014  0.56355410  1
  Zn  Zn144  1  0.56687865  0.80460297  0.06282709  1
  Zn  Zn145  1  0.55010940  0.82025096  0.56851163  1
  O  O146  1  0.12670562  0.10883103  0.11946426  1
  O  O147  1  0.11676406  0.12655944  0.61231063  1
  O  O148  1  0.10995990  0.61114437  0.13212660  1
  O  O149  1  0.11266174  0.60972427  0.62528282  1
  O  O150  1  0.62527248  0.14205190  0.10447089  1
  O  O151  1  0.62845867  0.11733067  0.62148924  1
  O  O152  1  0.61380212  0.61447367  0.12020972  1
  O  O153  1  0.65819743  0.61994890  0.62795083  1
  O  O154  1  0.38571242  0.35307737  0.36747598  1
  O  O155  1  0.35962335  0.38424631  0.88696702  1
  O  O156  1  0.39876006  0.88019331  0.35679945  1
  O  O157  1  0.37687701  0.87922276  0.89551701  1
  O  O158  1  0.89335830  0.36822159  0.37483326  1
  O  O159  1  0.87690937  0.38602964  0.92441927  1
  O  O160  1  0.87905797  0.87192631  0.39074657  1
  O  O161  1  0.89075655  0.88878924  0.87110770  1
  O  O162  1  0.24189525  0.01346604  0.36828360  1
  O  O163  1  0.24622246  0.01347785  0.87498634  1
  O  O164  1  0.25889229  0.45915248  0.36469627  1
  O  O165  1  0.24532437  0.51099303  0.86878745  1
  O  O166  1  0.76035890  -0.01096896  0.37660638  1
  O  O167  1  0.76493922  -0.00361387  0.86658740  1
  O  O168  1  0.73574941  0.52013318  0.37578241  1
  O  O169  1  0.76648209  0.50765463  0.86248756  1
  O  O170  1  0.23339489  0.49265453  0.12386480  1
  O  O171  1  0.23815034  0.49786553  0.62606855  1
  O  O172  1  0.22856687  0.99208431  0.13433573  1
  O  O173  1  0.24352923  1.01295315  0.64100965  1
  O  O174  1  0.73638228  0.50647617  0.14072482  1
  O  O175  1  0.76580278  0.48524481  0.58900847  1
  O  O176  1  0.77232634  0.99966279  0.13259454  1
  O  O177  1  0.74396282  0.99741001  0.63607725  1
  O  O178  1  0.01246389  0.37553636  0.25402624  1
  O  O179  1  0.01224613  0.36001318  0.74482828  1
  O  O180  1  -0.00346003  0.86249646  0.26285921  1
  O  O181  1  0.00522196  0.86878183  0.76190729  1
  O  O182  1  0.49985438  0.35084732  0.24657224  1
  O  O183  1  0.49328280  0.37332832  0.73740804  1
  O  O184  1  0.52270170  0.89277893  0.26091297  1
  O  O185  1  0.50658336  0.89790632  0.75073548  1
  O  O186  1  0.50805875  0.13096693  0.23362724  1
  O  O187  1  0.48339533  0.12031908  0.76559216  1
  O  O188  1  0.50416701  0.62909943  0.24468141  1
  O  O189  1  0.48412868  0.61864809  0.73366856  1
  O  O190  1  0.99263899  0.14067250  0.30520765  1
  O  O191  1  0.99739500  0.12855992  0.74352248  1
  O  O192  1  0.98736653  0.63007522  0.24908139  1
  O  O193  1  0.99924467  0.63813416  0.73926942  1
  O  O194  1  0.37823709  0.26462995  0.00250420  1
  O  O195  1  0.37489925  0.23059075  0.52446608  1
  O  O196  1  0.37886344  0.76979129  -0.00765624  1
  O  O197  1  0.40508519  0.68631701  0.53711357  1
  O  O198  1  0.89306509  0.26107235  0.00645054  1
  O  O199  1  0.86542255  0.23579418  0.48729444  1
  O  O200  1  0.86759326  0.74530566  0.01135425  1
  O  O201  1  0.86262130  0.76150521  0.51600615  1
  O  O202  1  0.12190804  0.23216650  0.49127302  1
  O  O203  1  0.13113674  0.22173307  1.01378511  1
  O  O204  1  0.09766791  0.74304214  0.49781561  1
  O  O205  1  0.12131943  0.74471360  0.99668684  1
  O  O206  1  0.63670013  0.23950936  0.49216876  1
  O  O207  1  0.63300299  0.24943923  0.98488854  1
  O  O208  1  0.63337334  0.76621154  0.49365696  1
  O  O209  1  0.64224371  0.74794986  1.00108638  1
  O  O210  1  0.49882937  0.24463780  0.12649863  1
  O  O211  1  0.49579870  0.25139133  0.62502091  1
  O  O212  1  0.50415640  0.73316734  0.12422254  1
  O  O213  1  0.50863386  0.76059574  0.65339646  1
  O  O214  1  0.98317325  0.26534592  0.13867747  1
  O  O215  1  1.00706777  0.23745472  0.63965297  1
  O  O216  1  0.98997047  0.73521098  0.13293703  1
  O  O217  1  0.99039103  0.74738629  0.63203103  1
  O  O218  1  0.01817215  0.26710630  0.38289656  1
  O  O219  1  0.01352981  0.23390943  0.86546299  1
  O  O220  1  -0.00893833  0.75303223  0.37313574  1
  O  O221  1  0.01288229  0.75248230  0.87099739  1
  O  O222  1  0.50331465  0.24151583  0.36351044  1
  O  O223  1  0.52364219  0.25874739  0.87586245  1
  O  O224  1  0.51928643  0.77158780  0.37503833  1
  O  O225  1  0.48711201  0.73932625  0.83823004  1
  O  O226  1  0.23505957  0.11429842  0.49158246  1
  O  O227  1  0.24450616  0.11422817  0.99671726  1
  O  O228  1  0.25754691  0.60242012  0.45587769  1
  O  O229  1  0.24530195  0.61721647  0.99401100  1
  O  O230  1  0.74159885  0.13543781  0.50820961  1
  O  O231  1  0.75556437  0.13241667  0.99522497  1
  O  O232  1  0.75370841  0.64163829  0.48658774  1
  O  O233  1  0.74807798  0.63111727  0.98210794  1
  O  O234  1  0.25748056  0.37155083  0.01500727  1
  O  O235  1  0.24497059  0.37984948  0.51753143  1
  O  O236  1  0.27556768  0.87527189  0.00454830  1
  O  O237  1  0.26338509  0.86724644  0.47602355  1
  O  O238  1  0.83447971  0.43089513  -0.03110658  1
  O  O239  1  0.75381236  0.35504244  0.49170358  1
  O  O240  1  0.75081094  0.86052221  -0.00517351  1
  O  O241  1  0.75450719  0.87331689  0.51532471  1
  O  O242  1  0.12385751  0.48516128  0.24450809  1
  O  O243  1  0.13110794  0.49112957  0.73943596  1
  O  O244  1  0.11250728  0.98231570  0.24891563  1
  O  O245  1  0.13369878  1.00493284  0.75801311  1
  O  O246  1  0.63280183  0.50388960  0.24611467  1
  O  O247  1  0.60776814  0.48425515  0.73559053  1
  O  O248  1  0.64472091  0.99235053  0.24835640  1
  O  O249  1  0.63341239  1.00363527  0.74791728  1
  O  O250  1  0.36587791  0.01168252  0.20692225  1
  O  O251  1  0.35975922  0.02058484  0.74826054  1
  O  O252  1  0.38429691  0.49685458  0.27343312  1
  O  O253  1  0.35966145  0.48882079  0.76295579  1
  O  O254  1  0.86605472  -0.00713155  0.26647679  1
  O  O255  1  0.87135521  0.00907833  0.75727870  1
  O  O256  1  0.86093319  0.51161098  0.24676097  1
  O  O257  1  0.93518812  0.48704495  0.83117178  1
  O  O258  1  0.12575280  0.35927225  0.36029161  1
  O  O259  1  0.15113036  0.37429319  0.84940286  1
  O  O260  1  0.10201895  0.86452658  0.37764692  1
  O  O261  1  0.12277277  0.85523276  0.88178581  1
  O  O262  1  0.61136417  0.34354331  0.37858390  1
  O  O263  1  0.61948251  0.38016673  0.85178638  1
  O  O264  1  0.62575215  0.87171395  0.36627782  1
  O  O265  1  0.61891663  0.90185076  0.86929355  1
  O  O266  1  0.39074916  0.13962562  0.10802624  1
  O  O267  1  0.37683865  0.13406262  0.64178101  1
  O  O268  1  0.39630034  0.60949252  0.12445442  1
  O  O269  1  0.38614278  0.63397965  0.58430243  1
  O  O270  1  0.88965492  0.15149196  0.11831015  1
  O  O271  1  0.88702082  0.12200999  0.63877066  1
  O  O272  1  0.88276316  0.62761463  0.13297480  1
  O  O273  1  0.87125445  0.63996666  0.63613263  1
  O  O274  1  0.26397060  0.25228431  0.12231241  1
  O  O275  1  0.23469067  0.25767206  0.62417870  1
  O  O276  1  0.25441966  0.73608951  0.14510432  1
  O  O277  1  0.25382394  0.74398685  0.59789855  1
  O  O278  1  0.75901173  0.25749159  0.10716596  1
  O  O279  1  0.75901158  0.25702911  0.61388056  1
  O  O280  1  0.76146115  0.73976062  0.11860569  1
  O  O281  1  0.75329287  0.76505492  0.62680741  1
  O  O282  1  0.23074365  0.23421750  0.37147828  1
  O  O283  1  0.23439472  0.24498695  0.88452277  1
  O  O284  1  0.20768586  0.74696089  0.38044252  1
  O  O285  1  0.23685856  0.73475464  0.87497348  1
  O  O286  1  0.74393858  0.24905322  0.37701813  1
  O  O287  1  0.73542709  0.27693440  0.86734075  1
  O  O288  1  0.74367173  0.75602235  0.38789864  1
  O  O289  1  0.75696616  0.74627000  0.88414201  1
  O  O290  1  0.01901861  0.10589421  -0.00639472  1
  O  O291  1  0.00400484  0.11955598  0.50657115  1
  O  O292  1  -0.00759382  0.62409813  0.01535063  1
  O  O293  1  -0.01927965  0.62450629  0.52170600  1
  O  O294  1  0.50905535  0.13564778  0.00480695  1
  O  O295  1  0.51634513  0.11072341  0.49499733  1
  O  O296  1  0.50380145  0.62058429  0.00495326  1
  O  O297  1  0.50733133  0.60208046  0.41091908  1
  O  O298  1  0.49549237  0.35107533  0.49027452  1
  O  O299  1  0.48352390  0.38188753  1.00418216  1
  O  O300  1  0.50717059  0.89151522  0.48535474  1
  O  O301  1  0.48543135  0.87278974  0.99661640  1
  O  O302  1  1.00203037  0.37308978  0.49743931  1
  O  O303  1  1.08071823  0.34011909  0.96041765  1
  O  O304  1  0.98936374  0.88170887  0.50293888  1
  O  O305  1  1.00616497  0.88143334  0.98861659  1
  O  O306  1  0.50358456  0.45391327  0.36714220  1
  O  O307  1  0.47667715  0.50530019  0.87311642  1
  O  O308  1  0.51144845  0.99622322  0.38421657  1
  O  O309  1  0.49296556  1.01820325  0.89689868  1
  O  O310  1  1.01163150  0.47846027  0.37797488  1
  O  O311  1  0.99693815  0.50718584  0.86918355  1
  O  O312  1  0.98237014  0.98813414  0.38679264  1
  O  O313  1  1.00127626  0.99043320  0.88256223  1
  O  O314  1  0.00622392  -0.01121231  0.11685504  1
  O  O315  1  -0.00499428  0.00827515  0.61576985  1
  O  O316  1  0.00561653  0.50892552  0.13122640  1
  O  O317  1  0.00702033  0.50415396  0.63948988  1
  O  O318  1  0.51207924  0.02192149  0.11922271  1
  O  O319  1  0.50918138  -0.00837389  0.61021385  1
  O  O320  1  0.51435129  0.50392499  0.12925851  1
  O  O321  1  0.47271216  0.51570860  0.60213729  1
  O  O322  1  0.23869062  0.35958673  0.23475760  1
  O  O323  1  0.24393325  0.38320195  0.73174377  1
  O  O324  1  0.22962507  0.86996392  0.27843409  1
  O  O325  1  0.25353876  0.89773360  0.76400203  1
  O  O326  1  0.75132125  0.39857661  0.26871574  1
  O  O327  1  0.83306991  0.39696695  0.72216771  1
  O  O328  1  0.74377590  0.88534794  0.24670788  1
  O  O329  1  0.75026516  0.89223230  0.74657049  1
  O  O330  1  0.24762835  0.12144357  0.26042122  1
  O  O331  1  0.24645553  0.11814801  0.76848574  1
  O  O332  1  0.23534023  0.61154502  0.28233127  1
  O  O333  1  0.24069038  0.61184537  0.74851056  1
  O  O334  1  0.74703588  0.10739972  0.24499974  1
  O  O335  1  0.76226147  0.11884940  0.74283711  1
  O  O336  1  0.75338887  0.62050976  0.26001345  1
  O  O337  1  0.74598930  0.63439701  0.76126497  1
  O  O338  1  0.35818883  0.13124903  0.37234819  1
  O  O339  1  0.35741015  0.13982409  0.87088318  1
  O  O340  1  0.34992659  0.70991758  0.35631811  1
  O  O341  1  0.35598520  0.60960343  0.88180143  1
  O  O342  1  0.86007430  0.10682051  0.38639063  1
  O  O343  1  0.88905600  0.10944046  0.86507306  1
  O  O344  1  0.85730625  0.63477874  0.36611499  1
  O  O345  1  0.86567257  0.62766397  0.86939356  1
  O  O346  1  0.12616799  0.38363563  0.13246487  1
  O  O347  1  0.13000819  0.38211282  0.63050285  1
  O  O348  1  0.11679224  0.87251920  0.14405447  1
  O  O349  1  0.16137274  0.87559779  0.60614639  1
  O  O350  1  0.62060077  0.38592415  0.12747459  1
  O  O351  1  0.63766127  0.36730249  0.64499083  1
  O  O352  1  0.62083321  0.87347373  0.13646785  1
  O  O353  1  0.63350816  0.89145287  0.63378186  1
  O  O354  1  0.12126201  0.25225186  0.25371707  1
  O  O355  1  0.11990871  0.25532780  0.76256624  1
  O  O356  1  0.10330473  0.75092965  0.25852989  1
  O  O357  1  0.11563752  0.74708312  0.74455825  1
  O  O358  1  0.62621095  0.23735595  0.26069701  1
  O  O359  1  0.62570474  0.26484853  0.75648104  1
  O  O360  1  0.63875720  0.76751297  0.25976055  1
  O  O361  1  0.62982426  0.78698219  0.76192177  1
  O  O362  1  0.38619460  0.23682113  0.23593630  1
  O  O363  1  0.36490171  0.23623246  0.74042083  1
  O  O364  1  0.32014579  0.74247352  0.17942136  1
  O  O365  1  0.36187999  0.73841224  0.73675148  1
  O  O366  1  0.85608429  0.24843534  0.22665811  1
  O  O367  1  0.88837282  0.23804975  0.76696062  1
  O  O368  1  0.87627840  0.74112578  0.24227234  1
  O  O369  1  0.88721822  0.76558268  0.74353411  1
  O  O370  1  0.38168056  0.49859647  0.45969764  1
  O  O371  1  0.36956908  0.48816671  0.99028840  1
  O  O372  1  0.39163323  1.01323426  0.50408334  1
  O  O373  1  0.37718979  0.97801248  1.00807492  1
  O  O374  1  0.88684551  0.50095217  0.48129850  1
  O  O375  1  0.87626408  0.48865437  1.00708220  1
  O  O376  1  0.87663812  0.99185734  0.49686967  1
  O  O377  1  0.88995571  1.00757654  0.99161921  1
  O  O378  1  0.12121007  -0.00315830  0.01147989  1
  O  O379  1  0.10798347  0.01284113  0.48793826  1
  O  O380  1  0.11856000  0.49710814  0.01404456  1
  O  O381  1  0.12014258  0.49344612  0.51501397  1
  O  O382  1  0.63681924  0.03260736  -0.01002908  1
  O  O383  1  0.62769166  0.00948747  0.51157188  1
  O  O384  1  0.62680235  0.49220503  0.01369892  1
  O  O385  1  0.60392854  0.48341088  0.51841858  1
  O  O386  1  0.36963318  0.37040274  0.11841176  1
  O  O387  1  0.35942754  0.35392829  0.62928923  1
  O  O388  1  0.38856638  0.86753003  0.10509015  1
  O  O389  1  0.34390531  0.88145272  0.62285858  1
  O  O390  1  0.86900424  0.37326856  0.12211935  1
  O  O391  1  0.87726178  0.47004288  0.54652153  1
  O  O392  1  0.88019695  0.85399307  0.13019599  1
  O  O393  1  0.86664399  0.87533013  0.62315424  1
  O  O394  1  0.13057320  0.13021330  0.38143280  1
  O  O395  1  0.13586391  0.13152753  0.89221848  1
  O  O396  1  0.10040543  0.63375568  0.38312550  1
  O  O397  1  0.13214873  0.63395697  0.87731721  1
  O  O398  1  0.62757201  0.13368597  0.38491640  1
  O  O399  1  0.63718941  0.14537926  0.87856496  1
  O  O400  1  0.64224992  0.65193309  0.36522312  1
  O  O401  1  0.63722422  0.59192560  0.87997787  1
