# generated using pymatgen
data_V73Zn73O256
_symmetry_space_group_name_H-M   'P 1'
_cell_length_a   16.92961952
_cell_length_b   16.93035797
_cell_length_c   16.90513111
_cell_angle_alpha   90.08908841
_cell_angle_beta   90.02779998
_cell_angle_gamma   90.05555570
_symmetry_Int_Tables_number   1
_chemical_formula_structural   V73Zn73O256
_chemical_formula_sum   'V73 Zn73 O256'
_cell_volume   4845.41636225
_cell_formula_units_Z   1
loop_
 _symmetry_equiv_pos_site_id
 _symmetry_equiv_pos_as_xyz
  1  'x, y, z'
loop_
 _atom_site_type_symbol
 _atom_site_label
 _atom_site_symmetry_multiplicity
 _atom_site_fract_x
 _atom_site_fract_y
 _atom_site_fract_z
 _atom_site_occupancy
  V  V0  1  0.00400730  0.87723081  0.36700078  1
  V  V1  1  0.75350342  0.00661698  0.75745208  1
  V  V2  1  0.00420639  0.50375531  0.50011702  1
  V  V3  1  0.36430748  0.86162696  0.00336325  1
  V  V4  1  0.67893173  0.05879135  0.57383050  1
  V  V5  1  0.00798417  0.00318414  0.51249470  1
  V  V6  1  0.86425634  0.51227067  0.36860370  1
  V  V7  1  -0.01255362  0.74003268  0.25210555  1
  V  V8  1  0.25474088  0.38268661  0.61643316  1
  V  V9  1  0.62844208  0.87499899  0.75191687  1
  V  V10  1  0.86859388  0.41207434  0.01296973  1
  V  V11  1  0.11889053  0.61953488  0.00248542  1
  V  V12  1  0.38079142  0.11274147  0.27065161  1
  V  V13  1  0.25505471  0.25178962  0.48532084  1
  V  V14  1  0.87313863  0.87894939  0.00740639  1
  V  V15  1  0.25487622  0.52996697  0.25766726  1
  V  V16  1  0.13554712  0.74743951  0.37346471  1
  V  V17  1  0.63055298  -0.00233819  0.12995298  1
  V  V18  1  0.50331645  -0.00324698  -0.00202511  1
  V  V19  1  0.00272853  0.36870539  0.38019088  1
  V  V20  1  0.12591852  0.87754091  0.74053067  1
  V  V21  1  0.13871038  0.62995608  0.49906790  1
  V  V22  1  0.47061630  0.36902683  0.88410540  1
  V  V23  1  0.50368678  0.87139889  0.86913394  1
  V  V24  1  0.25435466  0.49603445  0.76524084  1
  V  V25  1  0.75362375  0.73678953  0.00375138  1
  V  V26  1  0.00516050  0.63227072  0.62817505  1
  V  V27  1  0.88938408  0.24946524  0.62846705  1
  V  V28  1  0.12586912  0.49152342  0.12747706  1
  V  V29  1  0.50237830  0.25187918  0.75042890  1
  V  V30  1  0.11503313  0.73801044  0.87525970  1
  V  V31  1  0.86062024  0.00316798  0.36785274  1
  V  V32  1  -0.00570191  0.62419904  0.12971371  1
  V  V33  1  -0.00332976  0.87281710  0.88565845  1
  V  V34  1  0.48744168  0.66342673  0.58383687  1
  V  V35  1  0.11618499  0.37176159  0.73978866  1
  V  V36  1  0.48175653  0.75258385  0.24445084  1
  V  V37  1  0.74451312  0.37630197  0.12863257  1
  V  V38  1  -0.00331114  0.38219621  0.89546969  1
  V  V39  1  0.47799472  0.49526057  0.00022110  1
  V  V40  1  0.37506858  -0.00024818  0.86837727  1
  V  V41  1  0.74615301  0.73680160  0.49240662  1
  V  V42  1  0.37471895  0.24979609  0.62215624  1
  V  V43  1  0.75580112  0.12696490  0.87831308  1
  V  V44  1  0.74376880  0.38135298  0.64356207  1
  V  V45  1  0.86275780  0.50905683  0.85256508  1
  V  V46  1  0.13161093  0.36846060  0.25536898  1
  V  V47  1  0.74677555  0.87138972  0.13267864  1
  V  V48  1  0.36081575  0.12222701  0.74842042  1
  V  V49  1  0.49704953  -0.00525910  0.49249895  1
  V  V50  1  0.13676236  0.12681432  0.49752436  1
  V  V51  1  0.62674391  0.26491688  0.87732281  1
  V  V52  1  0.25666529  0.62562897  0.87892674  1
  V  V53  1  0.62467669  0.38756748  0.26107614  1
  V  V54  1  0.75415431  0.87590198  0.62601169  1
  V  V55  1  0.62656514  0.74169560  0.36649800  1
  V  V56  1  0.48296122  0.62915804  0.12241949  1
  V  V57  1  0.37596835  0.26009966  0.11602254  1
  V  V58  1  0.64860230  0.22927391  0.36940796  1
  V  V59  1  0.62703044  0.12926457  0.00066789  1
  V  V60  1  0.34257768  0.88472766  0.49018169  1
  V  V61  1  0.50432360  0.25573962  0.25720814  1
  V  V62  1  0.49777851  0.12458133  0.12636896  1
  V  V63  1  0.50218558  0.11848636  0.62510052  1
  V  V64  1  0.87589287  0.86895324  0.50165251  1
  V  V65  1  0.81231605  0.69115683  0.67683265  1
  V  V66  1  0.25092250  0.12520094  0.90636481  1
  V  V67  1  0.62330075  0.73793020  0.88047053  1
  V  V68  1  0.76563146  0.25398976  0.00261200  1
  V  V69  1  -0.00734845  0.24994028  0.23033512  1
  V  V70  1  0.61864321  0.50367717  0.11469441  1
  V  V71  1  0.59969792  0.49125433  0.62371225  1
  V  V72  1  0.20569074  -0.02730254  0.23834887  1
  Zn  Zn73  1  -0.01261325  0.74551569  0.74999583  1
  Zn  Zn74  1  0.85965740  0.37130034  0.49949584  1
  Zn  Zn75  1  0.86687446  0.14011337  0.26045795  1
  Zn  Zn76  1  0.39761281  0.62405418  0.74097526  1
  Zn  Zn77  1  0.11240991  0.22006951  0.86099558  1
  Zn  Zn78  1  0.61410585  0.88015206  0.26206727  1
  Zn  Zn79  1  0.75083582  0.62544103  0.84960872  1
  Zn  Zn80  1  0.88370050  0.00716832  0.88158488  1
  Zn  Zn81  1  0.91837435  0.12816501  0.74065314  1
  Zn  Zn82  1  0.21541314  0.14236132  0.15857569  1
  Zn  Zn83  1  0.17829882  0.19184832  0.67689144  1
  Zn  Zn84  1  0.18002471  0.70407705  0.18374759  1
  Zn  Zn85  1  0.18439968  0.68665958  0.69399166  1
  Zn  Zn86  1  0.69499142  0.18797827  0.19153080  1
  Zn  Zn87  1  0.69494253  0.20195401  0.69755083  1
  Zn  Zn88  1  0.67873599  0.68539259  0.18722840  1
  Zn  Zn89  1  0.60440001  0.65719550  0.71626053  1
  Zn  Zn90  1  0.27887908  0.26021422  0.27044359  1
  Zn  Zn91  1  0.29954805  0.30011639  0.80977540  1
  Zn  Zn92  1  0.30424092  0.82582244  0.30382542  1
  Zn  Zn93  1  0.30903337  0.80817889  0.81561056  1
  Zn  Zn94  1  0.81725181  0.33302888  0.31113039  1
  Zn  Zn95  1  0.83004455  0.31537152  0.81477712  1
  Zn  Zn96  1  0.81295484  0.80876563  0.31599197  1
  Zn  Zn97  1  0.80791117  0.81431567  0.82161123  1
  Zn  Zn98  1  0.19125879  0.44489483  0.43275774  1
  Zn  Zn99  1  0.17200339  0.44234925  0.93279387  1
  Zn  Zn100  1  0.17825809  0.95275051  0.41880818  1
  Zn  Zn101  1  0.20131999  0.92065746  0.89963488  1
  Zn  Zn102  1  0.68508186  0.43693318  0.45279305  1
  Zn  Zn103  1  0.68986954  0.44816999  0.93793016  1
  Zn  Zn104  1  0.68391180  0.92758516  0.43503004  1
  Zn  Zn105  1  0.69129346  0.93601630  0.94132477  1
  Zn  Zn106  1  0.31953606  0.03547678  0.07115048  1
  Zn  Zn107  1  0.31831881  0.06339057  0.55688248  1
  Zn  Zn108  1  0.30264044  0.55948916  0.06716332  1
  Zn  Zn109  1  0.32433908  0.56513043  0.55529543  1
  Zn  Zn110  1  0.81211471  0.07053605  0.08514922  1
  Zn  Zn111  1  0.84854755  0.06884268  0.55576944  1
  Zn  Zn112  1  0.79323255  0.58254882  0.11919155  1
  Zn  Zn113  1  0.81306564  0.55147716  0.55477281  1
  Zn  Zn114  1  0.43127609  0.43888384  0.19661806  1
  Zn  Zn115  1  0.43019937  0.43210848  0.69589769  1
  Zn  Zn116  1  0.43376144  0.93430848  0.18526201  1
  Zn  Zn117  1  0.43893336  0.93538066  0.68384459  1
  Zn  Zn118  1  0.93970051  0.44028735  0.19380325  1
  Zn  Zn119  1  0.93145882  0.44159539  0.67459298  1
  Zn  Zn120  1  0.93368607  0.93304578  0.19129956  1
  Zn  Zn121  1  0.93862710  0.93461770  0.69689031  1
  Zn  Zn122  1  0.06227647  0.07343539  0.30776857  1
  Zn  Zn123  1  0.07033077  0.05110181  0.82064693  1
  Zn  Zn124  1  0.06656064  0.56092483  0.31605399  1
  Zn  Zn125  1  0.06129450  0.55025071  0.80689112  1
  Zn  Zn126  1  0.56893657  0.06543974  0.31225855  1
  Zn  Zn127  1  0.56585913  0.06440199  0.80978374  1
  Zn  Zn128  1  0.55153328  0.57111156  0.31058343  1
  Zn  Zn129  1  0.55224088  0.54063809  0.81276508  1
  Zn  Zn130  1  0.45350419  0.19299747  0.44348884  1
  Zn  Zn131  1  0.43542288  0.18479129  0.93814067  1
  Zn  Zn132  1  0.43556659  0.76751722  0.43573463  1
  Zn  Zn133  1  0.44187281  0.68203923  0.93537160  1
  Zn  Zn134  1  0.93205619  0.18602374  0.44160537  1
  Zn  Zn135  1  0.95325538  0.19500808  0.90579669  1
  Zn  Zn136  1  0.93851599  0.68634280  0.43780220  1
  Zn  Zn137  1  0.93295439  0.68217496  0.94444329  1
  Zn  Zn138  1  0.06783805  0.20374855  0.05591169  1
  Zn  Zn139  1  0.07206384  0.30919220  0.55646478  1
  Zn  Zn140  1  0.07177831  0.80552325  0.06714195  1
  Zn  Zn141  1  0.06402548  0.81052471  0.55942032  1
  Zn  Zn142  1  0.56073477  0.31525667  0.06451068  1
  Zn  Zn143  1  0.74250588  0.24556254  0.50889598  1
  Zn  Zn144  1  0.56363941  0.81050660  0.06000267  1
  Zn  Zn145  1  0.57262022  0.81815911  0.56078430  1
  O  O146  1  0.11185833  0.13770533  0.12690810  1
  O  O147  1  0.11727583  0.13544273  0.60025025  1
  O  O148  1  0.11981010  0.61848415  0.11625803  1
  O  O149  1  0.11523175  0.63436188  0.61288254  1
  O  O150  1  0.61887032  0.11902849  0.11694309  1
  O  O151  1  0.62199021  0.12278815  0.63268443  1
  O  O152  1  0.60911345  0.60678959  0.12551793  1
  O  O153  1  0.57790263  0.61745496  0.60871372  1
  O  O154  1  0.44923707  0.36158117  0.44230591  1
  O  O155  1  0.37270689  0.36142300  0.88247619  1
  O  O156  1  0.37139363  0.86268017  0.38947195  1
  O  O157  1  0.38648025  0.87876456  0.87448608  1
  O  O158  1  0.89236572  0.38519827  0.38524789  1
  O  O159  1  0.86078985  0.40545686  0.89769203  1
  O  O160  1  0.88279254  0.88086110  0.38218741  1
  O  O161  1  0.88331698  0.87217722  0.88679502  1
  O  O162  1  0.23448270  -0.00040574  0.33303021  1
  O  O163  1  0.26857091  0.01207025  0.88058941  1
  O  O164  1  0.24470054  0.51012880  0.35764747  1
  O  O165  1  0.25047455  0.50049731  0.87036478  1
  O  O166  1  0.76233924  -0.01049117  0.37855619  1
  O  O167  1  0.75296202  0.00933655  0.87344550  1
  O  O168  1  0.76771741  0.49152605  0.39209885  1
  O  O169  1  0.75564357  0.51199399  0.87211356  1
  O  O170  1  0.23196170  0.50375322  0.13758501  1
  O  O171  1  0.26068415  0.48468614  0.62152256  1
  O  O172  1  0.24645301  1.02405511  0.15447099  1
  O  O173  1  0.28875424  0.97538143  0.63159392  1
  O  O174  1  0.72554007  0.48957529  0.11638745  1
  O  O175  1  0.76594364  0.48061436  0.62773216  1
  O  O176  1  0.73971150  0.98215055  0.11445206  1
  O  O177  1  0.74545783  0.99882870  0.63352131  1
  O  O178  1  0.00273126  0.37011600  0.26555132  1
  O  O179  1  0.01885906  0.38307878  0.72760907  1
  O  O180  1  -0.00492823  0.86277930  0.26117192  1
  O  O181  1  0.00247945  0.86535358  0.76564372  1
  O  O182  1  0.50953090  0.36296241  0.24970416  1
  O  O183  1  0.48709579  0.36206930  0.77137395  1
  O  O184  1  0.50470922  0.85499048  0.22408769  1
  O  O185  1  0.51114874  0.88219587  0.75972237  1
  O  O186  1  0.50142532  0.13271696  0.24204732  1
  O  O187  1  0.49324484  0.13231770  0.74730500  1
  O  O188  1  0.49404090  0.63624577  0.23163569  1
  O  O189  1  0.50258175  0.63573721  0.77676170  1
  O  O190  1  0.99155411  0.14785683  0.25624839  1
  O  O191  1  1.00501308  0.14099596  0.81004551  1
  O  O192  1  1.00375869  0.63264924  0.24609736  1
  O  O193  1  1.00748916  0.61982062  0.73123336  1
  O  O194  1  0.38105410  0.24441176  0.01646960  1
  O  O195  1  0.36787166  0.23950657  0.51145441  1
  O  O196  1  0.38475676  0.76354901  -0.00494065  1
  O  O197  1  0.36767019  0.79434381  0.52765956  1
  O  O198  1  0.86379862  0.25118818  -0.00187713  1
  O  O199  1  0.86378082  0.24448184  0.51259181  1
  O  O200  1  0.85907284  0.75669021  -0.00210871  1
  O  O201  1  0.86240416  0.76199777  0.48933533  1
  O  O202  1  0.14673841  0.24401751  0.49481574  1
  O  O203  1  0.20467732  0.30865351  1.02462082  1
  O  O204  1  0.12086928  0.73879941  0.48964590  1
  O  O205  1  0.11799382  0.73151791  0.98393770  1
  O  O206  1  0.63188071  0.22788248  0.46891025  1
  O  O207  1  0.62740751  0.24303303  0.99479387  1
  O  O208  1  0.64011570  0.75445679  0.48937652  1
  O  O209  1  0.63717477  0.75545482  0.98660573  1
  O  O210  1  0.49989469  0.24118474  0.13321176  1
  O  O211  1  0.49011198  0.23942883  0.63884333  1
  O  O212  1  0.50580347  0.73376280  0.12333491  1
  O  O213  1  0.49959752  0.75659997  0.62380556  1
  O  O214  1  0.98973484  0.25798099  0.13213412  1
  O  O215  1  0.98897495  0.25723053  0.61325203  1
  O  O216  1  1.00603008  0.73945444  0.14359259  1
  O  O217  1  0.99398183  0.73582913  0.62372407  1
  O  O218  1  0.00021245  0.26925347  0.39367814  1
  O  O219  1  -0.04887850  0.30420165  0.84929621  1
  O  O220  1  -0.00139545  0.75934457  0.36999617  1
  O  O221  1  -0.00128468  0.74946235  0.87276084  1
  O  O222  1  0.52267523  0.23999527  0.35992261  1
  O  O223  1  0.50400946  0.25809590  0.87528603  1
  O  O224  1  0.50853841  0.75160611  0.34937993  1
  O  O225  1  0.51502737  0.76016283  0.88535499  1
  O  O226  1  0.24559503  0.13289875  0.49854294  1
  O  O227  1  0.26186097  0.11846297  1.00542907  1
  O  O228  1  0.23714279  0.62375740  0.50987824  1
  O  O229  1  0.23760901  0.61241642  0.98448133  1
  O  O230  1  0.74379871  0.11281862  0.51844112  1
  O  O231  1  0.74321351  0.13409811  0.99983905  1
  O  O232  1  0.75480158  0.63982049  0.50828693  1
  O  O233  1  0.75399765  0.63849903  1.01691640  1
  O  O234  1  0.24406795  0.36483572  -0.00462114  1
  O  O235  1  0.24567765  0.36739222  0.50839867  1
  O  O236  1  0.26655235  0.87241699  -0.01976528  1
  O  O237  1  0.24361776  0.89372066  0.49071617  1
  O  O238  1  0.75847163  0.37507273  0.00685789  1
  O  O239  1  0.74508135  0.36532585  0.51822845  1
  O  O240  1  0.75996204  0.86507547  0.00340884  1
  O  O241  1  0.75685408  0.86959002  0.50980544  1
  O  O242  1  0.13548939  0.49626297  0.24621120  1
  O  O243  1  0.14015535  0.48043576  0.75367302  1
  O  O244  1  0.10439040  0.99062863  0.24019949  1
  O  O245  1  0.10885856  0.97713333  0.74598533  1
  O  O246  1  0.60552629  0.48980867  0.24124362  1
  O  O247  1  0.62237584  0.52842082  0.72371809  1
  O  O248  1  0.61715094  0.99500727  0.23327590  1
  O  O249  1  0.63935207  0.98823810  0.75904846  1
  O  O250  1  0.39050434  0.01317314  0.25346093  1
  O  O251  1  0.38764804  0.00945247  0.76210186  1
  O  O252  1  0.35234032  0.50404917  0.24029813  1
  O  O253  1  0.35769208  0.50544459  0.74878940  1
  O  O254  1  0.87860957  -0.00273408  0.26661022  1
  O  O255  1  0.86590571  0.00728063  0.75701026  1
  O  O256  1  0.87275283  0.49175952  0.26871411  1
  O  O257  1  0.87055034  0.49839791  0.75453093  1
  O  O258  1  0.11240715  0.38745962  0.36517554  1
  O  O259  1  0.10149892  0.37578499  0.86967451  1
  O  O260  1  0.10773983  0.86234651  0.38447363  1
  O  O261  1  0.10539280  0.85801313  0.88383163  1
  O  O262  1  0.62872545  0.38065725  0.36135476  1
  O  O263  1  0.62672914  0.36499989  0.88369610  1
  O  O264  1  0.62529141  0.85652763  0.37291754  1
  O  O265  1  0.62059281  0.87144387  0.87169834  1
  O  O266  1  0.39255963  0.12415697  0.13055652  1
  O  O267  1  0.38320290  0.12988637  0.63198876  1
  O  O268  1  0.38382026  0.62635965  0.11536249  1
  O  O269  1  0.40084986  0.61469399  0.62240214  1
  O  O270  1  0.93738412  0.08066726  0.09752369  1
  O  O271  1  0.88004074  0.13761023  0.63372843  1
  O  O272  1  0.89704354  0.62307864  0.12266743  1
  O  O273  1  0.87794812  0.62792942  0.62631702  1
  O  O274  1  0.27757858  0.24236237  0.14475545  1
  O  O275  1  0.26021707  0.25717743  0.61619509  1
  O  O276  1  0.17145348  0.79229610  0.11715205  1
  O  O277  1  0.28500479  0.74219252  0.67027827  1
  O  O278  1  0.73620279  0.27009529  0.11237112  1
  O  O279  1  0.75546915  0.26112498  0.62682431  1
  O  O280  1  0.73428667  0.76376760  0.11087787  1
  O  O281  1  0.75849603  0.75774221  0.61290570  1
  O  O282  1  0.26952649  0.26172408  0.38897278  1
  O  O283  1  0.24769083  0.22671529  0.88045350  1
  O  O284  1  0.23342037  0.75691899  0.36868287  1
  O  O285  1  0.23399056  0.72826567  0.86884124  1
  O  O286  1  0.74671045  0.26095956  0.36631752  1
  O  O287  1  0.74438748  0.24554063  0.88407346  1
  O  O288  1  0.74190658  0.74660557  0.38280850  1
  O  O289  1  0.74287241  0.74220990  0.88580404  1
  O  O290  1  0.04790303  0.23568602  -0.04595041  1
  O  O291  1  -0.00556928  0.10404942  0.49935281  1
  O  O292  1  0.00725672  0.62794648  0.01685689  1
  O  O293  1  0.00541449  0.61962398  0.50803328  1
  O  O294  1  0.50902980  0.11695692  0.00380140  1
  O  O295  1  0.50013468  0.11533115  0.51602393  1
  O  O296  1  0.49425139  0.60446545  0.00433317  1
  O  O297  1  0.47645978  0.66903344  0.48365956  1
  O  O298  1  0.50676371  0.38072933  0.48174311  1
  O  O299  1  0.49444580  0.37809910  0.99160123  1
  O  O300  1  0.50588421  0.89308678  0.50554144  1
  O  O301  1  0.49918494  0.88353309  0.98994444  1
  O  O302  1  1.01751582  0.39275835  0.49303648  1
  O  O303  1  0.97424485  0.38561455  0.99833666  1
  O  O304  1  0.99312173  0.87825311  0.49385440  1
  O  O305  1  0.98481087  0.85685175  0.99804666  1
  O  O306  1  0.47092576  0.50814800  0.37117484  1
  O  O307  1  0.49297312  0.47903022  0.88739014  1
  O  O308  1  0.51951035  1.00983696  0.39596350  1
  O  O309  1  0.49883571  0.99424524  0.88167480  1
  O  O310  1  0.99437829  0.49843568  0.38476684  1
  O  O311  1  0.98198064  0.48449175  0.86475830  1
  O  O312  1  0.99797648  0.98334528  0.38148075  1
  O  O313  1  0.99986329  0.97625695  0.88471541  1
  O  O314  1  -0.02119742  0.01931947  0.11733941  1
  O  O315  1  -0.00681470  -0.01028695  0.61095386  1
  O  O316  1  0.01415126  0.51501882  0.14235906  1
  O  O317  1  -0.00496488  0.51406987  0.60868504  1
  O  O318  1  0.50876748  0.00517205  0.11307783  1
  O  O319  1  0.49944109  0.01041594  0.61891558  1
  O  O320  1  0.49794611  0.50319261  0.11634764  1
  O  O321  1  0.50085366  0.47168158  0.61908600  1
  O  O322  1  0.23184526  0.36537554  0.25921131  1
  O  O323  1  0.24883304  0.38347494  0.74322251  1
  O  O324  1  0.23197787  0.87419851  0.23237475  1
  O  O325  1  0.22269680  0.87636886  0.78335606  1
  O  O326  1  0.73369345  0.37766038  0.24058933  1
  O  O327  1  0.75797882  0.36791176  0.74400610  1
  O  O328  1  0.75041127  0.86578370  0.23367691  1
  O  O329  1  0.75021816  0.88611961  0.74770182  1
  O  O330  1  0.28070382  0.14151504  0.26093245  1
  O  O331  1  0.26115836  0.12778076  0.73834513  1
  O  O332  1  0.24420037  0.62954546  0.24217143  1
  O  O333  1  0.23536677  0.60448017  0.76460315  1
  O  O334  1  0.78813396  0.12694634  0.18295898  1
  O  O335  1  0.74185313  0.11820008  0.76615879  1
  O  O336  1  0.75871429  0.61853726  0.21961227  1
  O  O337  1  0.74229065  0.64293998  0.73078402  1
  O  O338  1  0.39642458  0.12640378  0.36819300  1
  O  O339  1  0.36768431  0.11958049  0.86914872  1
  O  O340  1  0.41153926  0.54818140  0.40667537  1
  O  O341  1  0.35766687  0.63147983  0.87162937  1
  O  O342  1  0.87404452  0.10837533  0.37629562  1
  O  O343  1  0.86059059  0.12650326  0.88541138  1
  O  O344  1  0.87619454  0.61231960  0.38014953  1
  O  O345  1  0.87574133  0.61176900  0.87246375  1
  O  O346  1  0.11490779  0.39080184  0.14309965  1
  O  O347  1  0.14414192  0.36574409  0.63302438  1
  O  O348  1  0.11066405  0.94533215  0.06807280  1
  O  O349  1  0.12836636  0.85518462  0.64268952  1
  O  O350  1  0.62397499  0.38483384  0.13356208  1
  O  O351  1  0.63780388  0.38998561  0.64048919  1
  O  O352  1  0.63455034  0.88223016  0.11953903  1
  O  O353  1  0.64408795  0.86908655  0.63835121  1
  O  O354  1  0.10640091  0.26795251  0.25050360  1
  O  O355  1  0.13627002  0.26616352  0.75774264  1
  O  O356  1  0.10818654  0.74397607  0.27195730  1
  O  O357  1  0.11511007  0.75259731  0.76316023  1
  O  O358  1  0.62134186  0.26186050  0.24937506  1
  O  O359  1  0.61091732  0.24326452  0.76589871  1
  O  O360  1  0.62385586  0.75340687  0.25789183  1
  O  O361  1  0.63239419  0.76400472  0.76926571  1
  O  O362  1  0.39917166  0.24257010  0.24725614  1
  O  O363  1  0.38016465  0.23979667  0.74449794  1
  O  O364  1  0.38335395  0.75772148  0.24919641  1
  O  O365  1  0.34091902  0.73445757  0.73030464  1
  O  O366  1  0.89059914  0.26168170  0.25782264  1
  O  O367  1  0.87498966  0.24446633  0.73337224  1
  O  O368  1  0.88791402  0.74631644  0.25633123  1
  O  O369  1  0.86648988  0.74794665  0.74420018  1
  O  O370  1  0.37922707  0.50609546  0.46558105  1
  O  O371  1  0.37930094  0.49276704  1.00706538  1
  O  O372  1  0.38815531  0.99301341  0.49380326  1
  O  O373  1  0.38924168  0.99426981  0.98753182  1
  O  O374  1  0.89266680  0.49581690  0.49204593  1
  O  O375  1  0.86501602  0.50891145  1.01273423  1
  O  O376  1  0.88637690  0.98730401  0.48767486  1
  O  O377  1  0.86716776  0.98129585  0.99954233  1
  O  O378  1  0.12781044  -0.01372850  0.00929967  1
  O  O379  1  0.11552866  0.00942242  0.50076566  1
  O  O380  1  0.12308753  0.50257349  0.01661738  1
  O  O381  1  0.11558373  0.51797626  0.49237202  1
  O  O382  1  0.62018298  0.00858096  0.00452032  1
  O  O383  1  0.62397045  -0.00141392  0.51175992  1
  O  O384  1  0.60743516  0.48952098  0.01119791  1
  O  O385  1  0.63036563  0.50268374  0.52631701  1
  O  O386  1  0.38575411  0.35862096  0.12904475  1
  O  O387  1  0.36294229  0.36206593  0.62996586  1
  O  O388  1  0.37063016  0.89003839  0.10148912  1
  O  O389  1  0.33987974  0.91288584  0.61999129  1
  O  O390  1  0.85969817  0.39201207  0.12030857  1
  O  O391  1  0.86980978  0.36253416  0.62038406  1
  O  O392  1  0.86182993  0.87586935  0.11724645  1
  O  O393  1  0.86328254  0.88301908  0.61791117  1
  O  O394  1  0.11209228  0.12518141  0.39717949  1
  O  O395  1  0.15099197  0.10583480  0.88496946  1
  O  O396  1  0.12218775  0.63625744  0.38830170  1
  O  O397  1  0.12031144  0.61919391  0.88263748  1
  O  O398  1  0.65648299  0.13300448  0.33842873  1
  O  O399  1  0.63230986  0.13136267  0.88741292  1
  O  O400  1  0.61843666  0.64109419  0.37124959  1
  O  O401  1  0.62828083  0.63704505  0.87256627  1
