# generated using pymatgen
data_V73Zn73O256
_symmetry_space_group_name_H-M   'P 1'
_cell_length_a   16.85690947
_cell_length_b   16.88786346
_cell_length_c   16.86181830
_cell_angle_alpha   89.95810118
_cell_angle_beta   90.19654787
_cell_angle_gamma   90.05395956
_symmetry_Int_Tables_number   1
_chemical_formula_structural   V73Zn73O256
_chemical_formula_sum   'V73 Zn73 O256'
_cell_volume   4800.14333161
_cell_formula_units_Z   1
loop_
 _symmetry_equiv_pos_site_id
 _symmetry_equiv_pos_as_xyz
  1  'x, y, z'
loop_
 _atom_site_type_symbol
 _atom_site_label
 _atom_site_symmetry_multiplicity
 _atom_site_fract_x
 _atom_site_fract_y
 _atom_site_fract_z
 _atom_site_occupancy
  V  V0  1  0.86672434  0.87090628  -0.00848385  1
  V  V1  1  0.24786156  0.37191294  0.62925912  1
  V  V2  1  0.00840097  0.87302922  0.86644427  1
  V  V3  1  0.64194468  0.61154337  0.50592267  1
  V  V4  1  0.10266064  0.63506810  0.00215067  1
  V  V5  1  0.37425705  0.73503043  0.63656274  1
  V  V6  1  0.87615387  0.25023219  0.63849547  1
  V  V7  1  0.24774030  0.13460912  0.87653205  1
  V  V8  1  0.25212365  -0.00152975  0.75042499  1
  V  V9  1  0.12936360  0.13203572  -0.00767520  1
  V  V10  1  0.72350398  0.38006395  0.12850574  1
  V  V11  1  0.53649866  0.63141993  0.12330700  1
  V  V12  1  0.76194302  0.63212805  0.88628604  1
  V  V13  1  0.25187225  0.61474806  0.36828885  1
  V  V14  1  0.87305231  0.27569463  0.12595233  1
  V  V15  1  0.50275143  0.87959081  0.88416844  1
  V  V16  1  0.37944507  0.13033581  0.75888002  1
  V  V17  1  0.62630530  0.87877940  0.74020133  1
  V  V18  1  -0.00788582  0.47634457  0.00349628  1
  V  V19  1  0.63437543  0.74629753  0.88131052  1
  V  V20  1  -0.00199537  0.00421309  -0.00722266  1
  V  V21  1  0.49878511  -0.00807437  0.49779737  1
  V  V22  1  0.62063983  -0.00956413  0.12726773  1
  V  V23  1  0.91877973  -0.01749776  0.37505195  1
  V  V24  1  0.76158207  0.87195252  0.13841312  1
  V  V25  1  -0.01794361  0.12487178  0.12726994  1
  V  V26  1  0.75830081  0.25594658  0.49708488  1
  V  V27  1  0.50736678  0.25479260  0.77816702  1
  V  V28  1  0.27107025  0.75032430  -0.00315175  1
  V  V29  1  0.12327691  -0.00610514  0.12810796  1
  V  V30  1  0.13112354  0.86663030  0.75324659  1
  V  V31  1  0.00397559  0.36660657  0.39808499  1
  V  V32  1  0.62025459  0.13166715  0.49794744  1
  V  V33  1  0.12204309  0.36637350  0.77575118  1
  V  V34  1  0.10926502  0.49904321  0.62988163  1
  V  V35  1  0.37620835  0.36713912  -0.00769020  1
  V  V36  1  0.37319623  0.40704057  0.50439623  1
  V  V37  1  0.00186884  0.25337585  0.26130244  1
  V  V38  1  0.74965067  0.51054438  0.74114145  1
  V  V39  1  0.25708772  0.86505535  0.13059966  1
  V  V40  1  0.61984668  0.85880491  0.26275539  1
  V  V41  1  0.74652645  0.13151043  0.34821005  1
  V  V42  1  0.51931081  0.50096876  0.00214627  1
  V  V43  1  0.75143205  0.00856743  0.74160790  1
  V  V44  1  0.74354486  0.25232671  0.00427457  1
  V  V45  1  0.25516309  0.87399246  0.62981140  1
  V  V46  1  0.38257380  0.86137382  0.49262521  1
  V  V47  1  0.49711086  0.40338689  0.38499055  1
  V  V48  1  0.00625877  0.11681994  0.62160955  1
  V  V49  1  -0.01148356  0.75055815  0.23266730  1
  V  V50  1  0.62632480  0.37322099  0.75359117  1
  V  V51  1  0.25288421  0.50899974  0.76530341  1
  V  V52  1  0.50561379  0.73797302  0.74240516  1
  V  V53  1  0.74672660  0.13067769  0.87431494  1
  V  V54  1  0.38028336  0.24814402  0.60978341  1
  V  V55  1  0.88659465  0.74111886  0.62709957  1
  V  V56  1  0.63093801  -0.00307720  0.61823921  1
  V  V57  1  0.10366132  0.62063377  0.51046941  1
  V  V58  1  0.87329540  0.47789871  0.87627857  1
  V  V59  1  0.75140457  0.77945174  0.50588846  1
  V  V60  1  0.24971511  0.74347493  0.50416357  1
  V  V61  1  0.25410378  0.36678922  0.12659478  1
  V  V62  1  0.88218955  0.49173520  0.39198695  1
  V  V63  1  0.88374291  0.60998473  0.24693046  1
  V  V64  1  0.87454589  0.00992413  0.86426076  1
  V  V65  1  0.38044426  -0.00430833  0.88943971  1
  V  V66  1  0.73996164  0.49717048  0.25353056  1
  V  V67  1  0.00383551  0.24518055  0.76894195  1
  V  V68  1  0.36513057  0.00001373  0.36508625  1
  V  V69  1  0.61683242  0.11082189  -0.00135895  1
  V  V70  1  0.38567626  0.51319674  0.87542672  1
  V  V71  1  0.60581486  0.25813660  0.37418765  1
  V  V72  1  0.10481309  0.75318916  0.38001105  1
  Zn  Zn73  1  0.74868556  0.38480190  0.61764506  1
  Zn  Zn74  1  0.43921449  0.16812894  0.18070114  1
  Zn  Zn75  1  0.87243019  0.71927419  0.08779312  1
  Zn  Zn76  1  0.49959879  0.12677666  0.62726400  1
  Zn  Zn77  1  0.54129964  0.33151685  0.20712460  1
  Zn  Zn78  1  0.13911990  0.50219460  0.13783938  1
  Zn  Zn79  1  0.10802158  0.88384561  0.25851239  1
  Zn  Zn80  1  0.18466228  0.68620401  0.83171434  1
  Zn  Zn81  1  0.13870444  0.13743922  0.48486315  1
  Zn  Zn82  1  0.17020165  0.20649699  0.16171615  1
  Zn  Zn83  1  0.20986308  0.16580052  0.64676805  1
  Zn  Zn84  1  0.18134145  0.68599714  0.18313833  1
  Zn  Zn85  1  0.05364353  0.68352061  0.69790837  1
  Zn  Zn86  1  0.61181147  0.17413813  0.19853135  1
  Zn  Zn87  1  0.68490020  0.18901470  0.68283341  1
  Zn  Zn88  1  0.70714503  0.68935489  0.18977553  1
  Zn  Zn89  1  0.69176613  0.69204585  0.67530230  1
  Zn  Zn90  1  0.34797919  0.34833430  0.29254280  1
  Zn  Zn91  1  0.31562357  0.31980997  0.81851310  1
  Zn  Zn92  1  0.26351378  0.84887309  0.34056268  1
  Zn  Zn93  1  0.32093874  0.81011730  0.81710752  1
  Zn  Zn94  1  0.81503147  0.31051440  0.31117176  1
  Zn  Zn95  1  0.80237888  0.31070789  0.80973206  1
  Zn  Zn96  1  0.82003672  0.81903024  0.32367037  1
  Zn  Zn97  1  0.81459202  0.81869323  0.80108678  1
  Zn  Zn98  1  0.18212304  0.43335178  0.44078857  1
  Zn  Zn99  1  0.19555073  0.44505061  0.96391293  1
  Zn  Zn100  1  0.14407564  0.97973826  0.40649352  1
  Zn  Zn101  1  0.19386486  0.93637531  0.94211949  1
  Zn  Zn102  1  0.69228174  0.43967387  0.43343389  1
  Zn  Zn103  1  0.69248682  0.43486893  0.93182636  1
  Zn  Zn104  1  0.69931452  0.94639473  0.43167779  1
  Zn  Zn105  1  0.68785302  0.93795572  0.92906433  1
  Zn  Zn106  1  0.30735446  0.05107761  0.07619148  1
  Zn  Zn107  1  0.27573581  0.02742021  0.52894391  1
  Zn  Zn108  1  0.31001346  0.55956790  0.04988440  1
  Zn  Zn109  1  0.29443924  0.56560944  0.57711516  1
  Zn  Zn110  1  0.80246561  0.05453092  0.05851524  1
  Zn  Zn111  1  0.81877956  0.06907434  0.54982057  1
  Zn  Zn112  1  0.81210104  0.55083058  0.06359079  1
  Zn  Zn113  1  0.82186608  0.57682173  0.56803887  1
  Zn  Zn114  1  0.43350104  0.45588803  0.17343177  1
  Zn  Zn115  1  0.44183092  0.43912464  0.69415677  1
  Zn  Zn116  1  0.44617902  0.92446660  0.19038160  1
  Zn  Zn117  1  0.43939892  0.93622434  0.68815610  1
  Zn  Zn118  1  0.98420297  0.45584691  0.20774567  1
  Zn  Zn119  1  0.93157436  0.42686494  0.69521499  1
  Zn  Zn120  1  0.93120932  0.94288827  0.19118507  1
  Zn  Zn121  1  0.93151395  0.92331858  0.68464086  1
  Zn  Zn122  1  0.06506584  0.08500684  0.30545123  1
  Zn  Zn123  1  0.06632391  0.06253739  0.80079961  1
  Zn  Zn124  1  0.06602093  0.56210141  0.32231446  1
  Zn  Zn125  1  0.07250209  0.53981635  0.83251638  1
  Zn  Zn126  1  0.55207767  0.03844436  0.30583296  1
  Zn  Zn127  1  0.56356852  0.06324345  0.81308750  1
  Zn  Zn128  1  0.57313450  0.58698048  0.31410533  1
  Zn  Zn129  1  0.57260425  0.56075185  0.81397257  1
  Zn  Zn130  1  0.43270575  0.17829850  0.42626384  1
  Zn  Zn131  1  0.40596806  0.15662818  0.98842737  1
  Zn  Zn132  1  0.44058286  0.59075740  0.44667845  1
  Zn  Zn133  1  0.44744662  0.68708631  0.94164435  1
  Zn  Zn134  1  0.92879034  0.16118781  0.43959143  1
  Zn  Zn135  1  0.92847103  0.19235924  0.94514078  1
  Zn  Zn136  1  0.89486826  0.69713924  0.42609275  1
  Zn  Zn137  1  0.96828057  0.66363500  0.88023346  1
  Zn  Zn138  1  0.06579188  0.31339453  0.06247776  1
  Zn  Zn139  1  0.06504835  0.30037693  0.57011416  1
  Zn  Zn140  1  0.05452357  0.81184345  0.05363301  1
  Zn  Zn141  1  0.06900144  0.81660471  0.56828272  1
  Zn  Zn142  1  0.53392744  0.28700417  0.02983616  1
  Zn  Zn143  1  0.56023962  0.32630088  0.56713115  1
  Zn  Zn144  1  0.57058995  0.80854199  0.06738446  1
  Zn  Zn145  1  0.54092498  0.76183701  0.52896821  1
  O  O146  1  0.11712953  0.11349522  0.11126479  1
  O  O147  1  0.10561783  0.12348364  0.64707759  1
  O  O148  1  0.12736005  0.61753496  0.10605901  1
  O  O149  1  0.11797409  0.61192270  0.62335677  1
  O  O150  1  0.63074024  0.09897910  0.11105838  1
  O  O151  1  0.61974059  0.11812773  0.61429558  1
  O  O152  1  0.63707359  0.63297981  0.11777607  1
  O  O153  1  0.62096422  0.63903613  0.60461023  1
  O  O154  1  0.37880078  0.38752508  0.39816077  1
  O  O155  1  0.37948158  0.38870228  0.88421737  1
  O  O156  1  0.37470096  0.85992544  0.39094443  1
  O  O157  1  0.39514905  0.88163228  0.86808559  1
  O  O158  1  0.88641181  0.38220040  0.37288053  1
  O  O159  1  0.85947609  0.37991523  0.88277463  1
  O  O160  1  0.88947377  0.88697260  0.38715733  1
  O  O161  1  0.88369684  0.88900392  0.87642772  1
  O  O162  1  0.26562501  -0.03259986  0.36803906  1
  O  O163  1  0.26251647  0.00065548  0.86801638  1
  O  O164  1  0.23173117  0.51597862  0.38043212  1
  O  O165  1  0.25823306  0.49409763  0.86964556  1
  O  O166  1  0.73963477  0.03178961  0.36862475  1
  O  O167  1  0.75678535  0.00973784  0.86469854  1
  O  O168  1  0.76962779  0.48220127  0.35837438  1
  O  O169  1  0.75901518  0.51404289  0.87102570  1
  O  O170  1  0.23556128  0.47877280  0.07872077  1
  O  O171  1  0.24438130  0.48927552  0.64568341  1
  O  O172  1  0.22990731  0.98344944  0.12001818  1
  O  O173  1  0.27112010  0.98506532  0.64267378  1
  O  O174  1  0.74837854  0.48612588  0.13447920  1
  O  O175  1  0.76388050  0.50250241  0.63906527  1
  O  O176  1  0.74087552  0.97868325  0.11547560  1
  O  O177  1  0.74406047  1.01501696  0.62826209  1
  O  O178  1  0.00047588  0.35428908  0.25678407  1
  O  O179  1  0.01402644  0.36528076  0.75400894  1
  O  O180  1  -0.00628498  0.85604052  0.24433087  1
  O  O181  1  0.01803961  0.89142939  0.75975754  1
  O  O182  1  0.46731924  0.39037058  0.27205957  1
  O  O183  1  0.51091972  0.36421107  0.75441657  1
  O  O184  1  0.51926255  0.85788954  0.24885778  1
  O  O185  1  0.51255640  0.86984472  0.75486062  1
  O  O186  1  0.51806879  0.12768197  0.25145722  1
  O  O187  1  0.49688537  0.13808370  0.75409129  1
  O  O188  1  0.51464255  0.61483002  0.22408148  1
  O  O189  1  0.51199396  0.64023567  0.75277058  1
  O  O190  1  0.99064253  0.13086007  0.23132376  1
  O  O191  1  0.99817033  0.14129945  0.75075360  1
  O  O192  1  0.98898407  0.63397865  0.25212150  1
  O  O193  1  1.02001115  0.62794844  0.78567749  1
  O  O194  1  0.41265210  0.27067625  -0.00749345  1
  O  O195  1  0.37607171  0.24418677  0.51026667  1
  O  O196  1  0.37097190  0.75595838  -0.00489970  1
  O  O197  1  0.37157659  0.75279739  0.51705741  1
  O  O198  1  0.85719602  0.24456436  0.01719906  1
  O  O199  1  0.85900063  0.24643627  0.49701587  1
  O  O200  1  0.88630933  0.77186732  -0.01121058  1
  O  O201  1  0.88024398  0.75666067  0.52366172  1
  O  O202  1  0.14605706  0.24636701  0.51812632  1
  O  O203  1  0.12090177  0.23043935  1.00258400  1
  O  O204  1  0.12717545  0.74057487  0.50107416  1
  O  O205  1  0.11894304  0.73768150  0.99844174  1
  O  O206  1  0.62240819  0.24659760  0.49838401  1
  O  O207  1  0.63723324  0.22958626  1.00987359  1
  O  O208  1  0.65065750  0.76795688  0.50122530  1
  O  O209  1  0.63492328  0.75969811  0.97874558  1
  O  O210  1  0.52299790  0.24397708  0.13758191  1
  O  O211  1  0.48594546  0.25327091  0.62714032  1
  O  O212  1  0.50622343  0.72960025  0.11338035  1
  O  O213  1  0.48858304  0.75068787  0.63520797  1
  O  O214  1  0.98718776  0.23866951  0.11991873  1
  O  O215  1  0.98961602  0.24533357  0.64024487  1
  O  O216  1  0.98706528  0.74891749  0.12997737  1
  O  O217  1  0.99706943  0.75276680  0.62862773  1
  O  O218  1  -0.01121696  0.24975422  0.36708672  1
  O  O219  1  -0.01152164  0.24895196  0.86763341  1
  O  O220  1  0.00556210  0.74913787  0.39038643  1
  O  O221  1  -0.00684789  0.77642103  0.86896794  1
  O  O222  1  0.50231227  0.26142152  0.38422172  1
  O  O223  1  0.51509091  0.25062146  0.87372138  1
  O  O224  1  0.43045576  0.72474921  0.28406059  1
  O  O225  1  0.51392311  0.75708950  0.86333139  1
  O  O226  1  0.24644678  0.13500814  0.54067302  1
  O  O227  1  0.23480607  0.11424525  0.99247155  1
  O  O228  1  0.23833529  0.63295681  0.50162238  1
  O  O229  1  0.25404825  0.64875985  1.00646981  1
  O  O230  1  0.73482685  0.14024439  0.49275915  1
  O  O231  1  0.74299336  0.12859078  0.99222490  1
  O  O232  1  0.74534352  0.63485308  0.50520607  1
  O  O233  1  0.76211188  0.62809406  0.98620973  1
  O  O234  1  0.27178407  0.35636021  -0.00478189  1
  O  O235  1  0.26499157  0.38977891  0.51427267  1
  O  O236  1  0.24104321  0.86281154  0.01677643  1
  O  O237  1  0.26410818  0.86020236  0.51316596  1
  O  O238  1  0.73437860  0.36721121  0.01632779  1
  O  O239  1  0.74096358  0.35937781  0.50274016  1
  O  O240  1  0.76502233  0.87621254  -0.00999208  1
  O  O241  1  0.75981001  0.88125867  0.50379642  1
  O  O242  1  0.08888083  0.49532615  0.23715653  1
  O  O243  1  0.13327317  0.48519621  0.74761170  1
  O  O244  1  0.11253390  1.00247736  0.22999635  1
  O  O245  1  0.14568128  0.98996271  0.75646499  1
  O  O246  1  0.64218664  0.50149643  0.26574091  1
  O  O247  1  0.63995027  0.48908443  0.75474693  1
  O  O248  1  0.62588228  0.98170385  0.23381829  1
  O  O249  1  0.62903908  0.99988860  0.73770922  1
  O  O250  1  0.39190288  -0.00899604  0.26765632  1
  O  O251  1  0.37796683  0.01350320  0.76107734  1
  O  O252  1  0.36270763  0.54834831  0.20974188  1
  O  O253  1  0.36329719  0.49365584  0.76221859  1
  O  O254  1  0.89177545  0.00460053  0.27781545  1
  O  O255  1  0.86219956  -0.00642145  0.75450044  1
  O  O256  1  0.88434736  0.50495690  0.25276756  1
  O  O257  1  0.86027354  0.48991208  0.76417022  1
  O  O258  1  0.10528300  0.37119440  0.38671782  1
  O  O259  1  0.13119937  0.38075998  0.87270013  1
  O  O260  1  0.13093111  0.85761122  0.37636146  1
  O  O261  1  0.11475450  0.88252905  0.87259435  1
  O  O262  1  0.60120020  0.37514760  0.38867486  1
  O  O263  1  0.63887997  0.36889280  0.85555534  1
  O  O264  1  0.63535387  0.88479152  0.35958822  1
  O  O265  1  0.61920416  0.86876413  0.86247285  1
  O  O266  1  0.37595519  0.13274344  0.09620651  1
  O  O267  1  0.37754507  0.14270800  0.64502785  1
  O  O268  1  0.35929348  0.60176714  0.15401310  1
  O  O269  1  0.36985047  0.63626386  0.63006195  1
  O  O270  1  0.88276188  0.11730991  0.11599729  1
  O  O271  1  0.88487049  0.14282138  0.61596731  1
  O  O272  1  0.86940160  0.61972756  0.13978075  1
  O  O273  1  0.88012826  0.64213536  0.64522997  1
  O  O274  1  0.25947792  0.26300886  0.12934117  1
  O  O275  1  0.27200522  0.26547728  0.64380274  1
  O  O276  1  0.24607101  0.75855315  0.11649091  1
  O  O277  1  0.26454272  0.75505903  0.62445504  1
  O  O278  1  0.75951099  0.27081191  0.12413372  1
  O  O279  1  0.76145317  0.24461416  0.61518889  1
  O  O280  1  0.76905632  0.76646861  0.12346631  1
  O  O281  1  0.76788880  0.75525716  0.61573953  1
  O  O282  1  0.25211217  0.24659349  0.32900351  1
  O  O283  1  0.25611630  0.23304803  0.87072695  1
  O  O284  1  0.23551838  0.74253844  0.39149115  1
  O  O285  1  0.24991747  0.76085156  0.89001805  1
  O  O286  1  0.73215071  0.25657114  0.38574279  1
  O  O287  1  0.75595861  0.23861270  0.88695672  1
  O  O288  1  0.78637179  0.74996521  0.40654888  1
  O  O289  1  0.74415680  0.74454939  0.85823802  1
  O  O290  1  0.00490876  0.11962573  0.00388629  1
  O  O291  1  0.01475432  0.13485676  0.51673668  1
  O  O292  1  0.00020650  0.62891417  -0.01082453  1
  O  O293  1  0.00758026  0.62384099  0.50252923  1
  O  O294  1  0.51913742  0.12364768  -0.01035482  1
  O  O295  1  0.50558926  0.11375484  0.49886330  1
  O  O296  1  0.50004896  0.61252214  0.01004002  1
  O  O297  1  0.52559255  0.65282672  0.48471090  1
  O  O298  1  0.48406115  0.38401844  0.49570088  1
  O  O299  1  0.49723188  0.39538007  1.00318554  1
  O  O300  1  0.48809952  0.87091455  0.50757668  1
  O  O301  1  0.51163172  0.86697326  0.98185734  1
  O  O302  1  0.99366397  0.35672708  0.49682252  1
  O  O303  1  0.99651216  0.37619136  0.99835964  1
  O  O304  1  0.99748501  0.90268816  0.52332775  1
  O  O305  1  0.99430820  0.88902169  0.98525681  1
  O  O306  1  0.50058164  0.50417340  0.38185775  1
  O  O307  1  0.49324911  0.50779821  0.87998850  1
  O  O308  1  0.48956428  0.99309838  0.39167585  1
  O  O309  1  0.49896977  0.98709394  0.87297957  1
  O  O310  1  0.99235459  0.48175218  0.38329944  1
  O  O311  1  0.97879838  0.49052487  0.88032287  1
  O  O312  1  1.02341290  0.99028398  0.37134096  1
  O  O313  1  0.99294063  1.00138536  0.87572913  1
  O  O314  1  0.00063580  0.01064457  0.11407630  1
  O  O315  1  -0.01696364  0.02049580  0.64059184  1
  O  O316  1  -0.01857672  0.49750485  0.10156185  1
  O  O317  1  0.01131737  0.49092368  0.63802715  1
  O  O318  1  0.52161858  -0.02785723  0.11497745  1
  O  O319  1  0.50629026  0.00241210  0.61358432  1
  O  O320  1  0.51183201  0.51101197  0.11026157  1
  O  O321  1  0.50398348  0.49848557  0.62521877  1
  O  O322  1  0.27177910  0.39519450  0.22387467  1
  O  O323  1  0.23744212  0.37715159  0.74964226  1
  O  O324  1  0.22317930  0.86114816  0.23231408  1
  O  O325  1  0.25124229  0.87852489  0.75002375  1
  O  O326  1  0.75415771  0.38318118  0.23657632  1
  O  O327  1  0.74177341  0.38089047  0.74216650  1
  O  O328  1  0.76550310  0.87767511  0.23956108  1
  O  O329  1  0.73403096  0.89506314  0.75633666  1
  O  O330  1  0.29208636  0.19888560  0.28556233  1
  O  O331  1  0.26121452  0.11702474  0.75642617  1
  O  O332  1  0.23342200  0.63506737  0.27038910  1
  O  O333  1  0.23865457  0.60727495  0.75846082  1
  O  O334  1  0.71747195  0.14534126  0.25282024  1
  O  O335  1  0.74067937  0.11815578  0.75926149  1
  O  O336  1  0.76513261  0.60453111  0.24969324  1
  O  O337  1  0.74053133  0.61253183  0.75241300  1
  O  O338  1  0.36208850  0.09906712  0.38530231  1
  O  O339  1  0.36848405  0.11660858  0.87786172  1
  O  O340  1  0.35302476  0.62191735  0.38200674  1
  O  O341  1  0.37753281  0.61334685  0.87740284  1
  O  O342  1  0.84526329  0.15744327  0.35394902  1
  O  O343  1  0.86424945  0.11609582  0.88001923  1
  O  O344  1  0.88288489  0.60142220  0.36395365  1
  O  O345  1  0.85989530  0.63121205  0.86207223  1
  O  O346  1  0.14445637  0.36982170  0.12074218  1
  O  O347  1  0.13317040  0.38520656  0.62735246  1
  O  O348  1  0.10843640  0.89014245  0.12053519  1
  O  O349  1  0.14501592  0.87060852  0.63720977  1
  O  O350  1  0.62511810  0.37731901  0.13622958  1
  O  O351  1  0.63043732  0.37391732  0.64108695  1
  O  O352  1  0.64493080  0.87082053  0.13235043  1
  O  O353  1  0.62313242  0.89221932  0.62945305  1
  O  O354  1  0.10124515  0.23199413  0.24681933  1
  O  O355  1  0.11432146  0.26012753  0.76121057  1
  O  O356  1  0.09977630  0.74076778  0.26666993  1
  O  O357  1  0.13217904  0.76299401  0.75680856  1
  O  O358  1  0.62002617  0.27094534  0.27426309  1
  O  O359  1  0.61412261  0.25559478  0.74617319  1
  O  O360  1  0.64929566  0.76167959  0.25604168  1
  O  O361  1  0.61879079  0.76012339  0.74644313  1
  O  O362  1  0.37166362  0.23339963  0.26656544  1
  O  O363  1  0.39197293  0.24540292  0.76333565  1
  O  O364  1  0.37732906  0.73495040  0.23583545  1
  O  O365  1  0.39073417  0.75066087  0.74516224  1
  O  O366  1  0.88408158  0.25339393  0.23083390  1
  O  O367  1  0.88119955  0.25264691  0.74456437  1
  O  O368  1  0.88570220  0.73620619  0.26120820  1
  O  O369  1  0.87890065  0.81608598  0.70739640  1
  O  O370  1  0.37786283  0.50840706  0.51234693  1
  O  O371  1  0.38297657  0.49478751  0.98533464  1
  O  O372  1  0.37757881  0.97769885  0.49464249  1
  O  O373  1  0.37049591  0.99784538  0.98841476  1
  O  O374  1  0.86734448  0.50257410  0.48991237  1
  O  O375  1  0.87788231  0.50192029  0.98368078  1
  O  O376  1  0.88568881  1.04366459  0.45749610  1
  O  O377  1  0.88219254  0.99592297  0.98543466  1
  O  O378  1  0.11230790  0.00598507  0.00433006  1
  O  O379  1  0.16090662  0.01512233  0.51292954  1
  O  O380  1  0.09666689  0.50240373  -0.00476121  1
  O  O381  1  0.12591998  0.51018016  0.51970319  1
  O  O382  1  0.63013028  0.00361552  0.00282442  1
  O  O383  1  0.61882968  0.00798438  0.50199511  1
  O  O384  1  0.61763491  0.50297617  -0.01476761  1
  O  O385  1  0.63917988  0.51069008  0.50286374  1
  O  O386  1  0.37000343  0.38724003  0.10414128  1
  O  O387  1  0.37261781  0.36955822  0.61541847  1
  O  O388  1  0.35519702  0.87857053  0.13772317  1
  O  O389  1  0.37069392  0.86427073  0.62540244  1
  O  O390  1  0.88136111  0.37188253  0.12201271  1
  O  O391  1  0.87163942  0.35590331  0.62441744  1
  O  O392  1  0.86986129  0.88789581  0.10543483  1
  O  O393  1  0.92882039  0.90389266  0.55703125  1
  O  O394  1  0.14744884  0.09695343  0.37778682  1
  O  O395  1  0.13118413  0.11716288  0.88458433  1
  O  O396  1  0.12399676  0.63433317  0.39443391  1
  O  O397  1  0.13801966  0.61058212  0.90260752  1
  O  O398  1  0.62306781  0.14631447  0.38324919  1
  O  O399  1  0.63733617  0.11423906  0.88652476  1
  O  O400  1  0.62223831  0.63970289  0.39794742  1
  O  O401  1  0.63777130  0.64085970  0.87177541  1
