# generated using pymatgen
data_V73Zn73O256
_symmetry_space_group_name_H-M   'P 1'
_cell_length_a   16.94179467
_cell_length_b   16.95067273
_cell_length_c   16.91264016
_cell_angle_alpha   90.26226563
_cell_angle_beta   89.78177297
_cell_angle_gamma   90.27066650
_symmetry_Int_Tables_number   1
_chemical_formula_structural   V73Zn73O256
_chemical_formula_sum   'V73 Zn73 O256'
_cell_volume   4856.74443486
_cell_formula_units_Z   1
loop_
 _symmetry_equiv_pos_site_id
 _symmetry_equiv_pos_as_xyz
  1  'x, y, z'
loop_
 _atom_site_type_symbol
 _atom_site_label
 _atom_site_symmetry_multiplicity
 _atom_site_fract_x
 _atom_site_fract_y
 _atom_site_fract_z
 _atom_site_occupancy
  V  V0  1  0.00127186  0.50689488  -0.00335391  1
  V  V1  1  0.88134014  -0.02306273  0.87230387  1
  V  V2  1  -0.00620347  -0.01313016  -0.00473753  1
  V  V3  1  0.63093154  0.49860971  0.64261036  1
  V  V4  1  0.49704930  0.61359990  0.63643828  1
  V  V5  1  0.74766705  0.86924992  0.61857830  1
  V  V6  1  -0.00966553  0.87101578  0.35880466  1
  V  V7  1  0.50302320  0.49997327  0.01408409  1
  V  V8  1  0.23415716  0.73187538  0.50693451  1
  V  V9  1  0.11660731  0.74582183  0.35283851  1
  V  V10  1  0.37579564  0.23678404  0.11961848  1
  V  V11  1  0.48407350  0.12575560  0.65202634  1
  V  V12  1  0.60542690  0.74523283  0.36409946  1
  V  V13  1  0.01047382  0.37661928  0.37868030  1
  V  V14  1  0.38538047  -0.00208087  0.35076147  1
  V  V15  1  0.24464290  0.74157582  -0.00389812  1
  V  V16  1  0.25225573  0.88034511  0.61943990  1
  V  V17  1  0.79490504  0.16977505  0.82741625  1
  V  V18  1  0.24053759  0.25172296  -0.00820693  1
  V  V19  1  0.26044241  0.13089654  0.86641713  1
  V  V20  1  0.86654284  0.51115470  0.37467288  1
  V  V21  1  0.61910007  0.61863005  0.49975814  1
  V  V22  1  0.23330941  0.51190173  0.74843340  1
  V  V23  1  0.51524144  0.37446368  0.87300377  1
  V  V24  1  0.86626739  0.50012204  0.87428926  1
  V  V25  1  0.75691253  0.26063657  0.47598760  1
  V  V26  1  0.24484444  0.37487403  0.12116642  1
  V  V27  1  0.75396272  -0.01262498  0.75503150  1
  V  V28  1  0.37906702  0.75097287  0.62577923  1
  V  V29  1  0.25945309  0.00484052  0.75212436  1
  V  V30  1  0.87846747  0.61972557  0.74545794  1
  V  V31  1  0.11969103  0.00518939  0.62359211  1
  V  V32  1  0.36289858  0.88254513  0.00585322  1
  V  V33  1  0.73779645  0.10147639  0.37112614  1
  V  V34  1  0.63288096  0.12576151  0.00360044  1
  V  V35  1  0.76537430  0.76471400  -0.00021382  1
  V  V36  1  -0.01462321  0.14302678  0.62376132  1
  V  V37  1  -0.01041910  0.13544587  0.12176418  1
  V  V38  1  -0.01475088  0.25839534  0.25077683  1
  V  V39  1  0.49161260  0.87489793  0.87862081  1
  V  V40  1  0.90068179  0.75575801  0.12562905  1
  V  V41  1  0.58938076  0.66277925  0.02442456  1
  V  V42  1  0.24962942  0.51944018  0.25129355  1
  V  V43  1  0.75352706  0.87657629  0.13856261  1
  V  V44  1  0.87662245  0.10650821  0.25909153  1
  V  V45  1  0.38862002  0.49573245  0.39879075  1
  V  V46  1  0.10876686  0.87709349  0.75473030  1
  V  V47  1  0.88154394  0.74980138  0.62910809  1
  V  V48  1  0.87523288  0.37475538  0.01826863  1
  V  V49  1  0.63287456  -0.00162169  0.12812722  1
  V  V50  1  0.13609054  0.13364629  0.49144298  1
  V  V51  1  0.88049044  0.37803407  0.50592353  1
  V  V52  1  0.62642210  0.75152256  0.87228282  1
  V  V53  1  0.74786000  0.62464598  0.87763028  1
  V  V54  1  0.01402674  0.51373254  0.50621722  1
  V  V55  1  0.49807058  0.00995072  -0.00308255  1
  V  V56  1  0.37154259  0.37674608  -0.00392163  1
  V  V57  1  0.00343464  0.36588931  0.86196544  1
  V  V58  1  0.25951049  0.37034432  0.63082790  1
  V  V59  1  0.74160020  0.37550443  0.63078568  1
  V  V60  1  -0.01922796  -0.00567170  0.49650088  1
  V  V61  1  0.12858897  -0.00301465  0.13004375  1
  V  V62  1  0.49542672  0.25559070  0.25959885  1
  V  V63  1  0.11457362  0.13069340  -0.01493962  1
  V  V64  1  0.62392845  0.24731122  0.86912288  1
  V  V65  1  0.12484816  0.51466279  0.11836869  1
  V  V66  1  0.75774630  0.24598251  0.01951558  1
  V  V67  1  0.11204892  0.74996062  0.87429134  1
  V  V68  1  0.75500237  0.73988558  0.49121610  1
  V  V69  1  0.60665220  0.28433121  0.38253887  1
  V  V70  1  0.12581095  0.36800926  0.25129080  1
  V  V71  1  0.25258673  0.13917219  0.34590230  1
  V  V72  1  0.37357096  0.51020641  0.86587052  1
  Zn  Zn73  1  0.61795701  0.87406518  0.74926490  1
  Zn  Zn74  1  0.02599962  0.62904196  0.62660398  1
  Zn  Zn75  1  0.64046135  0.41141479  0.21134024  1
  Zn  Zn76  1  0.61908037  0.02398826  0.60825460  1
  Zn  Zn77  1  0.90647878  0.64359652  0.24874080  1
  Zn  Zn78  1  0.48333830  0.74298990  0.76113538  1
  Zn  Zn79  1  0.12717449  0.62632153  -0.01241798  1
  Zn  Zn80  1  0.46134165  0.69410541  0.18964190  1
  Zn  Zn81  1  0.40013083  0.89246588  0.50198380  1
  Zn  Zn82  1  0.17459728  0.18885299  0.17448261  1
  Zn  Zn83  1  0.19313691  0.18266103  0.67420904  1
  Zn  Zn84  1  0.28531834  0.70931308  0.18304598  1
  Zn  Zn85  1  0.19601635  0.69202172  0.69989789  1
  Zn  Zn86  1  0.72358585  0.23873220  0.22978570  1
  Zn  Zn87  1  0.78398885  0.18041266  0.66154552  1
  Zn  Zn88  1  0.62608885  0.61137062  0.21814375  1
  Zn  Zn89  1  0.69093779  0.68354495  0.69148335  1
  Zn  Zn90  1  0.31726738  0.32236523  0.30927484  1
  Zn  Zn91  1  0.29599543  0.32086802  0.81221511  1
  Zn  Zn92  1  0.29100653  0.83371429  0.34522359  1
  Zn  Zn93  1  0.30341387  0.81457268  0.81254270  1
  Zn  Zn94  1  0.82413347  0.36300133  0.29443355  1
  Zn  Zn95  1  0.80575652  0.33333458  0.82024133  1
  Zn  Zn96  1  0.81434280  0.81187660  0.30940037  1
  Zn  Zn97  1  0.81791577  0.80615119  0.80911100  1
  Zn  Zn98  1  0.21051556  0.45834621  0.45826021  1
  Zn  Zn99  1  0.18508706  0.43956381  0.92708067  1
  Zn  Zn100  1  0.16454857  0.92844839  0.44176959  1
  Zn  Zn101  1  0.17730931  0.94578703  0.93355866  1
  Zn  Zn102  1  0.68649205  0.44680702  0.44533780  1
  Zn  Zn103  1  0.67126365  0.41767316  0.99861356  1
  Zn  Zn104  1  0.67600251  0.91968435  0.43144903  1
  Zn  Zn105  1  0.68712425  0.93506380  0.93417895  1
  Zn  Zn106  1  0.30796355  0.06000337  0.05365141  1
  Zn  Zn107  1  0.32080108  0.06916729  0.55738706  1
  Zn  Zn108  1  0.34871571  0.55437356  0.09667742  1
  Zn  Zn109  1  0.31351684  0.55711216  0.57301124  1
  Zn  Zn110  1  0.81555723  0.06095001  0.06000556  1
  Zn  Zn111  1  0.79764918  0.06540470  0.55323600  1
  Zn  Zn112  1  0.82875604  0.58035550  0.05471651  1
  Zn  Zn113  1  0.81169724  0.55949151  0.55902026  1
  Zn  Zn114  1  0.43319895  0.43099222  0.21104775  1
  Zn  Zn115  1  0.42127529  0.37861110  0.70778606  1
  Zn  Zn116  1  0.40151207  0.86616663  0.21574606  1
  Zn  Zn117  1  0.44111411  0.93652075  0.68927764  1
  Zn  Zn118  1  0.95117302  0.46763213  0.19860566  1
  Zn  Zn119  1  0.93554833  0.44197552  0.68354276  1
  Zn  Zn120  1  0.94152479  0.93716643  0.17797713  1
  Zn  Zn121  1  0.93255443  0.94259950  0.67883540  1
  Zn  Zn122  1  0.06100800  0.06199481  0.31701318  1
  Zn  Zn123  1  0.05098968  0.06872697  0.80353111  1
  Zn  Zn124  1  0.06296727  0.56139120  0.31396857  1
  Zn  Zn125  1  0.05422660  0.56393893  0.81381974  1
  Zn  Zn126  1  0.55775930  0.07697136  0.29212366  1
  Zn  Zn127  1  0.57099750  0.05989388  0.81470362  1
  Zn  Zn128  1  0.54004196  0.54295623  0.33275256  1
  Zn  Zn129  1  0.56082898  0.56308113  0.82326743  1
  Zn  Zn130  1  0.49986972  0.04561772  0.47770795  1
  Zn  Zn131  1  0.43768900  0.20362423  0.81104378  1
  Zn  Zn132  1  0.42875955  0.68137772  0.44089848  1
  Zn  Zn133  1  0.42647292  0.69101701  0.95345921  1
  Zn  Zn134  1  0.94359165  0.18857725  0.43900470  1
  Zn  Zn135  1  0.93731654  0.19357402  0.93727007  1
  Zn  Zn136  1  0.94144397  0.69049502  0.43710213  1
  Zn  Zn137  1  0.93853989  0.69384516  0.93460507  1
  Zn  Zn138  1  0.05610834  0.31689919  0.06006411  1
  Zn  Zn139  1  0.08740905  0.32390524  0.55254095  1
  Zn  Zn140  1  0.11398139  0.78722350  0.14046652  1
  Zn  Zn141  1  0.06040550  0.81761988  0.56498052  1
  Zn  Zn142  1  0.54993849  0.32056013  0.08333740  1
  Zn  Zn143  1  0.62196771  0.20121991  0.58470898  1
  Zn  Zn144  1  0.53975451  0.83823887  0.09945539  1
  Zn  Zn145  1  0.57028005  0.79968229  0.56647367  1
  O  O146  1  0.10696449  0.12121046  0.10812823  1
  O  O147  1  0.11726294  0.12020328  0.61222315  1
  O  O148  1  0.12309585  0.61212281  0.11618930  1
  O  O149  1  0.13467855  0.62747727  0.63488865  1
  O  O150  1  0.63515053  0.10967706  0.10655439  1
  O  O151  1  0.69797489  0.10858716  0.60352690  1
  O  O152  1  0.63705143  0.62771002  0.10264914  1
  O  O153  1  0.62013997  0.61944479  0.62541401  1
  O  O154  1  0.38595101  0.41263186  0.32811852  1
  O  O155  1  0.38411286  0.37824399  0.88759035  1
  O  O156  1  0.37926391  0.89609844  0.38805468  1
  O  O157  1  0.38817363  0.87268093  0.87782203  1
  O  O158  1  0.88842800  0.38668485  0.39115911  1
  O  O159  1  0.87853554  0.38743133  0.88543403  1
  O  O160  1  0.89084820  0.86493736  0.37723348  1
  O  O161  1  0.88575641  0.87860586  0.86987165  1
  O  O162  1  0.26878652  0.00438679  0.36500000  1
  O  O163  1  0.24093790  0.01732907  0.86034541  1
  O  O164  1  0.24614522  0.49698046  0.35022038  1
  O  O165  1  0.26485889  0.49158030  0.86236763  1
  O  O166  1  0.74258558  0.00343706  0.39123206  1
  O  O167  1  0.76705131  -0.01337988  0.86442663  1
  O  O168  1  0.76818622  0.50659005  0.39337378  1
  O  O169  1  0.76363900  0.51073178  0.88953217  1
  O  O170  1  0.23386630  0.49141775  0.11575759  1
  O  O171  1  0.25110846  0.49442818  0.64366572  1
  O  O172  1  0.22728839  1.01255659  0.11477754  1
  O  O173  1  0.24113383  1.00156768  0.63550135  1
  O  O174  1  0.77134461  0.53451415  0.15378754  1
  O  O175  1  0.74022574  0.49149846  0.62211908  1
  O  O176  1  0.74710702  0.98696165  0.11724894  1
  O  O177  1  0.76697384  0.97485582  0.63652440  1
  O  O178  1  0.00738116  0.37556156  0.25716929  1
  O  O179  1  -0.01754080  0.38109430  0.76373776  1
  O  O180  1  0.00014617  0.88423224  0.26054416  1
  O  O181  1  0.01127821  0.87848391  0.73652781  1
  O  O182  1  0.51874698  0.35146128  0.21338849  1
  O  O183  1  0.51629511  0.38339889  0.77421270  1
  O  O184  1  0.49261519  0.80394683  0.19647572  1
  O  O185  1  0.50001428  0.87029805  0.76736250  1
  O  O186  1  0.51143639  0.16088541  0.23139820  1
  O  O187  1  0.49189324  0.11818946  0.76200277  1
  O  O188  1  0.50886721  0.60560851  0.24031806  1
  O  O189  1  0.50551845  0.62887066  0.74132193  1
  O  O190  1  0.98855977  0.13665876  0.24580627  1
  O  O191  1  1.00192102  0.13189359  0.72377018  1
  O  O192  1  0.98889216  0.57317929  0.23173548  1
  O  O193  1  0.98222888  0.61976021  0.74220018  1
  O  O194  1  0.35153342  0.25898035  0.00582382  1
  O  O195  1  0.37404321  0.24825910  0.49410685  1
  O  O196  1  0.35370606  0.77058751  -0.00703605  1
  O  O197  1  0.36413872  0.75360063  0.51157601  1
  O  O198  1  0.86811873  0.26149977  0.00482800  1
  O  O199  1  0.86491524  0.26434844  0.48888429  1
  O  O200  1  0.87237394  0.75658614  0.00644478  1
  O  O201  1  0.86123011  0.73337954  0.51580416  1
  O  O202  1  0.12051304  0.23099233  0.49103786  1
  O  O203  1  0.13242939  0.24419571  1.00545512  1
  O  O204  1  0.13411892  0.74149602  0.52362146  1
  O  O205  1  0.12826262  0.74959661  0.98349810  1
  O  O206  1  0.63889751  0.25156157  0.47949016  1
  O  O207  1  0.64204507  0.23757714  0.99925506  1
  O  O208  1  0.63734431  0.73952087  0.49158768  1
  O  O209  1  0.64770334  0.74804979  0.98680751  1
  O  O210  1  0.47397128  0.24126973  0.09793560  1
  O  O211  1  0.52903156  0.21979259  0.65201944  1
  O  O212  1  0.52179530  0.72713045  0.06391114  1
  O  O213  1  0.49277475  0.74671895  0.63319570  1
  O  O214  1  1.00016047  0.24362544  0.13334175  1
  O  O215  1  1.00398907  0.23873660  0.60209966  1
  O  O216  1  0.99873733  0.76905556  0.12410097  1
  O  O217  1  0.98311502  0.74401983  0.61604927  1
  O  O218  1  -0.00263449  0.26772441  0.36760467  1
  O  O219  1  -0.00945000  0.26599040  0.87196049  1
  O  O220  1  0.00120648  0.75491039  0.36347394  1
  O  O221  1  0.01172113  0.75870923  0.87621907  1
  O  O222  1  0.49947692  0.26532818  0.36615990  1
  O  O223  1  0.51357367  0.26248235  0.88114229  1
  O  O224  1  0.50502183  0.73986652  0.37639501  1
  O  O225  1  0.50620609  0.75779853  0.88146025  1
  O  O226  1  0.23674665  0.12499213  0.50465963  1
  O  O227  1  0.23758093  0.13040253  0.98091537  1
  O  O228  1  0.25186521  0.63506017  0.50876372  1
  O  O229  1  0.25032247  0.64262323  0.99368112  1
  O  O230  1  0.76600082  0.14847158  0.46465427  1
  O  O231  1  0.74948182  0.13525737  0.99734448  1
  O  O232  1  0.73618181  0.63516350  0.51088011  1
  O  O233  1  0.76301959  0.64256356  0.98568148  1
  O  O234  1  0.24956292  0.36984199  -0.00040705  1
  O  O235  1  0.19122670  0.38238577  0.54635314  1
  O  O236  1  0.26470767  0.89905114  -0.01250368  1
  O  O237  1  0.24349812  0.87816294  0.51710543  1
  O  O238  1  0.76772999  0.36126491  0.00161566  1
  O  O239  1  0.75942990  0.37311030  0.50251645  1
  O  O240  1  0.75769776  0.86536945  -0.00987946  1
  O  O241  1  0.74603409  0.85816174  0.51251556  1
  O  O242  1  0.13397780  0.49177568  0.23178398  1
  O  O243  1  0.13379067  0.50633659  0.75871722  1
  O  O244  1  0.10925156  1.01404153  0.22790236  1
  O  O245  1  0.12260526  0.99581814  0.73924362  1
  O  O246  1  0.62802740  0.50722087  0.26740270  1
  O  O247  1  0.62839163  0.50857874  0.74172545  1
  O  O248  1  0.61983041  1.00595877  0.22591464  1
  O  O249  1  0.64797871  0.99283757  0.75697530  1
  O  O250  1  0.38737013  -0.02432449  0.25351602  1
  O  O251  1  0.35691092  -0.00035370  0.74763909  1
  O  O252  1  0.34624693  0.50796785  0.21135531  1
  O  O253  1  0.38602411  0.48905775  0.76784416  1
  O  O254  1  0.87780116  0.00856306  0.25076936  1
  O  O255  1  0.86980586  -0.00514724  0.76193771  1
  O  O256  1  0.86495601  0.47509522  0.27541417  1
  O  O257  1  0.87038372  0.51154671  0.75896438  1
  O  O258  1  0.11732257  0.38785686  0.36152054  1
  O  O259  1  0.10313296  0.38055324  0.87502324  1
  O  O260  1  0.09703678  0.85043025  0.39589681  1
  O  O261  1  0.11760235  0.88147980  0.85904517  1
  O  O262  1  0.61211949  0.38317438  0.38663588  1
  O  O263  1  0.61886956  0.36480272  0.89745411  1
  O  O264  1  0.62921437  0.84399671  0.36478023  1
  O  O265  1  0.61529078  0.86453839  0.87650094  1
  O  O266  1  0.35727338  0.13970580  0.11929855  1
  O  O267  1  0.38565629  0.13077207  0.63068747  1
  O  O268  1  0.37218360  0.65972014  0.12488445  1
  O  O269  1  0.39211564  0.63038617  0.61967438  1
  O  O270  1  0.88250236  0.12034961  0.13799788  1
  O  O271  1  0.88023182  0.13207297  0.61449721  1
  O  O272  1  0.88943729  0.65194603  0.11877266  1
  O  O273  1  0.86299593  0.62863037  0.63916912  1
  O  O274  1  0.24988797  0.25860339  0.11480043  1
  O  O275  1  0.24923119  0.26882687  0.63521210  1
  O  O276  1  0.22133167  0.76201457  0.09892295  1
  O  O277  1  0.25757849  0.76165447  0.62022287  1
  O  O278  1  0.75237165  0.23802538  0.11638623  1
  O  O279  1  0.73580004  0.26685379  0.60076714  1
  O  O280  1  0.75277652  0.76771952  0.10580002  1
  O  O281  1  0.75697518  0.75549464  0.62321465  1
  O  O282  1  0.26234460  0.23889981  0.36283516  1
  O  O283  1  0.24321057  0.24066381  0.87742434  1
  O  O284  1  0.22426112  0.75769683  0.40040774  1
  O  O285  1  0.23252427  0.76911768  0.88793334  1
  O  O286  1  0.74144527  0.27620262  0.37760436  1
  O  O287  1  0.74532657  0.24913361  0.88658095  1
  O  O288  1  0.75998016  0.74691194  0.39133327  1
  O  O289  1  0.74791442  0.74704256  0.88013955  1
  O  O290  1  -0.00056124  0.13003694  0.00608118  1
  O  O291  1  0.00905115  0.11262470  0.49988275  1
  O  O292  1  -0.00056612  0.61009196  -0.00974722  1
  O  O293  1  -0.00673855  0.61581226  0.50702061  1
  O  O294  1  0.51865503  0.11057380  -0.00494543  1
  O  O295  1  0.54201706  0.11484674  0.55255142  1
  O  O296  1  0.49779095  0.60696845  -0.00889811  1
  O  O297  1  0.51520012  0.63692354  0.52208332  1
  O  O298  1  0.43098672  0.28375694  0.52077579  1
  O  O299  1  0.48890812  0.38415580  0.99747278  1
  O  O300  1  0.52852828  0.89138506  0.51141086  1
  O  O301  1  0.48753690  0.88062325  0.99084387  1
  O  O302  1  1.00036816  0.38375991  0.49696858  1
  O  O303  1  0.98635270  0.37964871  0.98960931  1
  O  O304  1  0.99360732  0.89313760  0.51206856  1
  O  O305  1  0.99950448  0.89255818  0.99731755  1
  O  O306  1  0.48706077  0.49111291  0.42109648  1
  O  O307  1  0.49297244  0.48763619  0.88748198  1
  O  O308  1  0.48876354  1.02525967  0.36553433  1
  O  O309  1  0.51364097  0.98361325  0.88693581  1
  O  O310  1  0.99392176  0.49305835  0.38789506  1
  O  O311  1  0.98677831  0.49390955  0.88160633  1
  O  O312  1  1.00759475  0.98511044  0.38916393  1
  O  O313  1  0.98728959  1.00659733  0.88030374  1
  O  O314  1  -0.00335609  0.01201736  0.10675878  1
  O  O315  1  0.00126462  0.01238332  0.61412316  1
  O  O316  1  0.01999609  0.48415714  0.10528064  1
  O  O317  1  0.00093951  0.50068690  0.61022170  1
  O  O318  1  0.52654834  -0.01396851  0.09735435  1
  O  O319  1  0.51444105  0.01471247  0.65586815  1
  O  O320  1  0.48211053  0.49453199  0.11239817  1
  O  O321  1  0.51339242  0.51323246  0.63050402  1
  O  O322  1  0.24057215  0.37654741  0.23506715  1
  O  O323  1  0.24388817  0.38916618  0.73881995  1
  O  O324  1  0.22327496  0.93756304  0.34198642  1
  O  O325  1  0.24106678  0.89306394  0.74272185  1
  O  O326  1  0.73412865  0.35176566  0.23526536  1
  O  O327  1  0.75209914  0.37032064  0.72903442  1
  O  O328  1  0.74752798  0.87140471  0.23695307  1
  O  O329  1  0.75202455  0.87737228  0.74471823  1
  O  O330  1  0.23790839  0.13112605  0.24807391  1
  O  O331  1  0.23887614  0.11885472  0.75736872  1
  O  O332  1  0.23617036  0.61692390  0.24142326  1
  O  O333  1  0.25845834  0.61031938  0.75157286  1
  O  O334  1  0.76668404  0.13378161  0.26689764  1
  O  O335  1  0.75248382  0.10439114  0.75853863  1
  O  O336  1  0.76197556  0.58789999  0.20725120  1
  O  O337  1  0.75849029  0.62927988  0.76864747  1
  O  O338  1  0.35208005  0.10711608  0.36039651  1
  O  O339  1  0.35766622  0.13244786  0.87028287  1
  O  O340  1  0.38204975  0.59600665  0.37771456  1
  O  O341  1  0.38471996  0.60899418  0.87793964  1
  O  O342  1  0.88312828  0.12244479  0.36065403  1
  O  O343  1  0.86723619  0.12192400  0.87729419  1
  O  O344  1  0.88511751  0.61387089  0.36493406  1
  O  O345  1  0.87193878  0.62181850  0.86522036  1
  O  O346  1  0.13222614  0.37613627  0.12757587  1
  O  O347  1  0.10221611  0.33055821  0.68721884  1
  O  O348  1  0.11467950  0.89862254  0.11752652  1
  O  O349  1  0.13205375  0.88568428  0.63415630  1
  O  O350  1  0.63849042  0.38003075  0.10177636  1
  O  O351  1  0.63428884  0.39273205  0.62323266  1
  O  O352  1  0.64377622  0.88777317  0.11196165  1
  O  O353  1  0.64298780  0.86781721  0.63347519  1
  O  O354  1  0.11163848  0.26384060  0.24295932  1
  O  O355  1  0.10795707  0.26883272  0.72794121  1
  O  O356  1  0.13033007  0.76092041  0.25546024  1
  O  O357  1  0.13357370  0.77087457  0.76005490  1
  O  O358  1  0.61772106  0.25523795  0.28143169  1
  O  O359  1  0.63838219  0.25029903  0.77423360  1
  O  O360  1  0.63653074  0.71351662  0.27277713  1
  O  O361  1  0.62675903  0.74920152  0.76541715  1
  O  O362  1  0.38791631  0.26059792  0.23107683  1
  O  O363  1  0.38283846  0.28005277  0.75423444  1
  O  O364  1  0.32751496  0.78786830  0.25163355  1
  O  O365  1  0.36669496  0.75780008  0.73281209  1
  O  O366  1  0.88458050  0.26275484  0.25217023  1
  O  O367  1  0.83983884  0.23277398  0.76064552  1
  O  O368  1  0.87375215  0.75060633  0.23120042  1
  O  O369  1  0.87434251  0.73535066  0.73868313  1
  O  O370  1  0.32971780  0.48047548  0.48482614  1
  O  O371  1  0.37667787  0.49177330  0.99478814  1
  O  O372  1  0.39080160  1.00917230  0.49382262  1
  O  O373  1  0.39183479  1.00154486  0.99780709  1
  O  O374  1  0.88572658  0.49674084  0.49356384  1
  O  O375  1  0.88133014  0.49265339  0.99708843  1
  O  O376  1  0.88231912  1.00652052  0.50021725  1
  O  O377  1  0.88250016  1.00156045  0.98375721  1
  O  O378  1  0.10659104  0.01265727  -0.00170064  1
  O  O379  1  0.11858815  0.00599480  0.51263414  1
  O  O380  1  0.12064888  0.50498458  0.00030797  1
  O  O381  1  0.11162419  0.51094514  0.48814189  1
  O  O382  1  0.63156009  0.01427205  -0.00735038  1
  O  O383  1  0.58588495  -0.04314719  0.50281844  1
  O  O384  1  0.60415636  0.50650025  0.00104603  1
  O  O385  1  0.62791389  0.51619168  0.51633490  1
  O  O386  1  0.35877266  0.36862684  0.11270038  1
  O  O387  1  0.35900633  0.38451577  0.61363560  1
  O  O388  1  0.37097884  0.88724098  0.10329127  1
  O  O389  1  0.37108544  0.87251596  0.61886623  1
  O  O390  1  0.88410801  0.38918740  0.11483839  1
  O  O391  1  0.86032136  0.38527394  0.61251960  1
  O  O392  1  0.86341612  0.86833966  0.12597921  1
  O  O393  1  0.86685788  0.85501335  0.63189854  1
  O  O394  1  0.14340098  0.11254116  0.38306882  1
  O  O395  1  0.11550781  0.12617290  0.88243664  1
  O  O396  1  0.11229056  0.64593526  0.36932167  1
  O  O397  1  0.11907960  0.64545261  0.86614432  1
  O  O398  1  0.63979215  0.12025126  0.36708497  1
  O  O399  1  0.62639230  0.13826116  0.88519290  1
  O  O400  1  0.61354457  0.62314897  0.39787141  1
  O  O401  1  0.62964112  0.63450037  0.88868936  1
