# generated using pymatgen
data_V73Zn73O256
_symmetry_space_group_name_H-M   'P 1'
_cell_length_a   16.91764202
_cell_length_b   16.94760406
_cell_length_c   16.96737199
_cell_angle_alpha   89.92129965
_cell_angle_beta   89.97418260
_cell_angle_gamma   90.17055354
_symmetry_Int_Tables_number   1
_chemical_formula_structural   V73Zn73O256
_chemical_formula_sum   'V73 Zn73 O256'
_cell_volume   4864.74794170
_cell_formula_units_Z   1
loop_
 _symmetry_equiv_pos_site_id
 _symmetry_equiv_pos_as_xyz
  1  'x, y, z'
loop_
 _atom_site_type_symbol
 _atom_site_label
 _atom_site_symmetry_multiplicity
 _atom_site_fract_x
 _atom_site_fract_y
 _atom_site_fract_z
 _atom_site_occupancy
  V  V0  1  0.49933665  0.12151804  0.12078006  1
  V  V1  1  0.12807225  0.74931599  0.85090405  1
  V  V2  1  0.00504984  0.63808447  0.64033784  1
  V  V3  1  0.74613112  -0.00585178  0.24956630  1
  V  V4  1  0.00423337  -0.00753804  -0.01109460  1
  V  V5  1  0.63034258  0.75058548  0.39508663  1
  V  V6  1  -0.00394332  0.00116690  0.49731491  1
  V  V7  1  0.87350878  0.48915502  0.86577329  1
  V  V8  1  0.24789474  0.13210128  0.37417852  1
  V  V9  1  0.74842900  0.12797787  0.37238797  1
  V  V10  1  0.75379772  0.64211970  0.87568839  1
  V  V11  1  0.49674308  0.00010741  0.49663552  1
  V  V12  1  0.27552811  0.01069518  0.77863126  1
  V  V13  1  0.11971800  0.13406824  0.49632639  1
  V  V14  1  0.49127194  0.87676336  0.37041879  1
  V  V15  1  0.87182417  0.85437560  0.49924462  1
  V  V16  1  0.40101994  0.38207268  -0.00037109  1
  V  V17  1  0.62910642  0.12713234  0.00069220  1
  V  V18  1  0.61756302  0.51647761  0.09282160  1
  V  V19  1  0.25592466  0.24875347  0.00045913  1
  V  V20  1  0.87325647  -0.00801920  0.36953488  1
  V  V21  1  0.12557258  -0.00540123  0.12875782  1
  V  V22  1  0.61788342  0.86742859  0.24658546  1
  V  V23  1  0.63226475  0.12613957  0.49881171  1
  V  V24  1  0.76086684  0.38671951  0.63709893  1
  V  V25  1  0.24558316  0.74655380  0.50645663  1
  V  V26  1  0.74707324  0.13319855  0.88383778  1
  V  V27  1  -0.01375828  0.12237107  0.12210861  1
  V  V28  1  0.87582273  0.11800090  0.75738929  1
  V  V29  1  0.49511623  0.75254832  0.76125564  1
  V  V30  1  0.24964590  -0.00459993  0.25763960  1
  V  V31  1  0.24596446  0.87309226  0.12847204  1
  V  V32  1  0.37799750  0.11975458  0.25809578  1
  V  V33  1  0.48118496  0.13128065  0.62472642  1
  V  V34  1  0.36724016  0.61045316  0.76607430  1
  V  V35  1  0.37860478  0.25208156  0.13327293  1
  V  V36  1  0.62538313  0.00150632  0.62240750  1
  V  V37  1  0.13366285  0.12929220  -0.00113600  1
  V  V38  1  0.38462492  0.88430352  -0.00578477  1
  V  V39  1  0.13519738  0.75079610  0.36510376  1
  V  V40  1  0.50278424  0.25483272  0.25604757  1
  V  V41  1  0.12132186  0.49439109  0.65129936  1
  V  V42  1  0.60214767  0.64614585  -0.02441000  1
  V  V43  1  0.86599219  0.24287208  0.62169856  1
  V  V44  1  0.61453027  0.87293218  0.75706100  1
  V  V45  1  0.25986389  0.50620760  0.26452877  1
  V  V46  1  0.13277427  -0.01352066  0.62651925  1
  V  V47  1  0.49394856  0.25439260  0.75965414  1
  V  V48  1  0.00206332  0.25465952  0.75320271  1
  V  V49  1  0.38826686  0.74197999  0.12602712  1
  V  V50  1  0.13580864  0.49949948  0.11636760  1
  V  V51  1  0.00983852  0.87519602  0.84501793  1
  V  V52  1  0.00163284  0.36217881  0.89839443  1
  V  V53  1  -0.02039580  0.75111172  0.25413760  1
  V  V54  1  -0.00770896  0.62230338  0.14149313  1
  V  V55  1  0.00078555  0.51791804  -0.00734714  1
  V  V56  1  0.25162670  0.37286521  0.64836273  1
  V  V57  1  0.62496461  0.25701978  0.37859319  1
  V  V58  1  0.75123376  0.86410645  0.61728723  1
  V  V59  1  0.37774017  0.74463164  0.62933531  1
  V  V60  1  0.39362172  0.62586157  0.25181476  1
  V  V61  1  0.86124014  0.25801802  0.10839285  1
  V  V62  1  0.61975906  -0.00063047  0.12441962  1
  V  V63  1  0.25819979  0.26210942  0.49692684  1
  V  V64  1  0.11800231  0.61759210  0.49802592  1
  V  V65  1  0.22952898  0.74810467  0.00023631  1
  V  V66  1  0.58944329  0.53857613  0.61697757  1
  V  V67  1  0.87308598  0.64136299  0.74246529  1
  V  V68  1  0.63007818  0.39296124  0.23427256  1
  V  V69  1  0.92835952  0.17623329  0.29529431  1
  V  V70  1  0.75194019  -0.00292404  0.75489332  1
  V  V71  1  0.36587357  0.88326702  0.50673806  1
  V  V72  1  0.88242085  0.37805815  0.49128008  1
  Zn  Zn73  1  0.00601559  0.12137703  0.63537933  1
  Zn  Zn74  1  0.91402963  0.48813878  0.36616993  1
  Zn  Zn75  1  0.81905371  0.81148542  0.06075306  1
  Zn  Zn76  1  0.14738335  0.24720645  0.85388427  1
  Zn  Zn77  1  0.00319426  0.87390410  0.37067435  1
  Zn  Zn78  1  0.25501494  0.37871213  0.13010591  1
  Zn  Zn79  1  0.83860616  -0.06198769  0.92615896  1
  Zn  Zn80  1  0.81186464  0.58166749  0.27835812  1
  Zn  Zn81  1  0.62080343  0.38282520  0.73864121  1
  Zn  Zn82  1  0.19121565  0.17646535  0.18341289  1
  Zn  Zn83  1  0.19599552  0.17973252  0.67832278  1
  Zn  Zn84  1  0.19026427  0.67401211  0.17628809  1
  Zn  Zn85  1  0.19510373  0.68708656  0.68207742  1
  Zn  Zn86  1  0.68730423  0.18593915  0.19098712  1
  Zn  Zn87  1  0.68827585  0.18542494  0.69793232  1
  Zn  Zn88  1  0.71542547  0.65509616  0.13384564  1
  Zn  Zn89  1  0.68575834  0.68543123  0.69037824  1
  Zn  Zn90  1  0.19176903  0.31672130  0.29500851  1
  Zn  Zn91  1  0.32657046  0.31409764  0.82060765  1
  Zn  Zn92  1  0.31211786  0.80664024  0.30973942  1
  Zn  Zn93  1  0.30111454  0.83155230  0.81091097  1
  Zn  Zn94  1  0.80900167  0.31925170  0.30791779  1
  Zn  Zn95  1  0.81109694  0.30798932  0.81326326  1
  Zn  Zn96  1  0.76185492  0.75737040  0.25468109  1
  Zn  Zn97  1  0.81713864  0.81718480  0.80337051  1
  Zn  Zn98  1  0.18819008  0.44683400  0.44035320  1
  Zn  Zn99  1  0.18097133  0.41948570  0.94384963  1
  Zn  Zn100  1  0.18345389  0.93707346  0.43625168  1
  Zn  Zn101  1  0.19038649  0.93415207  0.93556780  1
  Zn  Zn102  1  0.67046523  0.41348188  0.48916243  1
  Zn  Zn103  1  0.69014067  0.45374305  0.92158131  1
  Zn  Zn104  1  0.68727292  0.93199403  0.43371367  1
  Zn  Zn105  1  0.66931136  0.92916108  0.94693417  1
  Zn  Zn106  1  0.31464663  0.06227163  0.06558249  1
  Zn  Zn107  1  0.30358833  0.06463190  0.55825752  1
  Zn  Zn108  1  0.29901247  0.54646327  -0.01276356  1
  Zn  Zn109  1  0.30106874  0.56420607  0.58016921  1
  Zn  Zn110  1  0.82563184  0.01099291  0.07614729  1
  Zn  Zn111  1  0.81295930  0.06065597  0.56318841  1
  Zn  Zn112  1  0.81337964  0.55665600  0.04834857  1
  Zn  Zn113  1  0.84004513  0.55080694  0.56338275  1
  Zn  Zn114  1  0.44517239  0.44408367  0.18625244  1
  Zn  Zn115  1  0.43721524  0.43774290  0.68074412  1
  Zn  Zn116  1  0.43109340  0.93662415  0.18138770  1
  Zn  Zn117  1  0.42900380  0.94221396  0.68783061  1
  Zn  Zn118  1  0.91111818  0.45233432  0.16593797  1
  Zn  Zn119  1  0.94440710  0.43900039  0.69111079  1
  Zn  Zn120  1  0.93853459  0.92919465  0.18532822  1
  Zn  Zn121  1  0.93660411  0.93685458  0.67815978  1
  Zn  Zn122  1  0.06763991  0.05943100  0.31359507  1
  Zn  Zn123  1  0.07618605  0.06688785  0.81235648  1
  Zn  Zn124  1  0.08589973  0.56810452  0.30246924  1
  Zn  Zn125  1  0.19246366  0.56355972  0.82850851  1
  Zn  Zn126  1  0.56259885  0.06124900  0.31320736  1
  Zn  Zn127  1  0.56858697  0.07471088  0.80244701  1
  Zn  Zn128  1  0.60946613  0.60248370  0.28217952  1
  Zn  Zn129  1  0.56934322  0.56904926  0.79365922  1
  Zn  Zn130  1  0.43788753  0.18846800  0.43882147  1
  Zn  Zn131  1  0.48477609  0.23804163  0.96600678  1
  Zn  Zn132  1  0.42207936  0.71035633  0.41974044  1
  Zn  Zn133  1  0.41818614  0.70485969  0.93432432  1
  Zn  Zn134  1  0.97503813  0.23147053  0.46315900  1
  Zn  Zn135  1  0.93405999  0.17720779  0.94049941  1
  Zn  Zn136  1  0.93943315  0.67252397  0.42848435  1
  Zn  Zn137  1  0.93654985  0.69758620  0.92158359  1
  Zn  Zn138  1  0.08183231  0.29181187  0.12344873  1
  Zn  Zn139  1  0.06368944  0.31645036  0.57871157  1
  Zn  Zn140  1  0.01879321  0.78538001  0.04180623  1
  Zn  Zn141  1  0.05829026  0.81178970  0.55579429  1
  Zn  Zn142  1  0.62000091  0.33993915  0.02994855  1
  Zn  Zn143  1  0.59068617  0.28222830  0.60107930  1
  Zn  Zn144  1  0.56427362  0.81196132  0.05867154  1
  Zn  Zn145  1  0.55729878  0.81239573  0.56611690  1
  O  O146  1  0.11775634  0.11372157  0.11690554  1
  O  O147  1  0.12424427  0.11493401  0.60483273  1
  O  O148  1  0.10523405  0.60979202  0.12287419  1
  O  O149  1  0.11915779  0.61543820  0.62521007  1
  O  O150  1  0.61743484  0.11799435  0.12251304  1
  O  O151  1  0.62677598  0.11452465  0.61552329  1
  O  O152  1  0.61072151  0.62920510  0.08467893  1
  O  O153  1  0.60652002  0.63896096  0.62635696  1
  O  O154  1  0.44041436  0.38388480  0.42897196  1
  O  O155  1  0.38247985  0.36829420  0.90184302  1
  O  O156  1  0.38502354  0.86577778  0.38666908  1
  O  O157  1  0.36738986  0.87106307  0.89583517  1
  O  O158  1  0.87351354  0.36859301  0.38848772  1
  O  O159  1  0.88139177  0.38393873  0.86622181  1
  O  O160  1  0.87419562  0.88811573  0.38876243  1
  O  O161  1  0.90130791  0.87378920  0.85863441  1
  O  O162  1  0.24277844  0.01016274  0.36576949  1
  O  O163  1  0.25163497  0.01108828  0.87874503  1
  O  O164  1  0.24728975  0.50720008  0.36294987  1
  O  O165  1  0.24608495  0.49818649  0.89961039  1
  O  O166  1  0.75574189  0.00477708  0.37026740  1
  O  O167  1  0.75069466  -0.00294102  0.85955115  1
  O  O168  1  0.73993266  0.59112291  0.44135516  1
  O  O169  1  0.77154943  0.51293353  0.87019507  1
  O  O170  1  0.23445797  0.50677935  0.09471054  1
  O  O171  1  0.23406791  0.48557665  0.62937926  1
  O  O172  1  0.24424497  0.99469558  0.13583624  1
  O  O173  1  0.23266915  0.99665545  0.61038534  1
  O  O174  1  0.72434025  0.53380729  0.11741397  1
  O  O175  1  0.77469858  0.48552110  0.63257399  1
  O  O176  1  0.73052790  1.00794317  0.13968075  1
  O  O177  1  0.74080843  0.99533953  0.63229973  1
  O  O178  1  0.05258716  0.40086917  0.33563733  1
  O  O179  1  -0.00147059  0.35577017  0.75423179  1
  O  O180  1  -0.00491714  0.85527694  0.25083308  1
  O  O181  1  0.00993779  0.88229809  0.74667083  1
  O  O182  1  0.51541706  0.36264040  0.24422420  1
  O  O183  1  0.50128740  0.35864060  0.73133978  1
  O  O184  1  0.50006344  0.88840480  0.26559215  1
  O  O185  1  0.51037126  0.87285628  0.73689766  1
  O  O186  1  0.49394777  0.12903303  0.24907204  1
  O  O187  1  0.50685149  0.13670155  0.72947514  1
  O  O188  1  0.49326997  0.62154913  0.25011946  1
  O  O189  1  0.48488571  0.64560394  0.75819237  1
  O  O190  1  0.99421107  0.11495708  0.23794528  1
  O  O191  1  0.98761382  0.12669953  0.75616461  1
  O  O192  1  0.99849151  0.62359423  0.24577588  1
  O  O193  1  0.99136590  0.63069474  0.74097011  1
  O  O194  1  0.37181192  0.25007093  0.01489551  1
  O  O195  1  0.35669516  0.24769317  0.49487255  1
  O  O196  1  0.36140145  0.76267945  0.01409477  1
  O  O197  1  0.36847138  0.75532644  0.51046401  1
  O  O198  1  0.87081717  0.23993270  0.01027581  1
  O  O199  1  0.87251816  0.24160983  0.51979232  1
  O  O200  1  0.91084784  0.76005995  0.00973904  1
  O  O201  1  0.88344143  0.75703976  0.48988083  1
  O  O202  1  0.11914934  0.23671648  0.50299546  1
  O  O203  1  0.14714288  0.24343111  1.02205184  1
  O  O204  1  0.13122006  0.74317662  0.49415306  1
  O  O205  1  0.12809797  0.75554466  1.00610930  1
  O  O206  1  0.62119735  0.23120317  0.49656436  1
  O  O207  1  0.62222473  0.22692840  1.00421137  1
  O  O208  1  0.62935099  0.76651007  0.49480676  1
  O  O209  1  0.61673176  0.74562587  0.98207252  1
  O  O210  1  0.49440251  0.23527949  0.14084760  1
  O  O211  1  0.48838337  0.23179621  0.60863460  1
  O  O212  1  0.48643540  0.75642780  0.12406812  1
  O  O213  1  0.48209102  0.75526000  0.63019852  1
  O  O214  1  0.98468094  0.22798524  0.12369516  1
  O  O215  1  0.98953288  0.24215831  0.64012760  1
  O  O216  1  1.00632220  0.73235871  0.14679244  1
  O  O217  1  1.01146186  0.73684891  0.62762047  1
  O  O218  1  -0.01099216  0.23040032  0.35205416  1
  O  O219  1  -0.01457625  0.25389823  0.86537268  1
  O  O220  1  0.01052028  0.74364720  0.36091673  1
  O  O221  1  0.01610854  0.76522680  0.86428956  1
  O  O222  1  0.51110014  0.24050345  0.36656031  1
  O  O223  1  0.51522564  0.24410386  0.85704764  1
  O  O224  1  0.50927979  0.77304045  0.38390809  1
  O  O225  1  0.48602065  0.76707856  0.85720512  1
  O  O226  1  0.23901832  0.13583911  0.49281610  1
  O  O227  1  0.24706519  0.13674070  1.01144424  1
  O  O228  1  0.23322112  0.63739496  0.51469389  1
  O  O229  1  0.25226951  0.65094079  1.00072081  1
  O  O230  1  0.74084492  0.11244604  0.48671089  1
  O  O231  1  0.74528653  0.11227091  0.98568508  1
  O  O232  1  0.76199474  0.62572948  0.50270659  1
  O  O233  1  0.75448231  0.63261552  0.97794059  1
  O  O234  1  0.26081116  0.35813383  0.01310129  1
  O  O235  1  0.24409647  0.36200520  0.48932689  1
  O  O236  1  0.25218435  0.86977778  0.01457783  1
  O  O237  1  0.26303521  0.86912160  0.49162350  1
  O  O238  1  0.71505575  0.36527149  -0.02130963  1
  O  O239  1  0.77779654  0.37302300  0.51809273  1
  O  O240  1  0.76124804  0.88107390  -0.01558052  1
  O  O241  1  0.75654806  0.88122526  0.51093727  1
  O  O242  1  0.14958163  0.50792047  0.22974736  1
  O  O243  1  0.12705650  0.50362842  0.74894651  1
  O  O244  1  0.13732669  1.00675294  0.24083868  1
  O  O245  1  0.11487995  1.00772021  0.72456246  1
  O  O246  1  0.61776457  0.48691108  0.26626729  1
  O  O247  1  0.61861690  0.50095555  0.71264391  1
  O  O248  1  0.62631337  0.99346636  0.24586795  1
  O  O249  1  0.62897764  0.99300450  0.74001418  1
  O  O250  1  0.36513380  0.01185747  0.24585879  1
  O  O251  1  0.37777429  0.00923732  0.75903674  1
  O  O252  1  0.37158814  0.51339040  0.24330354  1
  O  O253  1  0.38545633  0.51369612  0.75517675  1
  O  O254  1  0.86190871  -0.01151038  0.26080424  1
  O  O255  1  0.86369161  0.00772132  0.73845958  1
  O  O256  1  0.86618598  0.48344809  0.26054335  1
  O  O257  1  0.89070555  0.51009789  0.76519424  1
  O  O258  1  0.11927031  0.37258244  0.37416455  1
  O  O259  1  0.10699990  0.35298214  0.88620704  1
  O  O260  1  0.12053276  0.85559040  0.38026651  1
  O  O261  1  0.11442797  0.86994192  0.87409097  1
  O  O262  1  0.63234443  0.35576325  0.39822750  1
  O  O263  1  0.59493878  0.41932828  0.85475071  1
  O  O264  1  0.61042653  0.87577294  0.36727208  1
  O  O265  1  0.61870835  0.88535333  0.85481186  1
  O  O266  1  0.38233154  0.12990802  0.13671307  1
  O  O267  1  0.38348560  0.11606310  0.61973286  1
  O  O268  1  0.37887498  0.64152548  0.12929109  1
  O  O269  1  0.36968638  0.64128484  0.63973861  1
  O  O270  1  0.88631624  0.11188205  0.12002533  1
  O  O271  1  0.87317278  0.13114224  0.63627037  1
  O  O272  1  0.89282242  0.61176442  0.12185579  1
  O  O273  1  0.89226951  0.62073607  0.63410991  1
  O  O274  1  0.26910927  0.24850738  0.12604837  1
  O  O275  1  0.23631704  0.26522721  0.60857345  1
  O  O276  1  0.24527743  0.75958332  0.11864466  1
  O  O277  1  0.26201494  0.75639860  0.61527244  1
  O  O278  1  0.76317553  0.23931074  0.12819908  1
  O  O279  1  0.76457992  0.25134462  0.63486758  1
  O  O280  1  0.75617543  0.75757374  0.13870331  1
  O  O281  1  0.74222979  0.76677239  0.62753063  1
  O  O282  1  0.23883271  0.24102879  0.38268240  1
  O  O283  1  0.25527516  0.25222092  0.89645043  1
  O  O284  1  0.24103354  0.75204300  0.38709278  1
  O  O285  1  0.23341087  0.76975378  0.89062669  1
  O  O286  1  0.74178471  0.23401281  0.36690871  1
  O  O287  1  0.74770614  0.23189211  0.87186651  1
  O  O288  1  0.72726130  0.76209839  0.36650533  1
  O  O289  1  0.75550698  0.74109220  0.86384573  1
  O  O290  1  0.01046399  0.11734934  0.01012067  1
  O  O291  1  0.01068500  0.12108343  0.49521413  1
  O  O292  1  0.00249046  0.61743071  -0.00824196  1
  O  O293  1  0.01398509  0.62966358  0.51359489  1
  O  O294  1  0.50546532  0.13156704  0.01593350  1
  O  O295  1  0.50533891  0.11518793  0.50627843  1
  O  O296  1  0.50518672  0.63369602  -0.03962031  1
  O  O297  1  0.42851814  0.55621513  0.47537780  1
  O  O298  1  0.46875281  0.38113192  0.49542127  1
  O  O299  1  0.50197854  0.35048137  1.00805585  1
  O  O300  1  0.48891530  0.88479081  0.49510376  1
  O  O301  1  0.48487090  0.87320464  1.00321244  1
  O  O302  1  0.98411002  0.34336932  0.50179385  1
  O  O303  1  0.99143105  0.36059732  0.99426997  1
  O  O304  1  0.98649238  0.88451782  0.49651857  1
  O  O305  1  1.00933987  0.89481931  1.00378181  1
  O  O306  1  0.47080511  0.52815390  0.42031249  1
  O  O307  1  0.53471581  0.47073575  0.85644570  1
  O  O308  1  0.50230438  0.99221987  0.38824995  1
  O  O309  1  0.48603170  1.01944282  0.87982692  1
  O  O310  1  1.03351225  0.47740567  0.36413175  1
  O  O311  1  0.99648456  0.47726476  0.88938215  1
  O  O312  1  0.99222301  0.99730665  0.37760935  1
  O  O313  1  1.01743985  0.98881881  0.88190976  1
  O  O314  1  0.00878391  0.00633459  0.11864677  1
  O  O315  1  0.00172596  0.00554777  0.60874486  1
  O  O316  1  0.00001357  0.50631625  0.10953819  1
  O  O317  1  0.01638173  0.50671058  0.63192713  1
  O  O318  1  0.50691447  0.01267912  0.13703245  1
  O  O319  1  0.50748332  0.00770447  0.61640314  1
  O  O320  1  0.52321223  0.50631600  0.12880582  1
  O  O321  1  0.49038853  0.51429509  0.61376707  1
  O  O322  1  0.25899310  0.39878624  0.24333121  1
  O  O323  1  0.24792979  0.35622744  0.74712679  1
  O  O324  1  0.25749418  0.88576015  0.24428641  1
  O  O325  1  0.25117527  0.91349267  0.75065212  1
  O  O326  1  0.72524509  0.37196302  0.25768113  1
  O  O327  1  0.74509937  0.36957343  0.74020724  1
  O  O328  1  0.72538147  0.88482773  0.25540210  1
  O  O329  1  0.73926638  0.87985301  0.73774205  1
  O  O330  1  0.25804945  0.11811282  0.25766704  1
  O  O331  1  0.24268968  0.10412480  0.74423024  1
  O  O332  1  0.26375123  0.60994909  0.23670559  1
  O  O333  1  0.26217627  0.61996846  0.74850482  1
  O  O334  1  0.73760956  0.10749023  0.26338422  1
  O  O335  1  0.75269385  0.11485810  0.76045724  1
  O  O336  1  0.71954462  0.63750443  0.25088689  1
  O  O337  1  0.76536582  0.62785976  0.75136976  1
  O  O338  1  0.36326480  0.12880125  0.36795052  1
  O  O339  1  0.43016040  0.06552852  0.89358775  1
  O  O340  1  0.37302221  0.64004700  0.35148926  1
  O  O341  1  0.36600463  0.62901465  0.86553183  1
  O  O342  1  0.86831792  0.11810656  0.36133551  1
  O  O343  1  0.86100559  0.12151082  0.86586964  1
  O  O344  1  0.87708169  0.59660011  0.37603476  1
  O  O345  1  0.87158638  0.62567293  0.85879874  1
  O  O346  1  0.12569537  0.39584285  0.12260680  1
  O  O347  1  0.12996512  0.38774997  0.63185930  1
  O  O348  1  0.13413977  0.88981417  0.12414032  1
  O  O349  1  0.11768967  0.88815924  0.61283748  1
  O  O350  1  0.63377401  0.40163678  0.12995055  1
  O  O351  1  0.65632872  0.37407072  0.60673232  1
  O  O352  1  0.60764358  0.88567061  0.13870371  1
  O  O353  1  0.63305117  0.88586962  0.62728302  1
  O  O354  1  0.12748870  0.25808518  0.22433207  1
  O  O355  1  0.10556058  0.23174490  0.74709398  1
  O  O356  1  0.13509890  0.73565859  0.26565054  1
  O  O357  1  0.14502017  0.76045948  0.75335441  1
  O  O358  1  0.61906880  0.25509279  0.26001674  1
  O  O359  1  0.60844067  0.25978941  0.71920283  1
  O  O360  1  0.61130744  0.76978375  0.25361269  1
  O  O361  1  0.60852275  0.76356420  0.74606136  1
  O  O362  1  0.38664552  0.23731030  0.24655761  1
  O  O363  1  0.39273049  0.24781581  0.75563220  1
  O  O364  1  0.37007928  0.74184603  0.23572279  1
  O  O365  1  0.37790121  0.76310389  0.73953382  1
  O  O366  1  0.87218535  0.24222627  0.24156281  1
  O  O367  1  0.88208217  0.23695905  0.74526598  1
  O  O368  1  0.88255032  0.74149634  0.26149811  1
  O  O369  1  0.87707339  0.74018467  0.74131103  1
  O  O370  1  0.36145481  0.51261871  0.49450187  1
  O  O371  1  0.38995030  0.48068722  1.01397631  1
  O  O372  1  0.37852088  0.98892728  0.50320879  1
  O  O373  1  0.37214431  0.98365399  1.01371898  1
  O  O374  1  0.89780322  0.47942462  0.49715967  1
  O  O375  1  0.88895655  0.50434601  0.98136990  1
  O  O376  1  0.88428395  1.00764143  0.48854983  1
  O  O377  1  0.90059004  1.01483070  0.98564768  1
  O  O378  1  0.12171394  0.00992142  0.00763231  1
  O  O379  1  0.11202706  0.00536155  0.49976936  1
  O  O380  1  0.10491443  0.49310916  0.00421810  1
  O  O381  1  0.12863638  0.51662108  0.50650176  1
  O  O382  1  0.62198793  0.00717776  0.01601200  1
  O  O383  1  0.61694217  0.00410627  0.50522996  1
  O  O384  1  0.61560258  0.51425109  -0.00912493  1
  O  O385  1  0.63210337  0.51020657  0.52801099  1
  O  O386  1  0.38306855  0.36375901  0.12202665  1
  O  O387  1  0.34897368  0.38364133  0.62820906  1
  O  O388  1  0.36279007  0.86591941  0.12275389  1
  O  O389  1  0.37686450  0.86976268  0.60979374  1
  O  O390  1  0.87801164  0.35635854  0.12112561  1
  O  O391  1  0.87483991  0.35999855  0.63000765  1
  O  O392  1  0.86294801  0.90735535  0.11001992  1
  O  O393  1  0.85959533  0.87722975  0.61544644  1
  O  O394  1  0.13293889  0.12041505  0.38689100  1
  O  O395  1  0.11765078  0.13808224  0.89474310  1
  O  O396  1  0.12016383  0.63469249  0.39123841  1
  O  O397  1  0.12682474  0.65031891  0.86551743  1
  O  O398  1  0.63035091  0.12820414  0.38283375  1
  O  O399  1  0.63788766  0.11264271  0.88359012  1
  O  O400  1  0.60512754  0.65268467  0.38372934  1
  O  O401  1  0.64338588  0.62088462  0.87032064  1
