# generated using pymatgen
data_V73Zn73O256
_symmetry_space_group_name_H-M   'P 1'
_cell_length_a   16.92395226
_cell_length_b   16.89493813
_cell_length_c   16.89150974
_cell_angle_alpha   89.85157226
_cell_angle_beta   90.07285024
_cell_angle_gamma   89.66850855
_symmetry_Int_Tables_number   1
_chemical_formula_structural   V73Zn73O256
_chemical_formula_sum   'V73 Zn73 O256'
_cell_volume   4829.67358617
_cell_formula_units_Z   1
loop_
 _symmetry_equiv_pos_site_id
 _symmetry_equiv_pos_as_xyz
  1  'x, y, z'
loop_
 _atom_site_type_symbol
 _atom_site_label
 _atom_site_symmetry_multiplicity
 _atom_site_fract_x
 _atom_site_fract_y
 _atom_site_fract_z
 _atom_site_occupancy
  V  V0  1  0.62257562  0.23703741  0.88021589  1
  V  V1  1  0.12641156  0.36004595  0.76701354  1
  V  V2  1  0.36304508  0.75152083  0.62372308  1
  V  V3  1  -0.00310608  0.38746404  0.37367595  1
  V  V4  1  0.73900885  0.37710148  0.11628746  1
  V  V5  1  0.27176474  0.75639606  0.01162060  1
  V  V6  1  0.08226173  0.48674950  0.10483721  1
  V  V7  1  0.62155681  0.37016246  0.26051991  1
  V  V8  1  0.00234239  0.24818287  0.24562352  1
  V  V9  1  0.39358104  -0.01199572  0.87586324  1
  V  V10  1  0.62492919  0.01894722  0.62389869  1
  V  V11  1  0.62969143  0.49508074  0.62735939  1
  V  V12  1  0.75311328  0.01394945  0.76675242  1
  V  V13  1  0.48263844  0.37243807  0.37933005  1
  V  V14  1  0.49648450  0.62664355  0.62904783  1
  V  V15  1  0.37133729  0.87067609  0.50180749  1
  V  V16  1  0.42675738  0.68531446  0.24399071  1
  V  V17  1  0.00003966  0.61675285  0.62649411  1
  V  V18  1  0.11587631  0.12284944  0.51023977  1
  V  V19  1  0.24827869  0.63136955  0.88602318  1
  V  V20  1  0.12419568  0.24729091  0.36940302  1
  V  V21  1  0.14193300  0.87635676  0.21625090  1
  V  V22  1  0.87439910  -0.00433612  0.37503823  1
  V  V23  1  0.11936194  0.50158145  0.61867947  1
  V  V24  1  0.73821491  0.49785511  0.25133378  1
  V  V25  1  0.63258835  0.37201330  0.74934798  1
  V  V26  1  0.13412527  0.12553921  0.00388573  1
  V  V27  1  0.25362898  0.25332470  0.49554217  1
  V  V28  1  0.76841287  0.29797699  0.53036794  1
  V  V29  1  -0.00335140  0.00080275  0.50815760  1
  V  V30  1  0.11090871  0.63835028  0.00391016  1
  V  V31  1  0.48876987  0.48866917  0.50076129  1
  V  V32  1  0.13153971  0.38102385  0.24262980  1
  V  V33  1  0.74100871  0.74688397  0.49933929  1
  V  V34  1  0.86978264  0.24799636  0.12259837  1
  V  V35  1  0.37583832  0.11826892  0.24762678  1
  V  V36  1  0.25189201  0.12927122  0.87142523  1
  V  V37  1  0.26881959  0.89766334  0.10885751  1
  V  V38  1  0.24779627  -0.00858927  0.73613890  1
  V  V39  1  0.87213443  0.86901973  0.50329369  1
  V  V40  1  -0.01031899  0.83954028  0.36879121  1
  V  V41  1  0.75140948  0.62642633  0.89290677  1
  V  V42  1  0.63380358  0.86865875  0.23926278  1
  V  V43  1  0.87168340  0.74809265  0.63711108  1
  V  V44  1  0.61866059  0.86636088  0.75598229  1
  V  V45  1  0.73854124  0.21619734  0.00380734  1
  V  V46  1  0.50640238  0.01436533  0.50556427  1
  V  V47  1  0.50657815  0.24990620  0.74122836  1
  V  V48  1  -0.00645811  0.01102365  -0.04347722  1
  V  V49  1  0.24852840  0.50368330  0.75585547  1
  V  V50  1  0.50043348  0.24488370  0.25521567  1
  V  V51  1  0.01699282  0.76407720  0.76194686  1
  V  V52  1  0.37874466  -0.00296857  0.37085487  1
  V  V53  1  0.24803511  0.11200868  0.37035277  1
  V  V54  1  0.52072962  0.86487119  0.38395323  1
  V  V55  1  0.25505474  0.37804489  0.62012200  1
  V  V56  1  0.37521910  0.24522887  0.11697251  1
  V  V57  1  0.74507211  -0.00163765  0.23725065  1
  V  V58  1  0.74316323  0.87518386  0.62912482  1
  V  V59  1  -0.04698468  0.41869261  0.94446956  1
  V  V60  1  0.87800981  0.11974951  0.25241151  1
  V  V61  1  0.83875599  0.85724829  0.00273362  1
  V  V62  1  0.25840507  0.39269805  0.11881361  1
  V  V63  1  0.75663661  0.50283295  0.75627574  1
  V  V64  1  -0.01497024  0.65161018  0.12205570  1
  V  V65  1  0.49553007  0.38135419  0.88490355  1
  V  V66  1  0.86548406  0.63521223  0.23936648  1
  V  V67  1  0.38201118  0.25108749  0.61722375  1
  V  V68  1  0.73112502  0.13290473  0.38199780  1
  V  V69  1  0.62024662  0.62529265  0.49521237  1
  V  V70  1  0.00879148  0.11004384  0.12663343  1
  V  V71  1  0.74347917  0.62041456  0.37542406  1
  V  V72  1  0.38301485  0.12356828  0.73917429  1
  Zn  Zn73  1  0.88488118  0.62169760  0.76335996  1
  Zn  Zn74  1  0.13114352  -0.03234544  0.62317088  1
  Zn  Zn75  1  0.48916762  0.75800575  0.76687782  1
  Zn  Zn76  1  0.37196338  0.62696448  0.75646613  1
  Zn  Zn77  1  0.24720760  0.26847137  -0.01283804  1
  Zn  Zn78  1  0.84800707  0.46076913  0.42870963  1
  Zn  Zn79  1  0.31261126  0.56270102  0.30454746  1
  Zn  Zn80  1  0.12952555  0.63053249  0.46913865  1
  Zn  Zn81  1  0.37309131  0.49545812  0.88347050  1
  Zn  Zn82  1  0.19383619  0.18767036  0.18215187  1
  Zn  Zn83  1  0.19533410  0.18660698  0.68407376  1
  Zn  Zn84  1  0.18336641  0.70060824  0.30031751  1
  Zn  Zn85  1  0.18496765  0.68867060  0.68896721  1
  Zn  Zn86  1  0.68958050  0.18797542  0.19948593  1
  Zn  Zn87  1  0.81868109  0.18362435  0.68315593  1
  Zn  Zn88  1  0.63616269  0.67439373  0.21469286  1
  Zn  Zn89  1  0.68551599  0.68189729  0.68853472  1
  Zn  Zn90  1  0.31018861  0.30605158  0.30689428  1
  Zn  Zn91  1  0.31542940  0.31701694  0.80343731  1
  Zn  Zn92  1  0.31536255  0.82133663  0.30626832  1
  Zn  Zn93  1  0.30515659  0.81264999  0.81376718  1
  Zn  Zn94  1  0.81231237  0.30898617  0.31413733  1
  Zn  Zn95  1  0.80791609  0.30957256  0.83435387  1
  Zn  Zn96  1  0.80351332  0.80873243  0.31220688  1
  Zn  Zn97  1  0.80600986  0.81666581  0.82441173  1
  Zn  Zn98  1  0.18343879  0.44146432  0.43293512  1
  Zn  Zn99  1  0.17610117  0.44833442  0.94448144  1
  Zn  Zn100  1  0.17976967  0.81878675  0.45902302  1
  Zn  Zn101  1  0.19402977  0.94596671  0.92194156  1
  Zn  Zn102  1  0.67562806  0.43315849  0.43963903  1
  Zn  Zn103  1  0.68705887  0.43361623  0.92964119  1
  Zn  Zn104  1  0.69366062  0.94949308  0.44206099  1
  Zn  Zn105  1  0.67567642  0.93710000  0.94091037  1
  Zn  Zn106  1  0.33078173  0.06335358  0.05265847  1
  Zn  Zn107  1  0.31270480  0.06284016  0.55489432  1
  Zn  Zn108  1  0.27221821  0.62023496  0.13048881  1
  Zn  Zn109  1  0.30793641  0.56449858  0.55829995  1
  Zn  Zn110  1  0.83080439  0.03389888  0.06153662  1
  Zn  Zn111  1  0.80949933  0.06532059  0.56086021  1
  Zn  Zn112  1  0.82427898  0.54376305  0.06010595  1
  Zn  Zn113  1  0.81401452  0.55851743  0.57082786  1
  Zn  Zn114  1  0.41712051  0.42789670  0.20321493  1
  Zn  Zn115  1  0.43892080  0.43732825  0.69027460  1
  Zn  Zn116  1  0.44780579  0.89579513  0.19185429  1
  Zn  Zn117  1  0.43804800  0.93843184  0.68441912  1
  Zn  Zn118  1  0.91993614  0.43293187  0.20158140  1
  Zn  Zn119  1  0.94129733  0.43097563  0.77966884  1
  Zn  Zn120  1  0.93338746  0.91795864  0.17897493  1
  Zn  Zn121  1  0.93337840  0.94389887  0.69648698  1
  Zn  Zn122  1  0.06562243  0.04846914  0.31731028  1
  Zn  Zn123  1  0.07242989  0.07874018  0.79697498  1
  Zn  Zn124  1  0.05899200  0.56557020  0.29053453  1
  Zn  Zn125  1  0.06460099  0.56347826  0.81718565  1
  Zn  Zn126  1  0.55894143  0.05346209  0.30898931  1
  Zn  Zn127  1  0.56683477  0.06082229  0.80427736  1
  Zn  Zn128  1  0.52473261  0.54228221  0.29219363  1
  Zn  Zn129  1  0.56461448  0.56563543  0.81686582  1
  Zn  Zn130  1  0.43742040  0.18655294  0.43317701  1
  Zn  Zn131  1  0.41312838  0.20707706  0.91070086  1
  Zn  Zn132  1  0.43465247  0.68607544  0.43567207  1
  Zn  Zn133  1  0.43669172  0.68242959  0.93876558  1
  Zn  Zn134  1  0.93088974  0.19175340  0.44137650  1
  Zn  Zn135  1  0.94938861  0.20633588  0.95742265  1
  Zn  Zn136  1  0.92379755  0.65056659  0.44573530  1
  Zn  Zn137  1  0.92338122  0.70071614  0.93732899  1
  Zn  Zn138  1  0.06444532  0.30947864  0.04847232  1
  Zn  Zn139  1  0.07352760  0.32374730  0.55304656  1
  Zn  Zn140  1  0.08879613  0.84763139  0.00898224  1
  Zn  Zn141  1  0.06563438  0.79190613  0.57655624  1
  Zn  Zn142  1  0.56034054  0.30692835  0.06656641  1
  Zn  Zn143  1  0.57646409  0.30591140  0.55870899  1
  Zn  Zn144  1  0.62516071  0.74001018  -0.12081791  1
  Zn  Zn145  1  0.55615382  0.81282514  0.56711340  1
  O  O146  1  0.12126538  0.12573064  0.11782237  1
  O  O147  1  0.12452164  0.13452331  0.60968353  1
  O  O148  1  0.08893420  0.61131143  0.11922510  1
  O  O149  1  0.11822963  0.60895661  0.63661900  1
  O  O150  1  0.61459276  0.10629912  0.13311878  1
  O  O151  1  0.62727648  0.11401117  0.62917704  1
  O  O152  1  0.56401032  0.64385073  0.10523975  1
  O  O153  1  0.61456542  0.61523010  0.61951855  1
  O  O154  1  0.38224092  0.37444109  0.36759563  1
  O  O155  1  0.38874161  0.37599542  0.87183989  1
  O  O156  1  0.39193405  0.88179511  0.38509126  1
  O  O157  1  0.37288729  0.88920301  0.86469814  1
  O  O158  1  0.88969425  0.38096319  0.35642405  1
  O  O159  1  0.88336108  0.38362801  0.87106027  1
  O  O160  1  0.86699294  0.87807626  0.38584018  1
  O  O161  1  0.85868265  0.87793631  0.90350326  1
  O  O162  1  0.26612370  0.00933868  0.38087211  1
  O  O163  1  0.26248310  0.01354045  0.85741717  1
  O  O164  1  0.26336239  0.52192197  0.40614318  1
  O  O165  1  0.25056788  0.50876747  0.87234060  1
  O  O166  1  0.76160983  0.01010543  0.37014170  1
  O  O167  1  0.72744902  0.00574064  0.86457647  1
  O  O168  1  0.74407257  0.50457637  0.36868136  1
  O  O169  1  0.74817282  0.50489049  0.86299457  1
  O  O170  1  0.26749317  0.49030657  0.12749886  1
  O  O171  1  0.24009624  0.49738686  0.63029895  1
  O  O172  1  0.25113638  0.99643769  0.10213764  1
  O  O173  1  0.25436123  1.00299741  0.63195380  1
  O  O174  1  0.74745769  0.48096417  0.13044995  1
  O  O175  1  0.73729439  0.50594165  0.63758283  1
  O  O176  1  0.74893674  1.01171116  0.13910516  1
  O  O177  1  0.73653925  0.99132576  0.62333962  1
  O  O178  1  0.00757111  0.36382459  0.24915824  1
  O  O179  1  0.02691176  0.36874150  0.74995724  1
  O  O180  1  -0.03023837  0.86184574  0.26886573  1
  O  O181  1  -0.00367677  0.86180075  0.74316347  1
  O  O182  1  0.50314553  0.36581461  0.25975906  1
  O  O183  1  0.50870927  0.36714441  0.75481019  1
  O  O184  1  0.52635690  0.88845922  0.27322390  1
  O  O185  1  0.51564549  0.87236359  0.73830544  1
  O  O186  1  0.48760522  0.13125107  0.25813958  1
  O  O187  1  0.49393349  0.13819136  0.74648398  1
  O  O188  1  0.52827557  0.65207488  0.25175275  1
  O  O189  1  0.49362328  0.61585015  0.73599413  1
  O  O190  1  0.99928262  0.12936631  0.24598295  1
  O  O191  1  0.99803130  0.17108543  0.76235758  1
  O  O192  1  0.97201472  0.62942100  0.23781011  1
  O  O193  1  1.00193034  0.63246044  0.74529149  1
  O  O194  1  0.38386276  0.23883151  0.01579989  1
  O  O195  1  0.36362461  0.24340104  0.50396886  1
  O  O196  1  0.37138369  0.75061071  0.00083983  1
  O  O197  1  0.37917566  0.76030304  0.50887484  1
  O  O198  1  0.85087580  0.23134287  0.01371659  1
  O  O199  1  0.84972322  0.25633376  0.48365287  1
  O  O200  1  0.86387007  0.75916892  0.01538864  1
  O  O201  1  0.86080294  0.75145932  0.51777702  1
  O  O202  1  0.13117941  0.24186385  0.49054802  1
  O  O203  1  0.13713262  0.23410835  1.00089534  1
  O  O204  1  0.14471637  0.72706103  0.52262451  1
  O  O205  1  0.13124053  0.73705083  1.01391393  1
  O  O206  1  0.67057520  0.27455636  0.50624912  1
  O  O207  1  0.63221059  0.24518671  0.99822958  1
  O  O208  1  0.63110010  0.73722247  0.51404856  1
  O  O209  1  0.66273956  0.73387288  1.04399795  1
  O  O210  1  0.48324761  0.25898127  0.13963480  1
  O  O211  1  0.49357780  0.25988703  0.62732040  1
  O  O212  1  0.55989796  0.68736542  0.04493489  1
  O  O213  1  0.49184075  0.73690124  0.62784136  1
  O  O214  1  0.99127001  0.24337821  0.13118969  1
  O  O215  1  0.97287712  0.28395315  0.61699651  1
  O  O216  1  0.99141081  0.74668603  0.12641804  1
  O  O217  1  0.98960270  0.74005349  0.64205966  1
  O  O218  1  0.00378936  0.25393870  0.35971889  1
  O  O219  1  -0.01785601  0.31377892  0.96277997  1
  O  O220  1  -0.03282529  0.74312963  0.38725160  1
  O  O221  1  -0.00707388  0.74548158  0.85867292  1
  O  O222  1  0.49352697  0.25741729  0.36624924  1
  O  O223  1  0.50269701  0.26017035  0.86326187  1
  O  O224  1  0.50804525  0.76636719  0.38921194  1
  O  O225  1  0.51437036  0.72257090  0.87193585  1
  O  O226  1  0.23851048  0.13253190  0.49099129  1
  O  O227  1  0.25225627  0.11988695  0.98113496  1
  O  O228  1  0.25225543  0.59071550  0.45931235  1
  O  O229  1  0.24737483  0.64215706  1.00751744  1
  O  O230  1  0.74819904  0.12023241  0.48115450  1
  O  O231  1  0.73782796  0.11923258  1.00990218  1
  O  O232  1  0.73821065  0.62838071  0.49765991  1
  O  O233  1  0.75591302  0.60370290  0.99057743  1
  O  O234  1  0.24918627  0.38168963  0.01349294  1
  O  O235  1  0.23908688  0.36323973  0.50544014  1
  O  O236  1  0.25164511  0.86659550  0.00220296  1
  O  O237  1  0.27573610  0.88514206  0.49334003  1
  O  O238  1  0.73827767  0.37384392  0.01485574  1
  O  O239  1  0.77070817  0.40166089  0.50075471  1
  O  O240  1  0.73696568  0.87062256  0.00837390  1
  O  O241  1  0.75267589  0.86782915  0.50875866  1
  O  O242  1  0.11265672  0.48591863  0.22026717  1
  O  O243  1  0.13640332  0.49080546  0.74668296  1
  O  O244  1  0.10793777  0.96330350  0.25913391  1
  O  O245  1  0.14148503  1.01347776  0.73325243  1
  O  O246  1  0.62540891  0.48601749  0.25052029  1
  O  O247  1  0.63238030  0.49203966  0.74524836  1
  O  O248  1  0.64067657  0.99349073  0.25312111  1
  O  O249  1  0.63015160  0.98984119  0.73590843  1
  O  O250  1  0.39037293  0.00385546  0.26406397  1
  O  O251  1  0.36859996  0.00813071  0.74430994  1
  O  O252  1  0.41279241  0.51897688  0.26053690  1
  O  O253  1  0.35802260  0.50218415  0.74699191  1
  O  O254  1  0.86720134  0.00380982  0.25576565  1
  O  O255  1  0.85120581  -0.00942533  0.75557264  1
  O  O256  1  0.84667729  0.51339916  0.24259312  1
  O  O257  1  0.85875948  0.49666233  0.73893428  1
  O  O258  1  0.12082692  0.37136978  0.36087669  1
  O  O259  1  0.14199139  0.37237290  0.86676028  1
  O  O260  1  0.08618691  0.85327751  0.38866590  1
  O  O261  1  0.12584303  0.86216753  0.90168528  1
  O  O262  1  0.61154901  0.37259865  0.36593668  1
  O  O263  1  0.61445007  0.36617338  0.86842180  1
  O  O264  1  0.62145032  0.87922185  0.38946078  1
  O  O265  1  0.62505542  0.86770184  0.85880507  1
  O  O266  1  0.37048745  0.13391690  0.13498150  1
  O  O267  1  0.36965950  0.13886621  0.62809398  1
  O  O268  1  0.38485046  0.64813836  0.16139606  1
  O  O269  1  0.37778360  0.63664905  0.61965630  1
  O  O270  1  0.88459674  0.12821466  0.13735415  1
  O  O271  1  0.88324554  0.11719217  0.62199297  1
  O  O272  1  0.87579586  0.62317690  0.12656309  1
  O  O273  1  0.88635595  0.63047863  0.63571481  1
  O  O274  1  0.26450236  0.25657270  0.11920998  1
  O  O275  1  0.25947583  0.25889406  0.61442249  1
  O  O276  1  0.26063940  0.76177870  0.11134057  1
  O  O277  1  0.26470483  0.74620792  0.62781471  1
  O  O278  1  0.74878561  0.24780447  0.11806317  1
  O  O279  1  0.77874315  0.27976730  0.63019226  1
  O  O280  1  0.69670576  0.70269906  0.10206877  1
  O  O281  1  0.75241193  0.75393968  0.62150378  1
  O  O282  1  0.24526927  0.24115569  0.37982194  1
  O  O283  1  0.28474225  0.23476767  0.88005226  1
  O  O284  1  0.24036875  0.77231678  0.37009489  1
  O  O285  1  0.25425800  0.73807392  0.88623202  1
  O  O286  1  0.74485141  0.23144030  0.35766213  1
  O  O287  1  0.73881796  0.24427408  0.89696739  1
  O  O288  1  0.75219857  0.73951823  0.39366375  1
  O  O289  1  0.74199796  0.73401038  0.87992614  1
  O  O290  1  0.01423981  0.12526462  0.00663639  1
  O  O291  1  0.00829435  0.12078372  0.49327395  1
  O  O292  1  0.00231944  0.63909476  0.00568643  1
  O  O293  1  0.01038967  0.63576951  0.52691174  1
  O  O294  1  0.56346923  0.13211994  0.08603682  1
  O  O295  1  0.49678025  0.11343775  0.49886293  1
  O  O296  1  0.44526274  0.57603370  0.02124225  1
  O  O297  1  0.50188904  0.61340954  0.50632676  1
  O  O298  1  0.50545441  0.38058325  0.49564727  1
  O  O299  1  0.50659985  0.36879635  0.98421558  1
  O  O300  1  0.49775183  0.88535085  0.49572162  1
  O  O301  1  0.54098549  0.94398050  1.04444026  1
  O  O302  1  1.00656499  0.37237238  0.47327294  1
  O  O303  1  1.04730553  0.42619423  1.02215480  1
  O  O304  1  0.97745991  0.87491689  0.49385484  1
  O  O305  1  0.99646294  0.91512317  0.99016863  1
  O  O306  1  0.50321468  0.49025223  0.39551631  1
  O  O307  1  0.49911660  0.48565636  0.86968378  1
  O  O308  1  0.49695465  0.99488254  0.39098735  1
  O  O309  1  0.49207982  0.99459673  0.85518406  1
  O  O310  1  1.00594502  0.48606451  0.35963978  1
  O  O311  1  0.99952543  0.48612302  0.87659126  1
  O  O312  1  0.98384822  0.99531802  0.38725572  1
  O  O313  1  1.00149386  1.01398090  0.85584976  1
  O  O314  1  -0.00306679  0.01211105  0.13245009  1
  O  O315  1  0.00150796  -0.01277885  0.61052570  1
  O  O316  1  -0.01406799  0.50216312  0.13368257  1
  O  O317  1  0.01105437  0.50923081  0.63409589  1
  O  O318  1  0.50706389  -0.02205656  0.10539167  1
  O  O319  1  0.51122988  -0.00014879  0.61518107  1
  O  O320  1  0.57892130  0.49594039  0.06072137  1
  O  O321  1  0.50725356  0.50301704  0.61826679  1
  O  O322  1  0.24053981  0.37178302  0.23899163  1
  O  O323  1  0.24581961  0.38308820  0.73873957  1
  O  O324  1  0.25032886  0.88017325  0.22086196  1
  O  O325  1  0.24930913  0.89254791  0.74914690  1
  O  O326  1  0.73822301  0.37807051  0.24980055  1
  O  O327  1  0.73893438  0.38343767  0.76560410  1
  O  O328  1  0.74836302  0.89132504  0.25150488  1
  O  O329  1  0.73725150  0.87989886  0.74309928  1
  O  O330  1  0.26179430  0.12862822  0.25945010  1
  O  O331  1  0.26470137  0.12383981  0.75423619  1
  O  O332  1  0.23718734  0.61898952  0.23825552  1
  O  O333  1  0.24490086  0.61977253  0.76566849  1
  O  O334  1  0.75855379  0.11400537  0.25774722  1
  O  O335  1  0.74788950  0.11259536  0.74615221  1
  O  O336  1  0.73070515  0.61477008  0.25609712  1
  O  O337  1  0.75124599  0.61066125  0.75411138  1
  O  O338  1  0.36828308  0.11673696  0.36908681  1
  O  O339  1  0.37557248  0.11305187  0.85614794  1
  O  O340  1  0.38334018  0.65703406  0.33706630  1
  O  O341  1  0.36261255  0.61529172  0.87690226  1
  O  O342  1  0.87662892  0.11640998  0.36320008  1
  O  O343  1  0.94036641  0.19016115  0.81294215  1
  O  O344  1  0.85068175  0.62586972  0.35083571  1
  O  O345  1  0.85898370  0.62668613  0.87413660  1
  O  O346  1  0.13847347  0.37994294  0.12565676  1
  O  O347  1  0.13533548  0.38558912  0.62971790  1
  O  O348  1  0.13412566  0.88210040  0.11310791  1
  O  O349  1  0.13369940  0.87572091  0.56274448  1
  O  O350  1  0.63527742  0.36333847  0.13849329  1
  O  O351  1  0.62038415  0.38473773  0.63775304  1
  O  O352  1  0.61859341  0.86224096  0.14463281  1
  O  O353  1  0.63375761  0.87488636  0.62991244  1
  O  O354  1  0.11943157  0.25680403  0.24787886  1
  O  O355  1  0.14295887  0.26149975  0.74936810  1
  O  O356  1  0.11780232  0.78348286  0.24441977  1
  O  O357  1  0.11691750  0.75597283  0.74815003  1
  O  O358  1  0.60934045  0.25396112  0.24525701  1
  O  O359  1  0.61723244  0.25845353  0.75952547  1
  O  O360  1  0.65024858  0.77263586  0.26803418  1
  O  O361  1  0.62414684  0.76050945  0.74664324  1
  O  O362  1  0.38064426  0.23782359  0.24342903  1
  O  O363  1  0.38595166  0.24533536  0.73711028  1
  O  O364  1  0.40800743  0.78785122  0.24023389  1
  O  O365  1  0.37499960  0.74953243  0.73726436  1
  O  O366  1  0.88258455  0.23786659  0.24359927  1
  O  O367  1  0.87837932  0.23716565  0.77225155  1
  O  O368  1  0.84344070  0.73288538  0.23613441  1
  O  O369  1  0.86575130  0.75225294  0.74161141  1
  O  O370  1  0.39097079  0.49485685  0.51341481  1
  O  O371  1  0.40175528  0.51557155  1.01093295  1
  O  O372  1  0.38948572  0.99315136  0.49755663  1
  O  O373  1  0.38916304  1.00766649  0.97529057  1
  O  O374  1  0.88505953  0.54708516  0.48628425  1
  O  O375  1  0.89116840  0.46674077  1.00693767  1
  O  O376  1  0.87564842  0.98922559  0.49415159  1
  O  O377  1  0.89602612  1.04311512  0.97113306  1
  O  O378  1  0.11416531  0.02305636  -0.02365800  1
  O  O379  1  0.11450430  0.01918406  0.50025174  1
  O  O380  1  0.14511403  0.52966667  0.02339300  1
  O  O381  1  0.12398131  0.50251646  0.51633403  1
  O  O382  1  0.58955934  -0.00726109  0.00389748  1
  O  O383  1  0.61593166  0.00121374  0.51171540  1
  O  O384  1  0.61531493  0.51568776  -0.00083811  1
  O  O385  1  0.61667394  0.50580336  0.51174700  1
  O  O386  1  0.36478958  0.36200101  0.13085099  1
  O  O387  1  0.36384624  0.36642367  0.62855683  1
  O  O388  1  0.36888187  0.89275855  0.11282106  1
  O  O389  1  0.38361656  0.86280510  0.61372560  1
  O  O390  1  0.85380242  0.35503068  0.13870249  1
  O  O391  1  0.92796269  0.34280127  0.62497936  1
  O  O392  1  0.86946546  0.91786046  0.08676590  1
  O  O393  1  0.86125994  0.86869664  0.62100996  1
  O  O394  1  0.13186127  0.12706475  0.37491639  1
  O  O395  1  0.14986463  0.13544566  0.86905204  1
  O  O396  1  0.11494022  0.62933717  0.35883413  1
  O  O397  1  0.13117634  0.61912658  0.89773052  1
  O  O398  1  0.63289770  0.11783344  0.36925396  1
  O  O399  1  0.61091067  0.13873674  0.87370896  1
  O  O400  1  0.62995182  0.61938013  0.39038922  1
  O  O401  1  0.64379676  0.61870643  0.87603252  1
