# generated using pymatgen
data_V73Zn73O256
_symmetry_space_group_name_H-M   'P 1'
_cell_length_a   16.86192590
_cell_length_b   16.90749324
_cell_length_c   16.90520840
_cell_angle_alpha   89.90045519
_cell_angle_beta   90.02403989
_cell_angle_gamma   90.00671803
_symmetry_Int_Tables_number   1
_chemical_formula_structural   V73Zn73O256
_chemical_formula_sum   'V73 Zn73 O256'
_cell_volume   4819.54712575
_cell_formula_units_Z   1
loop_
 _symmetry_equiv_pos_site_id
 _symmetry_equiv_pos_as_xyz
  1  'x, y, z'
loop_
 _atom_site_type_symbol
 _atom_site_label
 _atom_site_symmetry_multiplicity
 _atom_site_fract_x
 _atom_site_fract_y
 _atom_site_fract_z
 _atom_site_occupancy
  V  V0  1  0.72863392  0.73186771  0.49264783  1
  V  V1  1  0.86507459  0.50909018  0.36638084  1
  V  V2  1  0.23626121  0.38514125  0.13808497  1
  V  V3  1  0.14064447  0.12115965  0.00718550  1
  V  V4  1  0.62630108  0.49478984  0.13906909  1
  V  V5  1  0.11636804  0.01155488  0.63418440  1
  V  V6  1  0.75270889  0.36996675  0.61682449  1
  V  V7  1  0.11347243  0.87124593  0.75331691  1
  V  V8  1  0.24948276  0.62505814  0.85240438  1
  V  V9  1  0.37947129  0.24521624  0.13379913  1
  V  V10  1  0.86405104  0.02031920  0.87292634  1
  V  V11  1  0.76122627  0.36946586  0.13087690  1
  V  V12  1  0.25478950  0.37726217  0.63268432  1
  V  V13  1  0.74585768  0.24941418  -0.01044038  1
  V  V14  1  0.74466431  0.61621190  0.87582231  1
  V  V15  1  0.25873933  0.61612620  0.37477650  1
  V  V16  1  0.00100207  0.23604677  0.75843067  1
  V  V17  1  0.87099897  0.00577762  0.36977212  1
  V  V18  1  -0.01002773  0.64104974  0.62807888  1
  V  V19  1  0.24965452  0.75396077  0.51126684  1
  V  V20  1  0.48667956  0.50537999  0.49123763  1
  V  V21  1  0.24605038  0.88124742  0.63445041  1
  V  V22  1  0.62465446  0.37186223  0.74547590  1
  V  V23  1  0.36919484  -0.00610611  0.36270657  1
  V  V24  1  0.50401606  0.37167071  0.87065781  1
  V  V25  1  0.48524622  0.63103038  0.63353411  1
  V  V26  1  0.38065909  0.23655430  0.62278350  1
  V  V27  1  0.87128989  0.87073316  0.50740743  1
  V  V28  1  0.01111072  0.37958911  0.36877801  1
  V  V29  1  0.52075472  0.87090728  0.34482149  1
  V  V30  1  0.62472379  0.50724918  0.61341554  1
  V  V31  1  0.86745070  0.35666167  0.48648738  1
  V  V32  1  0.00019251  0.25362571  0.24530768  1
  V  V33  1  0.49421888  0.62847230  0.14137442  1
  V  V34  1  0.48003043  0.37223508  0.37782576  1
  V  V35  1  0.00300604  0.12619789  0.12555468  1
  V  V36  1  -0.00419536  0.75277228  0.23462874  1
  V  V37  1  -0.00562664  0.87295441  0.87408307  1
  V  V38  1  0.88019747  0.38333307  -0.01183586  1
  V  V39  1  0.12196926  0.62533505  0.50684679  1
  V  V40  1  0.12496208  0.75301028  0.37637660  1
  V  V41  1  0.38401588  0.87376395  -0.00113348  1
  V  V42  1  -0.00452518  0.49610490  0.50634553  1
  V  V43  1  0.58858783  0.08640262  0.00646573  1
  V  V44  1  0.00253403  0.39453816  0.87596044  1
  V  V45  1  0.00170228  0.87978412  0.37511577  1
  V  V46  1  0.87395181  0.63542746  0.75110120  1
  V  V47  1  0.88094433  0.23408395  0.63118124  1
  V  V48  1  0.74881699  0.74096459  0.00457712  1
  V  V49  1  0.37233020  0.50515505  0.85955280  1
  V  V50  1  0.13367759  0.88853783  0.24246858  1
  V  V51  1  0.39052810  -0.00350817  0.86454425  1
  V  V52  1  0.12617407  0.25207444  0.37072153  1
  V  V53  1  0.24801315  0.73566906  0.00964876  1
  V  V54  1  0.64648548  0.13523479  0.50214499  1
  V  V55  1  0.50992079  0.50660990  -0.00352870  1
  V  V56  1  0.37326723  0.88393068  0.50811536  1
  V  V57  1  0.75767846  0.49358114  0.75093831  1
  V  V58  1  0.00170223  0.00400721  0.00565039  1
  V  V59  1  0.87250352  0.12780164  0.24439603  1
  V  V60  1  0.73625437  0.00189898  0.24486353  1
  V  V61  1  0.37153343  0.37360802  -0.00024627  1
  V  V62  1  0.25368091  0.11415479  0.85743164  1
  V  V63  1  0.62549402  -0.00235952  0.63758717  1
  V  V64  1  0.49933316  0.23769784  0.74724242  1
  V  V65  1  0.25454988  0.25230906  0.49899467  1
  V  V66  1  0.61941092  0.75842263  0.86104157  1
  V  V67  1  -0.00262191  0.01402054  0.50517310  1
  V  V68  1  0.73342886  0.87853517  0.12717711  1
  V  V69  1  0.62674398  0.36205617  0.25904249  1
  V  V70  1  0.25550598  0.89362476  0.12397533  1
  V  V71  1  0.87444404  0.87597476  0.01043423  1
  V  V72  1  0.25277338  0.12125715  0.36199371  1
  Zn  Zn73  1  0.87561959  0.63465356  0.25088414  1
  Zn  Zn74  1  0.12960442  0.49685163  0.63051969  1
  Zn  Zn75  1  0.11633480  0.73553268  0.87712345  1
  Zn  Zn76  1  0.12826148  0.37915163  0.75414531  1
  Zn  Zn77  1  0.50042985  0.24439179  0.25129281  1
  Zn  Zn78  1  0.12978203  0.25153812  0.87613475  1
  Zn  Zn79  1  0.25253449  0.24972655  -0.00155240  1
  Zn  Zn80  1  0.12245411  0.12877435  0.50216225  1
  Zn  Zn81  1  0.73677138  0.86871339  0.63657825  1
  Zn  Zn82  1  0.19283665  0.19511134  0.18114036  1
  Zn  Zn83  1  0.18495014  0.19592523  0.68946529  1
  Zn  Zn84  1  0.19034360  0.68612022  0.19584650  1
  Zn  Zn85  1  0.17874448  0.69237959  0.69073578  1
  Zn  Zn86  1  0.68281653  0.18361889  0.17151131  1
  Zn  Zn87  1  0.68714896  0.18773842  0.67892743  1
  Zn  Zn88  1  0.70165046  0.66627727  0.16838951  1
  Zn  Zn89  1  0.69104752  0.69089339  0.67839631  1
  Zn  Zn90  1  0.30651365  0.32235667  0.30770814  1
  Zn  Zn91  1  0.31655400  0.30360105  0.81297473  1
  Zn  Zn92  1  0.31432453  0.80909737  0.31983609  1
  Zn  Zn93  1  0.30271973  0.82036210  0.81939551  1
  Zn  Zn94  1  0.81926681  0.31917900  0.31095807  1
  Zn  Zn95  1  0.81229831  0.20035631  0.81580995  1
  Zn  Zn96  1  0.80763955  0.81741157  0.31581364  1
  Zn  Zn97  1  0.79602105  0.81218846  0.81673837  1
  Zn  Zn98  1  0.18886365  0.43672170  0.44683836  1
  Zn  Zn99  1  0.18277568  0.44860374  0.94161506  1
  Zn  Zn100  1  0.18543340  0.94116114  0.44103998  1
  Zn  Zn101  1  0.19034515  0.93928866  0.94105196  1
  Zn  Zn102  1  0.68547056  0.44361550  0.43272451  1
  Zn  Zn103  1  0.69088507  0.42654409  0.93617993  1
  Zn  Zn104  1  0.68619020  0.94151801  0.43765749  1
  Zn  Zn105  1  0.68110488  0.93483070  0.93964584  1
  Zn  Zn106  1  0.38926075  0.06562352  0.05748952  1
  Zn  Zn107  1  0.30304720  0.06518767  0.56159172  1
  Zn  Zn108  1  0.31594363  0.55803515  0.06027486  1
  Zn  Zn109  1  0.31335347  0.56237163  0.56234935  1
  Zn  Zn110  1  0.81108910  0.06467773  0.06335362  1
  Zn  Zn111  1  0.80330687  0.05844614  0.56259044  1
  Zn  Zn112  1  0.81622397  0.55866883  0.07548054  1
  Zn  Zn113  1  0.81226100  0.56050734  0.55833552  1
  Zn  Zn114  1  0.44028735  0.43420173  0.18543696  1
  Zn  Zn115  1  0.43636752  0.43151992  0.67722626  1
  Zn  Zn116  1  0.43264573  0.80118568  0.18581182  1
  Zn  Zn117  1  0.44690903  1.05232382  0.69123857  1
  Zn  Zn118  1  0.94790916  0.44435224  0.18714198  1
  Zn  Zn119  1  0.93585917  0.42702931  0.68816578  1
  Zn  Zn120  1  0.93986174  0.93862428  0.18751134  1
  Zn  Zn121  1  0.89466859  0.92069502  0.71175042  1
  Zn  Zn122  1  0.06421650  0.06788874  0.31361944  1
  Zn  Zn123  1  0.06369470  0.05905705  0.82405748  1
  Zn  Zn124  1  0.04254590  0.58305799  0.32773232  1
  Zn  Zn125  1  0.06539092  0.56021457  0.80420756  1
  Zn  Zn126  1  0.50808508  -0.00056939  0.49718108  1
  Zn  Zn127  1  0.67267728  0.07068896  0.82353621  1
  Zn  Zn128  1  0.42418485  0.56011794  0.31300407  1
  Zn  Zn129  1  0.56562292  0.56207596  0.80677247  1
  Zn  Zn130  1  0.43233812  0.18797100  0.42945193  1
  Zn  Zn131  1  0.43933031  0.18469409  0.93029169  1
  Zn  Zn132  1  0.44352661  0.69837495  0.44624128  1
  Zn  Zn133  1  0.43418476  0.68988555  0.93563014  1
  Zn  Zn134  1  0.91918422  0.19579133  0.43034296  1
  Zn  Zn135  1  0.93647387  0.20135512  0.95069992  1
  Zn  Zn136  1  0.93253057  0.69193490  0.43841074  1
  Zn  Zn137  1  0.92095313  0.69357685  0.92625400  1
  Zn  Zn138  1  0.06252583  0.31009122  0.05616632  1
  Zn  Zn139  1  0.06010373  0.30841836  0.56373923  1
  Zn  Zn140  1  0.07257966  0.81515146  0.05619298  1
  Zn  Zn141  1  0.05800463  0.82030140  0.56371217  1
  Zn  Zn142  1  0.56269868  0.30953621  0.06250009  1
  Zn  Zn143  1  0.56288271  0.31282402  0.55458725  1
  Zn  Zn144  1  0.56798835  0.80319464  0.05552918  1
  Zn  Zn145  1  0.56576149  0.81029210  0.56511713  1
  O  O146  1  0.11908210  0.12812094  0.11596493  1
  O  O147  1  0.12834587  0.11380555  0.62556859  1
  O  O148  1  0.12343510  0.60081180  0.13232267  1
  O  O149  1  0.10943595  0.62616127  0.62104361  1
  O  O150  1  0.62570008  0.12370859  0.09537738  1
  O  O151  1  0.63375402  0.11555969  0.60887156  1
  O  O152  1  0.61384828  0.60363424  0.12916490  1
  O  O153  1  0.62167026  0.60751018  0.62820748  1
  O  O154  1  0.38070300  0.37842177  0.37595925  1
  O  O155  1  0.38338657  0.38243071  0.87849280  1
  O  O156  1  0.34327293  0.88843129  0.39761942  1
  O  O157  1  0.36599013  0.88575744  0.88607431  1
  O  O158  1  0.89311495  0.39758395  0.37266952  1
  O  O159  1  0.88666457  0.38710740  0.88607784  1
  O  O160  1  0.88660825  0.88701636  0.38023437  1
  O  O161  1  0.88469434  0.88580569  0.88700854  1
  O  O162  1  0.25039052  0.01533514  0.38070126  1
  O  O163  1  0.24998877  0.01049374  0.87365897  1
  O  O164  1  0.24725758  0.51814614  0.39497108  1
  O  O165  1  0.26448707  0.51037026  0.87395309  1
  O  O166  1  0.76287932  -0.01035573  0.35531467  1
  O  O167  1  0.76092064  0.00241351  0.88365881  1
  O  O168  1  0.76578330  0.49993249  0.37025551  1
  O  O169  1  0.74227379  0.50211640  0.86158897  1
  O  O170  1  0.25431604  0.48317569  0.11686720  1
  O  O171  1  0.25354191  0.48028401  0.61670757  1
  O  O172  1  0.25730344  0.98911415  0.12355315  1
  O  O173  1  0.22723793  0.99016024  0.61810750  1
  O  O174  1  0.73001861  0.48074552  0.11456729  1
  O  O175  1  0.73993389  0.49395732  0.62811352  1
  O  O176  1  0.75150501  0.98808639  0.13072588  1
  O  O177  1  0.73519583  0.99355789  0.62339013  1
  O  O178  1  0.00081864  0.36717598  0.25854444  1
  O  O179  1  -0.00240245  0.37358238  0.76862385  1
  O  O180  1  0.01122432  0.87106843  0.25693771  1
  O  O181  1  -0.00482147  0.88186164  0.76830352  1
  O  O182  1  0.51203052  0.37635851  0.26385973  1
  O  O183  1  0.50647952  0.37257794  0.75298104  1
  O  O184  1  0.50519671  0.86919873  0.24525057  1
  O  O185  1  0.45902908  0.81536445  0.74230264  1
  O  O186  1  0.50404750  0.11113942  0.25734331  1
  O  O187  1  0.50488963  0.13992124  0.74981129  1
  O  O188  1  0.49423416  0.61895430  0.24103984  1
  O  O189  1  0.50046885  0.61680814  0.73317233  1
  O  O190  1  0.99654753  0.13198788  0.24351564  1
  O  O191  1  1.00843373  0.13722219  0.75895554  1
  O  O192  1  1.00066090  0.64701309  0.24778623  1
  O  O193  1  0.98677608  0.61975635  0.73802238  1
  O  O194  1  0.37944322  0.26302185  0.00301551  1
  O  O195  1  0.37003137  0.24081408  0.51249349  1
  O  O196  1  0.35672119  0.76225012  -0.01174615  1
  O  O197  1  0.35551422  0.76603085  0.50035873  1
  O  O198  1  0.86810939  0.27373760  0.00764794  1
  O  O199  1  0.90921031  0.25607847  0.52892881  1
  O  O200  1  0.85852251  0.76413871  -0.00853611  1
  O  O201  1  0.88272764  0.76958393  0.50031727  1
  O  O202  1  0.12918782  0.24740652  0.48807309  1
  O  O203  1  0.12766039  0.23196862  0.99614088  1
  O  O204  1  0.12556003  0.74588533  0.49686106  1
  O  O205  1  0.14211394  0.75433310  0.98912970  1
  O  O206  1  0.63271045  0.23659966  0.51007166  1
  O  O207  1  0.64367874  0.26605259  0.99842791  1
  O  O208  1  0.62839287  0.74889868  0.48873781  1
  O  O209  1  0.64460742  0.75072641  0.98706225  1
  O  O210  1  0.48540991  0.25525299  0.12856071  1
  O  O211  1  0.48675617  0.25528679  0.62889272  1
  O  O212  1  0.50883747  0.73274974  0.12521756  1
  O  O213  1  0.50594135  0.72815605  0.61557297  1
  O  O214  1  1.00800610  0.24234671  0.13681753  1
  O  O215  1  0.99460204  0.25852343  0.64767907  1
  O  O216  1  1.00629237  0.76320903  0.13621824  1
  O  O217  1  0.99804144  0.73931000  0.62294186  1
  O  O218  1  0.00714510  0.25956671  0.36776877  1
  O  O219  1  -0.00069609  0.25612522  0.86668634  1
  O  O220  1  0.01048748  0.76216786  0.37560448  1
  O  O221  1  0.00006337  0.76869150  0.88640326  1
  O  O222  1  0.49020711  0.26604367  0.36900488  1
  O  O223  1  0.49071784  0.25906632  0.85672511  1
  O  O224  1  0.48414887  0.78237828  0.38100196  1
  O  O225  1  0.52096447  0.73972884  0.88150466  1
  O  O226  1  0.24548874  0.13782097  0.49108197  1
  O  O227  1  0.24074457  0.11961759  1.00556033  1
  O  O228  1  0.23826772  0.63516643  0.50448566  1
  O  O229  1  0.25792682  0.63438970  0.99308797  1
  O  O230  1  0.74585058  0.12186134  0.48308468  1
  O  O231  1  0.76438981  0.15066823  1.00839261  1
  O  O232  1  0.74705448  0.63128365  0.49929910  1
  O  O233  1  0.76275132  0.63487970  0.99391203  1
  O  O234  1  0.26657804  0.37598795  -0.01089197  1
  O  O235  1  0.24876869  0.35780809  0.50669211  1
  O  O236  1  0.24791022  0.86893665  0.01434075  1
  O  O237  1  0.24118491  0.87058198  0.51495342  1
  O  O238  1  0.76207924  0.37233188  0.01006202  1
  O  O239  1  0.75669913  0.38581895  0.50862365  1
  O  O240  1  0.75556718  0.87204172  0.01183522  1
  O  O241  1  0.76797313  0.88102010  0.50049083  1
  O  O242  1  0.09029037  0.54102241  0.17177092  1
  O  O243  1  0.12573402  0.49190998  0.74133243  1
  O  O244  1  0.12174481  0.98664335  0.25466338  1
  O  O245  1  0.11049443  0.99355431  0.73784320  1
  O  O246  1  0.62606073  0.48400247  0.23884113  1
  O  O247  1  0.63109943  0.48918869  0.73620894  1
  O  O248  1  0.64158490  1.00685949  0.25249815  1
  O  O249  1  0.62005470  1.01246736  0.73727635  1
  O  O250  1  0.36556737  -0.01490838  0.26789398  1
  O  O251  1  0.37929213  -0.00356723  0.76251317  1
  O  O252  1  0.36946213  0.48551903  0.25225179  1
  O  O253  1  0.38137423  0.49218162  0.76195815  1
  O  O254  1  0.87790332  0.00919872  0.25468254  1
  O  O255  1  0.88474303  0.01477396  0.77538340  1
  O  O256  1  0.89197129  0.50797980  0.26469646  1
  O  O257  1  0.86075443  0.50107121  0.73956035  1
  O  O258  1  0.11969780  0.36735954  0.38137933  1
  O  O259  1  0.11410440  0.37366178  0.88138412  1
  O  O260  1  0.12242954  0.87134617  0.36766992  1
  O  O261  1  0.10830632  0.88774110  0.86857787  1
  O  O262  1  0.63135322  0.37347146  0.36049579  1
  O  O263  1  0.61380286  0.37959377  0.85959477  1
  O  O264  1  0.61877204  0.87937381  0.36830531  1
  O  O265  1  0.63556233  0.85825234  0.86948234  1
  O  O266  1  0.36208442  0.14600741  0.12643128  1
  O  O267  1  0.37428836  0.13141032  0.62815113  1
  O  O268  1  0.39723714  0.61562894  0.11609706  1
  O  O269  1  0.38424016  0.62378884  0.62455571  1
  O  O270  1  0.89037437  0.12194607  0.13457577  1
  O  O271  1  0.87075446  0.13608951  0.62129074  1
  O  O272  1  0.95287400  0.62062782  0.07149222  1
  O  O273  1  0.88368448  0.62162232  0.63159694  1
  O  O274  1  0.26165051  0.26718059  0.11874092  1
  O  O275  1  0.26073419  0.25072108  0.61832649  1
  O  O276  1  0.24273003  0.74184706  0.11183426  1
  O  O277  1  0.23346691  0.76707718  0.62071330  1
  O  O278  1  0.74790890  0.26762465  0.11924747  1
  O  O279  1  0.76989758  0.26049078  0.62977745  1
  O  O280  1  0.74428098  0.76164840  0.11055590  1
  O  O281  1  0.74278413  0.75685188  0.60104663  1
  O  O282  1  0.24697904  0.24369593  0.37850326  1
  O  O283  1  0.25396146  0.23156075  0.87983475  1
  O  O284  1  0.23688566  0.74354722  0.38974299  1
  O  O285  1  0.25100680  0.73379691  0.87477585  1
  O  O286  1  0.82669935  0.28096561  0.41936638  1
  O  O287  1  0.75816725  0.26553714  0.88982637  1
  O  O288  1  0.76124594  0.75577955  0.39636702  1
  O  O289  1  0.74548213  0.73741713  0.88335642  1
  O  O290  1  0.00469284  0.12266123  0.00998064  1
  O  O291  1  -0.00252678  0.11463403  0.48706648  1
  O  O292  1  -0.01003669  0.63252309  0.00754371  1
  O  O293  1  0.00146579  0.62000888  0.51175958  1
  O  O294  1  0.48450758  0.11371007  0.00791148  1
  O  O295  1  0.52220223  0.11973491  0.46373383  1
  O  O296  1  0.50075153  0.60720655  -0.00372855  1
  O  O297  1  0.49605993  0.61093526  0.50498634  1
  O  O298  1  0.50766189  0.38455247  0.48233692  1
  O  O299  1  0.49281342  0.37759712  0.98752415  1
  O  O300  1  0.47308192  0.87187106  0.51517695  1
  O  O301  1  0.48213111  0.86048360  1.00546776  1
  O  O302  1  0.99139202  0.37963994  0.48885972  1
  O  O303  1  0.99132180  0.37014582  0.98932401  1
  O  O304  1  0.99823866  0.88826958  0.48837736  1
  O  O305  1  0.99691702  0.88526434  0.99622063  1
  O  O306  1  0.49588663  0.49436861  0.38519236  1
  O  O307  1  0.49454635  0.49389194  0.88013695  1
  O  O308  1  0.47611933  0.96867960  0.38097287  1
  O  O309  1  0.48567692  1.00224566  0.87736898  1
  O  O310  1  1.00990639  0.49478122  0.38786140  1
  O  O311  1  1.00543072  0.49363444  0.87830006  1
  O  O312  1  0.99578858  0.99537948  0.37965311  1
  O  O313  1  0.98928467  0.99714840  0.89032353  1
  O  O314  1  -0.00032900  0.01031839  0.11587936  1
  O  O315  1  0.00649401  0.00578965  0.60975102  1
  O  O316  1  0.03279005  0.50376368  0.12788793  1
  O  O317  1  -0.00342195  0.49832964  0.61232134  1
  O  O318  1  0.49656687  0.06491047  0.20063849  1
  O  O319  1  0.51586357  0.01081549  0.61411526  1
  O  O320  1  0.50919460  0.49892361  0.11252321  1
  O  O321  1  0.50976860  0.50018835  0.61422752  1
  O  O322  1  0.23517051  0.37649627  0.23894945  1
  O  O323  1  0.25078933  0.36333932  0.73662990  1
  O  O324  1  0.23943299  0.87244626  0.24041642  1
  O  O325  1  0.23438590  0.87406762  0.74058363  1
  O  O326  1  0.74059712  0.36683987  0.24154794  1
  O  O327  1  0.73956659  0.38129452  0.73432435  1
  O  O328  1  0.75616320  0.88374403  0.23422210  1
  O  O329  1  0.78951551  0.88245494  0.73563822  1
  O  O330  1  0.24686276  0.13148918  0.26334815  1
  O  O331  1  0.24603157  0.12495694  0.75877451  1
  O  O332  1  0.23731747  0.62313955  0.27715545  1
  O  O333  1  0.25505547  0.63153322  0.75292748  1
  O  O334  1  0.76041398  0.11279752  0.23249638  1
  O  O335  1  0.73972097  0.13632994  0.76167110  1
  O  O336  1  0.80241085  0.61819587  0.17010332  1
  O  O337  1  0.75945043  0.61519030  0.75160541  1
  O  O338  1  0.36373828  0.10944672  0.37660905  1
  O  O339  1  0.36175702  0.10998757  0.88218994  1
  O  O340  1  0.36315453  0.63145968  0.38460043  1
  O  O341  1  0.37019243  0.61217984  0.87329098  1
  O  O342  1  0.87916129  0.11464638  0.35962899  1
  O  O343  1  0.87526097  0.12270954  0.88699699  1
  O  O344  1  0.88696498  0.61413948  0.37184220  1
  O  O345  1  0.86589526  0.61993654  0.85914945  1
  O  O346  1  0.13979149  0.37212526  0.10965615  1
  O  O347  1  0.14209832  0.36883745  0.62206651  1
  O  O348  1  0.13622967  0.87642204  0.13563920  1
  O  O349  1  0.12059505  0.88611050  0.63556982  1
  O  O350  1  0.62430493  0.37889400  0.13706227  1
  O  O351  1  0.63135785  0.38217105  0.62572287  1
  O  O352  1  0.63512783  0.87219737  0.12431141  1
  O  O353  1  0.62033820  0.89017685  0.62387768  1
  O  O354  1  0.11602384  0.24417971  0.26208743  1
  O  O355  1  0.11334823  0.25848030  0.75522768  1
  O  O356  1  0.11655366  0.75954311  0.26007922  1
  O  O357  1  0.11745155  0.76614638  0.75839206  1
  O  O358  1  0.62061058  0.25726736  0.24237704  1
  O  O359  1  0.60857012  0.26270166  0.73198497  1
  O  O360  1  0.65030998  0.72013882  0.26952571  1
  O  O361  1  0.63436949  0.74373282  0.76111445  1
  O  O362  1  0.37599249  0.25937766  0.23727776  1
  O  O363  1  0.38782471  0.24961107  0.73627837  1
  O  O364  1  0.35712944  0.74465349  0.24432376  1
  O  O365  1  0.40025282  0.77168379  0.75109719  1
  O  O366  1  0.88785488  0.23966805  0.25714010  1
  O  O367  1  0.88882747  0.24755607  0.74246425  1
  O  O368  1  0.89304128  0.75916541  0.25654819  1
  O  O369  1  0.87056789  0.73316823  0.75115929  1
  O  O370  1  0.38881508  0.49355574  0.50589410  1
  O  O371  1  0.38866464  0.48669833  0.99033736  1
  O  O372  1  0.37174509  0.99161180  0.50243351  1
  O  O373  1  0.37119318  0.98001467  0.99300778  1
  O  O374  1  0.88146024  0.49373951  0.48641583  1
  O  O375  1  0.87520760  0.48237468  1.01703670  1
  O  O376  1  0.88480148  0.99837868  0.48948962  1
  O  O377  1  0.88198427  0.99596199  0.99597866  1
  O  O378  1  0.11440864  0.01314491  -0.00373034  1
  O  O379  1  0.11055839  0.00352728  0.50619033  1
  O  O380  1  0.12971257  0.52737948  -0.00088226  1
  O  O381  1  0.11639833  0.51115252  0.50830800  1
  O  O382  1  0.60628550  -0.01393364  0.00826323  1
  O  O383  1  0.62619716  0.01037993  0.50440840  1
  O  O384  1  0.61129643  0.48648104  0.00044902  1
  O  O385  1  0.62001204  0.49788681  0.51003809  1
  O  O386  1  0.37088407  0.37110762  0.10924764  1
  O  O387  1  0.36271294  0.35908010  0.62400480  1
  O  O388  1  0.36238508  0.86876343  0.11234584  1
  O  O389  1  0.34814542  0.88331961  0.61866261  1
  O  O390  1  0.86263207  0.38211946  0.13686496  1
  O  O391  1  0.86714409  0.37266787  0.60947389  1
  O  O392  1  0.87412503  0.87956905  0.11351415  1
  O  O393  1  0.89309069  0.88788674  0.60393290  1
  O  O394  1  0.13588467  0.13353274  0.37726275  1
  O  O395  1  0.13928331  0.12322834  0.88684455  1
  O  O396  1  0.12505323  0.63510138  0.39140028  1
  O  O397  1  0.14279564  0.62090003  0.86534409  1
  O  O398  1  0.58512366  0.12421660  0.40681959  1
  O  O399  1  0.62429728  0.11726228  0.91627254  1
  O  O400  1  0.62686308  0.67366573  0.32221050  1
  O  O401  1  0.64071944  0.62628091  0.87007403  1
