# generated using pymatgen
data_V73Zn73O256
_symmetry_space_group_name_H-M   'P 1'
_cell_length_a   16.86539118
_cell_length_b   16.92149511
_cell_length_c   16.90650231
_cell_angle_alpha   90.11181695
_cell_angle_beta   90.03863370
_cell_angle_gamma   89.69875303
_symmetry_Int_Tables_number   1
_chemical_formula_structural   V73Zn73O256
_chemical_formula_sum   'V73 Zn73 O256'
_cell_volume   4824.82975904
_cell_formula_units_Z   1
loop_
 _symmetry_equiv_pos_site_id
 _symmetry_equiv_pos_as_xyz
  1  'x, y, z'
loop_
 _atom_site_type_symbol
 _atom_site_label
 _atom_site_symmetry_multiplicity
 _atom_site_fract_x
 _atom_site_fract_y
 _atom_site_fract_z
 _atom_site_occupancy
  V  V0  1  0.89375459  0.11815241  0.74170203  1
  V  V1  1  0.76200042  0.49498497  0.75462585  1
  V  V2  1  0.25024647  0.13101472  0.38224746  1
  V  V3  1  0.01257302  0.02006320  0.49889894  1
  V  V4  1  0.28173396  0.50423067  0.25886774  1
  V  V5  1  0.62508733  0.12687212  0.51661425  1
  V  V6  1  0.87994927  0.14127405  0.24850926  1
  V  V7  1  0.49764615  0.87259299  0.36662134  1
  V  V8  1  0.12396924  0.38082357  0.74887518  1
  V  V9  1  0.71040009  -0.02037376  0.77751105  1
  V  V10  1  0.48355739  0.61464588  0.63683031  1
  V  V11  1  0.73551101  0.00497450  0.25320348  1
  V  V12  1  0.02089096  0.87355120  0.87174345  1
  V  V13  1  0.25293361  0.11820193  0.87244986  1
  V  V14  1  0.63351096  0.38656858  0.26065454  1
  V  V15  1  0.87066513  0.50654465  0.36286278  1
  V  V16  1  0.62823186  0.85781011  0.25432489  1
  V  V17  1  0.74192825  0.25609076  0.49308864  1
  V  V18  1  0.11643610  0.25311001  0.87127303  1
  V  V19  1  0.86758139  0.65319518  0.25449700  1
  V  V20  1  0.62779905  -0.04119465  0.60387734  1
  V  V21  1  0.37186566  0.00076863  0.34229936  1
  V  V22  1  0.52421995  0.12869170  0.13060931  1
  V  V23  1  0.73829807  0.13297465  0.37651882  1
  V  V24  1  0.38563648  0.74904093  0.13606340  1
  V  V25  1  -0.00364404  0.14070099  0.12717606  1
  V  V26  1  0.24973075  0.37589269  0.62380826  1
  V  V27  1  0.50137663  0.24345566  0.76848565  1
  V  V28  1  0.25310128  0.88175587  0.60478418  1
  V  V29  1  0.62459404  0.36171047  0.76661961  1
  V  V30  1  0.37818950  0.36951951  0.49558397  1
  V  V31  1  0.13046007  0.00078619  0.13465234  1
  V  V32  1  0.49308061  0.49279321  0.49801787  1
  V  V33  1  0.48520921  0.00661243  0.49661629  1
  V  V34  1  0.11559324  0.62598078  -0.01403744  1
  V  V35  1  0.70042729  0.68823771  0.48974377  1
  V  V36  1  0.00496921  0.86484637  0.36459563  1
  V  V37  1  0.88153485  0.00601396  0.37328609  1
  V  V38  1  0.37792104  0.62046754  0.77662073  1
  V  V39  1  0.51706887  0.76264324  0.75899146  1
  V  V40  1  0.25675720  0.74284913  -0.01632920  1
  V  V41  1  -0.01052935  0.38313696  0.88557979  1
  V  V42  1  0.87386534  0.37967967  0.49812842  1
  V  V43  1  0.37604335  0.11416350  0.75473040  1
  V  V44  1  0.87530492  -0.00179413  0.87161869  1
  V  V45  1  0.13036958  0.25685437  0.37441100  1
  V  V46  1  0.36630223  0.14611686  0.22799409  1
  V  V47  1  0.01226391  0.49588721  0.51311042  1
  V  V48  1  0.12722872  0.01006273  0.64448021  1
  V  V49  1  0.61775665  0.49702908  0.63340950  1
  V  V50  1  0.12205448  0.12589216  0.00140272  1
  V  V51  1  0.25490267  0.25849116  0.00916414  1
  V  V52  1  0.01706554  0.74992568  0.75129742  1
  V  V53  1  0.24190532  0.63600590  0.38294683  1
  V  V54  1  0.11580845  0.50842509  0.13891434  1
  V  V55  1  0.74798950  0.36629258  0.62411786  1
  V  V56  1  0.87538762  0.86902039  0.50313856  1
  V  V57  1  0.87642844  0.63904746  0.74186606  1
  V  V58  1  0.63469368  0.49836059  0.10786967  1
  V  V59  1  0.75232656  0.23951519  -0.01486278  1
  V  V60  1  -0.00148355  -0.00474330  0.00107426  1
  V  V61  1  0.74787278  0.74580766  -0.00290792  1
  V  V62  1  0.75354193  0.88784145  0.11215906  1
  V  V63  1  0.76663489  0.36812000  0.11712232  1
  V  V64  1  0.25920066  0.49674407  0.77286422  1
  V  V65  1  0.73696178  0.63370406  0.86981886  1
  V  V66  1  0.50062827  0.00860660  -0.00326692  1
  V  V67  1  0.43646340  0.42160320  -0.05327197  1
  V  V68  1  0.51350607  0.62485346  0.10018561  1
  V  V69  1  0.37970905  0.24752958  0.62691572  1
  V  V70  1  0.00628479  0.37577505  0.35876813  1
  V  V71  1  0.12896952  0.85639976  0.24596025  1
  V  V72  1  0.05861365  0.67503716  0.57385440  1
  Zn  Zn73  1  0.43681771  0.67880851  0.31588754  1
  Zn  Zn74  1  0.39758949  0.87390867  -0.02781655  1
  Zn  Zn75  1  0.88663891  0.22614203  0.61895025  1
  Zn  Zn76  1  0.87930343  0.51585171  0.90458109  1
  Zn  Zn77  1  0.00605305  0.64744808  0.14085417  1
  Zn  Zn78  1  0.67048074  0.08499616  0.93532582  1
  Zn  Zn79  1  0.24632667  0.38168127  0.13080154  1
  Zn  Zn80  1  0.26778942  0.87852525  0.12242175  1
  Zn  Zn81  1  0.88656142  0.76788491  0.10431744  1
  Zn  Zn82  1  0.18363625  0.19195777  0.19346650  1
  Zn  Zn83  1  0.18923728  0.19074785  0.68665574  1
  Zn  Zn84  1  0.20238028  0.67636768  0.18556908  1
  Zn  Zn85  1  0.19730192  0.67885972  0.69898899  1
  Zn  Zn86  1  0.68913240  0.20376919  0.19426113  1
  Zn  Zn87  1  0.67716451  0.15233607  0.73442343  1
  Zn  Zn88  1  0.66032107  0.63283899  0.24028128  1
  Zn  Zn89  1  0.68480224  0.69284939  0.67608811  1
  Zn  Zn90  1  0.31047368  0.31481297  0.30874054  1
  Zn  Zn91  1  0.30920929  0.30562101  0.82050166  1
  Zn  Zn92  1  0.30674990  0.81126599  0.30914118  1
  Zn  Zn93  1  0.33065560  0.80927289  0.80266615  1
  Zn  Zn94  1  0.80893705  0.32553276  0.31012893  1
  Zn  Zn95  1  0.81574607  0.29967604  0.81033798  1
  Zn  Zn96  1  0.79479391  0.81453882  0.34943283  1
  Zn  Zn97  1  0.81946794  0.81862196  0.81622402  1
  Zn  Zn98  1  0.19120169  0.44286130  0.43079811  1
  Zn  Zn99  1  0.17778813  0.44243857  0.94771434  1
  Zn  Zn100  1  0.19206991  0.94038651  0.42650374  1
  Zn  Zn101  1  0.22973310  0.90797856  0.91046647  1
  Zn  Zn102  1  0.68683336  0.47215933  0.44339931  1
  Zn  Zn103  1  0.70136781  0.43587802  0.94116687  1
  Zn  Zn104  1  0.68574403  0.94071727  0.43339672  1
  Zn  Zn105  1  0.62697648  0.89775931  0.94559095  1
  Zn  Zn106  1  0.31210353  0.05792020  0.05219743  1
  Zn  Zn107  1  0.30283114  0.06936855  0.56876413  1
  Zn  Zn108  1  0.31120580  0.57079661  0.07244419  1
  Zn  Zn109  1  0.30142855  0.55125611  0.56792878  1
  Zn  Zn110  1  0.81406624  0.06554164  0.06523519  1
  Zn  Zn111  1  0.80807824  0.05110057  0.56572717  1
  Zn  Zn112  1  0.81527956  0.57421547  0.07978735  1
  Zn  Zn113  1  0.80953093  0.55928644  0.56269356  1
  Zn  Zn114  1  0.44651533  0.43462006  0.15960230  1
  Zn  Zn115  1  0.43512365  0.42709960  0.70420498  1
  Zn  Zn116  1  0.45112855  0.94126032  0.17560268  1
  Zn  Zn117  1  0.43770260  0.93376265  0.67425526  1
  Zn  Zn118  1  0.94144471  0.44675293  0.17729550  1
  Zn  Zn119  1  0.95594607  0.39343425  0.66939505  1
  Zn  Zn120  1  0.93742933  0.94217520  0.18913395  1
  Zn  Zn121  1  0.94748513  0.93500290  0.68262143  1
  Zn  Zn122  1  0.06533441  0.07248388  0.31305256  1
  Zn  Zn123  1  0.05766857  0.06818275  0.81414067  1
  Zn  Zn124  1  0.05607047  0.57271889  0.31729496  1
  Zn  Zn125  1  0.05819362  0.55871007  0.80977342  1
  Zn  Zn126  1  0.50150065  0.26717550  0.24999654  1
  Zn  Zn127  1  0.55125893  0.02870823  0.80523042  1
  Zn  Zn128  1  0.51189178  0.50299707  0.28644667  1
  Zn  Zn129  1  0.55834962  0.54465996  0.82666794  1
  Zn  Zn130  1  0.45496484  0.17369193  0.41182120  1
  Zn  Zn131  1  0.43842973  0.18891493  0.94944527  1
  Zn  Zn132  1  0.36981532  0.68596322  0.48239091  1
  Zn  Zn133  1  0.44527294  0.69581904  0.93802843  1
  Zn  Zn134  1  0.93561659  0.19681893  0.43181726  1
  Zn  Zn135  1  0.92920542  0.18648931  0.93684825  1
  Zn  Zn136  1  0.94010674  0.68502680  0.43443089  1
  Zn  Zn137  1  0.93209969  0.69241117  0.93165743  1
  Zn  Zn138  1  0.06666625  0.32249772  0.06497338  1
  Zn  Zn139  1  0.05712195  0.29092094  0.55460276  1
  Zn  Zn140  1  0.07476366  0.81053277  0.05485288  1
  Zn  Zn141  1  0.08103782  0.84551723  0.54356533  1
  Zn  Zn142  1  0.57319349  0.30556955  0.06428065  1
  Zn  Zn143  1  0.56045015  0.30850321  0.57045080  1
  Zn  Zn144  1  0.56948676  0.81493236  0.07155933  1
  Zn  Zn145  1  0.52921513  0.78782882  0.53859888  1
  O  O146  1  0.11738166  0.11920709  0.12069935  1
  O  O147  1  0.13621095  0.11171757  0.62745575  1
  O  O148  1  0.12360722  0.62213497  0.12138092  1
  O  O149  1  0.12771764  0.62368305  0.62579905  1
  O  O150  1  0.62374121  0.12641268  0.14078871  1
  O  O151  1  0.63153409  0.12488672  0.61556517  1
  O  O152  1  0.62101445  0.61526450  0.12843351  1
  O  O153  1  0.61279961  0.59852529  0.64433683  1
  O  O154  1  0.36638643  0.36488060  0.39831162  1
  O  O155  1  0.38038572  0.36988842  0.88093491  1
  O  O156  1  0.38082112  0.89174165  0.35023520  1
  O  O157  1  0.33921124  0.89185740  0.87457607  1
  O  O158  1  0.88662728  0.38187045  0.37934273  1
  O  O159  1  0.89141221  0.36585603  0.86402836  1
  O  O160  1  0.89485009  0.88889967  0.37095466  1
  O  O161  1  0.89389804  0.89228327  0.86923718  1
  O  O162  1  0.26694126  0.01233638  0.37543162  1
  O  O163  1  0.23547796  0.02179083  0.88225850  1
  O  O164  1  0.25741794  0.50510483  0.36409669  1
  O  O165  1  0.24929171  0.49229732  0.87089405  1
  O  O166  1  0.75855698  0.01542136  0.36834684  1
  O  O167  1  0.77327828  -0.00096995  0.87593191  1
  O  O168  1  0.77278662  0.49012056  0.37074698  1
  O  O169  1  0.75583537  0.51099418  0.86967263  1
  O  O170  1  0.24621576  0.51324405  0.14928521  1
  O  O171  1  0.25422519  0.47984447  0.64479948  1
  O  O172  1  0.23171601  0.99685537  0.11405113  1
  O  O173  1  0.23746335  0.99397972  0.62166531  1
  O  O174  1  0.74108532  0.49440976  0.12080737  1
  O  O175  1  0.73293914  0.48974248  0.63673674  1
  O  O176  1  0.75827925  0.99661592  0.14631917  1
  O  O177  1  0.72780923  0.97504324  0.59299050  1
  O  O178  1  -0.00105498  0.38126347  0.26098233  1
  O  O179  1  0.02066162  0.38086347  0.76353247  1
  O  O180  1  0.01135670  0.88234759  0.25777924  1
  O  O181  1  0.00353138  0.85985131  0.75549577  1
  O  O182  1  0.51264707  0.38927261  0.24091649  1
  O  O183  1  0.51452043  0.35868758  0.75681058  1
  O  O184  1  0.52008545  0.88314624  0.25196678  1
  O  O185  1  0.48907442  0.85864406  0.74124993  1
  O  O186  1  0.47668341  0.12761764  0.23050483  1
  O  O187  1  0.48431887  0.13275939  0.75440210  1
  O  O188  1  0.50064089  0.61538482  0.24321263  1
  O  O189  1  0.48706530  0.60305992  0.75285930  1
  O  O190  1  0.98732112  0.12702636  0.24454233  1
  O  O191  1  0.99331865  0.13262459  0.74290247  1
  O  O192  1  0.97883649  0.63218763  0.25639829  1
  O  O193  1  0.98645836  0.63740917  0.76120468  1
  O  O194  1  0.35358385  0.24414829  0.00187604  1
  O  O195  1  0.37915646  0.25883556  0.52209505  1
  O  O196  1  0.37163839  0.75805726  0.00228172  1
  O  O197  1  0.41812053  0.76679778  0.53335132  1
  O  O198  1  0.85811910  0.24041572  0.00334085  1
  O  O199  1  0.86576352  0.26477654  0.49960607  1
  O  O200  1  0.85341329  0.76214568  -0.01456420  1
  O  O201  1  0.89433237  0.77005805  0.49589884  1
  O  O202  1  0.12198813  0.24726494  0.47908676  1
  O  O203  1  0.12674235  0.24076425  0.99205201  1
  O  O204  1  0.10561538  0.73838862  0.51280350  1
  O  O205  1  0.14305434  0.73388738  1.00220327  1
  O  O206  1  0.63439835  0.24490882  0.50656178  1
  O  O207  1  0.64917456  0.24965343  1.00352048  1
  O  O208  1  0.60173022  0.71182443  0.48962559  1
  O  O209  1  0.65026096  0.78922918  0.98373249  1
  O  O210  1  0.50828407  0.23630152  0.13063957  1
  O  O211  1  0.48525184  0.25111048  0.64026138  1
  O  O212  1  0.50033563  0.73895583  0.12153007  1
  O  O213  1  0.50421638  0.71508395  0.64890210  1
  O  O214  1  1.00870310  0.23885622  0.11998257  1
  O  O215  1  0.98158168  0.28526624  0.63278945  1
  O  O216  1  0.99752978  0.75940113  0.11714269  1
  O  O217  1  1.00796847  0.74085091  0.64135570  1
  O  O218  1  0.00595445  0.26916248  0.37677243  1
  O  O219  1  0.01296935  0.25441434  0.87797045  1
  O  O220  1  0.00311870  0.76724396  0.37407249  1
  O  O221  1  -0.00222685  0.76680522  0.86651752  1
  O  O222  1  0.48864208  0.26322921  0.36274186  1
  O  O223  1  0.50029213  0.24107177  0.86708372  1
  O  O224  1  0.48610913  0.77494150  0.36907406  1
  O  O225  1  0.50693963  0.74978025  0.85943095  1
  O  O226  1  0.26542289  0.13244532  0.48078644  1
  O  O227  1  0.23929473  0.13325101  0.99243690  1
  O  O228  1  0.26476909  0.62744136  0.49384840  1
  O  O229  1  0.25424172  0.63755945  0.99961459  1
  O  O230  1  0.74563173  0.13525183  0.49505094  1
  O  O231  1  0.74873909  0.12963071  1.00124277  1
  O  O232  1  0.72151343  0.58251817  0.49099364  1
  O  O233  1  0.74462291  0.64050755  0.98727406  1
  O  O234  1  0.23909945  0.35877213  -0.00366129  1
  O  O235  1  0.25909051  0.38225202  0.51837636  1
  O  O236  1  0.23902845  0.85110779  0.01239175  1
  O  O237  1  0.23507720  0.86778851  0.50459011  1
  O  O238  1  0.75823098  0.36467238  0.00954578  1
  O  O239  1  0.75131842  0.37373570  0.50359137  1
  O  O240  1  0.74980328  0.90552608  0.01634996  1
  O  O241  1  0.77736823  0.87762258  0.46560962  1
  O  O242  1  0.12178988  0.51057398  0.24100841  1
  O  O243  1  0.13810623  0.48701865  0.75744512  1
  O  O244  1  0.12436780  1.00902146  0.23507876  1
  O  O245  1  0.11976784  1.00286774  0.74370286  1
  O  O246  1  0.62289875  0.49396265  0.23158787  1
  O  O247  1  0.62798556  0.47817096  0.74977189  1
  O  O248  1  0.63949618  1.00916169  0.25509641  1
  O  O249  1  0.61813820  0.98672374  0.70671319  1
  O  O250  1  0.37301031  0.00872864  0.24152912  1
  O  O251  1  0.38309236  0.01664436  0.74163497  1
  O  O252  1  0.38277755  0.50205816  0.24829605  1
  O  O253  1  0.36543864  0.49785317  0.76275599  1
  O  O254  1  0.87246927  0.01124247  0.26269379  1
  O  O255  1  0.89698212  0.00465906  0.76104187  1
  O  O256  1  0.88419050  0.50045655  0.26285880  1
  O  O257  1  0.86181500  0.49763226  0.74920700  1
  O  O258  1  0.11796232  0.36895243  0.37490249  1
  O  O259  1  0.11838066  0.36678323  0.87254668  1
  O  O260  1  0.11836371  0.88159261  0.35575999  1
  O  O261  1  0.11990898  0.87965196  0.87001016  1
  O  O262  1  0.63728510  0.40190327  0.35967625  1
  O  O263  1  0.63839084  0.37065945  0.86357601  1
  O  O264  1  0.61147734  0.88235206  0.36401575  1
  O  O265  1  0.63572346  0.93890421  0.84203801  1
  O  O266  1  0.35528951  0.13121185  0.12951520  1
  O  O267  1  0.35992437  0.14076822  0.64360767  1
  O  O268  1  0.40049857  0.63557820  0.11575705  1
  O  O269  1  0.38098128  0.60654412  0.64254372  1
  O  O270  1  0.88221551  0.12203315  0.14102159  1
  O  O271  1  0.87691006  0.10988304  0.63364050  1
  O  O272  1  0.87473689  0.65071477  0.14171510  1
  O  O273  1  0.86956391  0.61433860  0.64420144  1
  O  O274  1  0.23338525  0.25833966  0.11338034  1
  O  O275  1  0.26350944  0.26580579  0.64047751  1
  O  O276  1  0.27761732  0.74186670  0.12296422  1
  O  O277  1  0.24855330  0.77476699  0.65219720  1
  O  O278  1  0.75483218  0.26496629  0.12326695  1
  O  O279  1  0.75815248  0.26184650  0.61155970  1
  O  O280  1  0.75297774  0.77039428  0.10018930  1
  O  O281  1  0.73929469  0.71789261  0.58113761  1
  O  O282  1  0.24161768  0.24568504  0.37321241  1
  O  O283  1  0.23670493  0.24140137  0.88739534  1
  O  O284  1  0.24706311  0.73742290  0.37067413  1
  O  O285  1  0.25809001  0.74940360  0.88440429  1
  O  O286  1  0.75623447  0.24814406  0.38589096  1
  O  O287  1  0.74977826  0.24511813  0.88348012  1
  O  O288  1  0.74449218  0.73038063  0.40816263  1
  O  O289  1  0.75030265  0.73924625  0.87212765  1
  O  O290  1  0.00563564  0.12111992  0.00696075  1
  O  O291  1  -0.00538296  0.11917137  0.49522651  1
  O  O292  1  0.01294846  0.63794157  -0.00322963  1
  O  O293  1  -0.00183984  0.61171596  0.50917325  1
  O  O294  1  0.49813087  0.12226662  0.01891704  1
  O  O295  1  0.51160612  0.11534178  0.49113232  1
  O  O296  1  0.51925709  0.63427452  0.00176085  1
  O  O297  1  0.48816107  0.59649863  0.53000311  1
  O  O298  1  0.48656969  0.37731246  0.51081595  1
  O  O299  1  0.49649552  0.35989950  0.99816931  1
  O  O300  1  0.49919682  0.89582037  0.47211667  1
  O  O301  1  0.51286177  0.89039248  0.99975982  1
  O  O302  1  0.98946457  0.38346354  0.49338184  1
  O  O303  1  1.00164639  0.37260455  0.98447207  1
  O  O304  1  0.99721499  0.89306723  0.47993837  1
  O  O305  1  1.01194553  0.88529566  0.98550022  1
  O  O306  1  0.50273452  0.49961286  0.40102414  1
  O  O307  1  0.49212251  0.48971004  0.89791517  1
  O  O308  1  0.47419992  1.00195722  0.37662583  1
  O  O309  1  0.48483204  1.01933187  0.89654837  1
  O  O310  1  0.99610999  0.48915487  0.38518214  1
  O  O311  1  0.99143852  0.48786927  0.87284601  1
  O  O312  1  0.99573145  1.00699359  0.37917746  1
  O  O313  1  1.00384382  0.99134479  0.88297749  1
  O  O314  1  0.00581430  0.00926908  0.11756442  1
  O  O315  1  0.01745249  -0.00158006  0.60766552  1
  O  O316  1  0.01231716  0.51697806  0.12645807  1
  O  O317  1  -0.00190368  0.48659558  0.61201254  1
  O  O318  1  0.50635906  0.01975578  0.11829826  1
  O  O319  1  0.50890772  -0.01118754  0.59949449  1
  O  O320  1  0.51280734  0.51654925  0.11048174  1
  O  O321  1  0.50669491  0.49241567  0.63942982  1
  O  O322  1  0.26158179  0.39678610  0.24719371  1
  O  O323  1  0.24436404  0.38139890  0.75397941  1
  O  O324  1  0.23352866  0.87317667  0.23994729  1
  O  O325  1  0.24912665  0.83367261  0.71560688  1
  O  O326  1  0.74107846  0.37824502  0.23459135  1
  O  O327  1  0.74443497  0.37347041  0.74427869  1
  O  O328  1  0.73806941  0.89194133  0.26889445  1
  O  O329  1  0.76212920  0.89765936  0.75074818  1
  O  O330  1  0.26162845  0.13421325  0.25904135  1
  O  O331  1  0.25932327  0.13238413  0.76527326  1
  O  O332  1  0.25768111  0.61482020  0.26729935  1
  O  O333  1  0.26515015  0.60718910  0.75518253  1
  O  O334  1  0.75922195  0.12236468  0.25670820  1
  O  O335  1  0.75672555  0.06826916  0.73486142  1
  O  O336  1  0.77024768  0.62141277  0.25422506  1
  O  O337  1  0.75685402  0.61878690  0.75556845  1
  O  O338  1  0.36838649  0.11904410  0.35546445  1
  O  O339  1  0.36146038  0.12858446  0.86912343  1
  O  O340  1  0.36646496  0.62986267  0.38516871  1
  O  O341  1  0.38134806  0.61791295  0.87526424  1
  O  O342  1  0.87064223  0.12440491  0.36509054  1
  O  O343  1  0.88882556  0.10940093  0.85953382  1
  O  O344  1  0.87972966  0.61349957  0.37070931  1
  O  O345  1  0.86388348  0.62476314  0.86076227  1
  O  O346  1  0.12822501  0.40250029  0.11711385  1
  O  O347  1  0.13898697  0.36340054  0.64280266  1
  O  O348  1  0.11596270  0.89076049  0.13628165  1
  O  O349  1  0.13516615  0.89702463  0.62482337  1
  O  O350  1  0.63515498  0.38869710  0.12390472  1
  O  O351  1  0.63223545  0.37464863  0.63865957  1
  O  O352  1  0.64474725  0.87617013  0.14469232  1
  O  O353  1  0.61024068  0.86167418  0.58943206  1
  O  O354  1  0.11834467  0.24224998  0.27203030  1
  O  O355  1  0.13459464  0.26133395  0.76641040  1
  O  O356  1  0.12661033  0.75881231  0.23731665  1
  O  O357  1  0.11408301  0.73512628  0.76024951  1
  O  O358  1  0.62284735  0.27880406  0.25071494  1
  O  O359  1  0.61490678  0.25167111  0.74689073  1
  O  O360  1  0.63835146  0.76106318  0.25474671  1
  O  O361  1  0.61804296  0.75331649  0.74448672  1
  O  O362  1  0.37474227  0.24950821  0.23904511  1
  O  O363  1  0.38697960  0.24703493  0.75081742  1
  O  O364  1  0.38120493  0.74912708  0.23934330  1
  O  O365  1  0.38922330  0.72298454  0.75591522  1
  O  O366  1  0.86967166  0.23907751  0.25600978  1
  O  O367  1  0.85340929  0.21630225  0.74298010  1
  O  O368  1  0.86007561  0.75135102  0.27356216  1
  O  O369  1  0.87560836  0.74168820  0.74598216  1
  O  O370  1  0.38324799  0.47937182  0.51414628  1
  O  O371  1  0.36595397  0.46862263  1.02571197  1
  O  O372  1  0.38591136  1.01739126  0.50419406  1
  O  O373  1  0.39122427  0.98686961  1.01697529  1
  O  O374  1  0.88169820  0.49336121  0.49021358  1
  O  O375  1  0.87415067  0.50802378  1.01400957  1
  O  O376  1  0.88621854  0.99974901  0.48593635  1
  O  O377  1  0.89100590  1.01095243  0.98798092  1
  O  O378  1  0.11389817  0.01539750  0.00970805  1
  O  O379  1  0.11280963  0.00616943  0.48567217  1
  O  O380  1  0.13733875  0.52266810  0.01557357  1
  O  O381  1  0.11149276  0.48863389  0.50078940  1
  O  O382  1  0.60982165  0.00693108  -0.00549409  1
  O  O383  1  0.61499505  0.00828589  0.49833516  1
  O  O384  1  0.63089021  0.49888329  0.00710544  1
  O  O385  1  0.60393705  0.48006849  0.52615987  1
  O  O386  1  0.36201534  0.40762733  0.08744879  1
  O  O387  1  0.36652744  0.36433952  0.63134095  1
  O  O388  1  0.38613687  0.85794700  0.12658873  1
  O  O389  1  0.35299002  0.89440283  0.61106976  1
  O  O390  1  0.86527260  0.37924996  0.13177486  1
  O  O391  1  0.85585673  0.39073888  0.61068175  1
  O  O392  1  0.85728177  0.87692514  0.13802559  1
  O  O393  1  0.88030219  0.88997139  0.60163240  1
  O  O394  1  0.14425255  0.12980962  0.37331780  1
  O  O395  1  0.12780540  0.13740227  0.87973511  1
  O  O396  1  0.14134276  0.61691918  0.38187277  1
  O  O397  1  0.12385483  0.61557972  0.88622225  1
  O  O398  1  0.63985476  0.12879782  0.38461530  1
  O  O399  1  0.63729925  0.10030019  0.83008672  1
  O  O400  1  0.56381556  0.62960729  0.30358018  1
  O  O401  1  0.63901538  0.61890052  0.86227653  1
