# generated using pymatgen
data_V73Zn73O256
_symmetry_space_group_name_H-M   'P 1'
_cell_length_a   16.87774941
_cell_length_b   16.88553687
_cell_length_c   16.87558916
_cell_angle_alpha   89.83183272
_cell_angle_beta   90.27740115
_cell_angle_gamma   89.94062140
_symmetry_Int_Tables_number   1
_chemical_formula_structural   V73Zn73O256
_chemical_formula_sum   'V73 Zn73 O256'
_cell_volume   4809.29205343
_cell_formula_units_Z   1
loop_
 _symmetry_equiv_pos_site_id
 _symmetry_equiv_pos_as_xyz
  1  'x, y, z'
loop_
 _atom_site_type_symbol
 _atom_site_label
 _atom_site_symmetry_multiplicity
 _atom_site_fract_x
 _atom_site_fract_y
 _atom_site_fract_z
 _atom_site_occupancy
  V  V0  1  0.87580017  0.37275243  0.49259149  1
  V  V1  1  0.13760833  0.88162953  0.75120408  1
  V  V2  1  0.52082966  0.62548819  0.12273051  1
  V  V3  1  0.13686317  0.50014188  0.61455254  1
  V  V4  1  0.72966778  0.63461159  0.87109045  1
  V  V5  1  0.87250654  0.87007365  0.03126983  1
  V  V6  1  0.50984285  0.24550882  0.75425185  1
  V  V7  1  0.62468097  0.73658351  0.35903731  1
  V  V8  1  0.12663774  0.37689941  0.25723294  1
  V  V9  1  0.75076173  0.88235146  0.60545350  1
  V  V10  1  0.37554727  0.62227542  0.74786851  1
  V  V11  1  0.87030741  0.24671223  0.11391624  1
  V  V12  1  0.36701388  0.61727743  0.23841654  1
  V  V13  1  0.88418030  0.75433288  0.62272649  1
  V  V14  1  0.14068875  0.75478046  0.36754686  1
  V  V15  1  0.25660570  0.37241412  0.11184945  1
  V  V16  1  0.12081768  0.75135838  0.87109216  1
  V  V17  1  0.63632126  0.25870672  0.37361861  1
  V  V18  1  -0.01730420  0.27229007  0.75181028  1
  V  V19  1  -0.00103839  -0.00509692  0.49988670  1
  V  V20  1  0.61789798  0.12192662  0.49556290  1
  V  V21  1  0.51635504  0.11897508  0.13007712  1
  V  V22  1  0.24925714  0.15258146  0.37804201  1
  V  V23  1  0.37161529  0.48884502  0.87713448  1
  V  V24  1  0.88103342  -0.00755040  0.36304744  1
  V  V25  1  0.37433359  0.24146098  0.62415942  1
  V  V26  1  0.73135402  0.12882808  0.89436788  1
  V  V27  1  0.26201822  0.37113116  0.62107392  1
  V  V28  1  0.61599190  0.38741988  0.24769073  1
  V  V29  1  0.51360398  0.49816744  0.00364223  1
  V  V30  1  0.50116826  0.75140388  0.74991906  1
  V  V31  1  0.72808578  0.88232494  0.14514301  1
  V  V32  1  0.00457068  0.25566721  0.25319137  1
  V  V33  1  0.52323931  0.37108832  0.87484788  1
  V  V34  1  0.12909735  0.14483384  0.50659544  1
  V  V35  1  -0.00383888  0.74723047  0.24364594  1
  V  V36  1  0.25257435  0.62293331  0.87063620  1
  V  V37  1  0.51134954  0.86427832  0.37261080  1
  V  V38  1  0.12270751  0.61902051  -0.00090800  1
  V  V39  1  0.77014109  0.50073110  0.24183537  1
  V  V40  1  0.49139213  0.25148823  0.25647033  1
  V  V41  1  0.25030077  0.87785478  0.14300655  1
  V  V42  1  0.87475453  0.12272142  0.25123819  1
  V  V43  1  0.76884995  0.61961167  0.36212078  1
  V  V44  1  0.51888593  0.48663340  0.50187991  1
  V  V45  1  0.36990436  0.75214506  0.61395541  1
  V  V46  1  0.00189640  -0.00373655  0.00532992  1
  V  V47  1  0.13403951  0.38544232  0.75665223  1
  V  V48  1  -0.01360116  0.87530257  0.86429143  1
  V  V49  1  0.25708457  0.61011225  0.37629614  1
  V  V50  1  0.36459488  0.11741205  0.76625302  1
  V  V51  1  0.73315258  0.75168905  0.00238383  1
  V  V52  1  0.47760678  0.87215176  0.87761520  1
  V  V53  1  0.74152122  0.49382692  0.74210804  1
  V  V54  1  0.71315043  0.08075599  0.34851114  1
  V  V55  1  0.12751740  0.63201978  0.49495913  1
  V  V56  1  0.86631811  0.12652901  0.76732725  1
  V  V57  1  -0.01083692  0.62233293  0.12615290  1
  V  V58  1  0.88700471  0.38882144  -0.00407337  1
  V  V59  1  0.25275126  0.87924996  0.60742348  1
  V  V60  1  0.75560944  0.73311016  0.49436615  1
  V  V61  1  0.13069587  0.49944739  0.12477514  1
  V  V62  1  0.26071393  0.75676239  0.00420709  1
  V  V63  1  0.36239155  -0.02165755  0.38411855  1
  V  V64  1  0.01671193  0.11871069  0.12366783  1
  V  V65  1  -0.02264123  0.12485490  0.62308617  1
  V  V66  1  0.50522551  0.01130127  -0.01687201  1
  V  V67  1  0.00069380  0.62030469  0.62383019  1
  V  V68  1  0.75381134  -0.01007154  0.76590412  1
  V  V69  1  0.37216821  0.23835051  0.11130376  1
  V  V70  1  0.00793505  0.87209683  0.36901666  1
  V  V71  1  0.74266136  0.37574584  0.11455123  1
  V  V72  1  0.62728896  0.87289116  0.76246221  1
  Zn  Zn73  1  0.62154966  0.00317400  0.62145003  1
  Zn  Zn74  1  0.38895668  0.75664026  0.13239456  1
  Zn  Zn75  1  0.15279345  0.21666610  0.90228121  1
  Zn  Zn76  1  0.39667580  0.47727011  0.37586374  1
  Zn  Zn77  1  0.24673308  0.01440013  0.25357553  1
  Zn  Zn78  1  0.90534541  0.61147971  0.78401943  1
  Zn  Zn79  1  0.13251415  0.01065476  0.63013875  1
  Zn  Zn80  1  0.49244052  -0.02289435  0.50881832  1
  Zn  Zn81  1  0.53417397  0.60400660  0.62469023  1
  Zn  Zn82  1  0.19201412  0.19301891  0.18838657  1
  Zn  Zn83  1  0.16168200  0.17409970  0.72198754  1
  Zn  Zn84  1  0.18975778  0.68615550  0.18829377  1
  Zn  Zn85  1  0.18845806  0.69345407  0.68660023  1
  Zn  Zn86  1  0.68642026  0.19525954  0.18902943  1
  Zn  Zn87  1  0.68470459  0.17944446  0.69130857  1
  Zn  Zn88  1  0.69830589  0.69125106  0.18279168  1
  Zn  Zn89  1  0.68449210  0.69053594  0.68308209  1
  Zn  Zn90  1  0.31270181  0.31392547  0.29689094  1
  Zn  Zn91  1  0.31198685  0.29795626  0.81125346  1
  Zn  Zn92  1  0.32577678  0.80286215  0.31047348  1
  Zn  Zn93  1  0.31034952  0.80704774  0.80971589  1
  Zn  Zn94  1  0.81535439  0.31636467  0.30141321  1
  Zn  Zn95  1  0.79804146  0.30808323  0.82046453  1
  Zn  Zn96  1  0.81880609  0.81125731  0.30744619  1
  Zn  Zn97  1  0.82628880  0.77612580  0.82445766  1
  Zn  Zn98  1  0.23575160  0.39717395  0.41416745  1
  Zn  Zn99  1  0.18725856  0.43186204  0.93330549  1
  Zn  Zn100  1  0.17891688  0.94487662  0.43966696  1
  Zn  Zn101  1  0.18091302  0.93151880  0.94717695  1
  Zn  Zn102  1  0.68213233  0.44751114  0.42638858  1
  Zn  Zn103  1  0.69560227  0.44946003  0.92932911  1
  Zn  Zn104  1  0.67804254  0.93166092  0.42878009  1
  Zn  Zn105  1  0.68493529  0.94106308  0.95235239  1
  Zn  Zn106  1  0.33262863  0.03974275  0.06856045  1
  Zn  Zn107  1  0.31419085  0.06533006  0.56171508  1
  Zn  Zn108  1  0.31155728  0.55610493  0.05262792  1
  Zn  Zn109  1  0.31802382  0.56247533  0.55843312  1
  Zn  Zn110  1  0.81431106  0.05024031  0.06831690  1
  Zn  Zn111  1  0.80175090  0.06052306  0.53657181  1
  Zn  Zn112  1  0.80402256  0.56587187  0.05590429  1
  Zn  Zn113  1  0.81194463  0.56135237  0.57230027  1
  Zn  Zn114  1  0.43241120  0.44287314  0.18434733  1
  Zn  Zn115  1  0.44968325  0.43633940  0.69042441  1
  Zn  Zn116  1  0.42964446  0.93714115  0.20014785  1
  Zn  Zn117  1  0.43548846  0.93997058  0.68642216  1
  Zn  Zn118  1  0.94338673  0.43575299  0.17160161  1
  Zn  Zn119  1  0.91553691  0.45172827  0.82185229  1
  Zn  Zn120  1  1.07590741  0.93664865  0.18936180  1
  Zn  Zn121  1  0.93263609  0.93749886  0.68601032  1
  Zn  Zn122  1  0.07046318  0.07149415  0.31758429  1
  Zn  Zn123  1  0.05252286  0.05588773  0.81691289  1
  Zn  Zn124  1  0.05992087  0.55877974  0.31172359  1
  Zn  Zn125  1  0.06746257  0.56269326  0.80562502  1
  Zn  Zn126  1  0.53569055  0.06032312  0.31629806  1
  Zn  Zn127  1  0.56030125  0.05871132  0.80321862  1
  Zn  Zn128  1  0.55883276  0.56735194  0.31151827  1
  Zn  Zn129  1  0.56064137  0.56500651  0.81562688  1
  Zn  Zn130  1  0.43309226  0.19486498  0.43869462  1
  Zn  Zn131  1  0.44244245  0.18883471  0.93778917  1
  Zn  Zn132  1  0.44254303  0.67671649  0.43804226  1
  Zn  Zn133  1  0.44471818  0.68424563  0.93884198  1
  Zn  Zn134  1  0.94486544  0.18128151  0.43175537  1
  Zn  Zn135  1  0.97514980  0.20790465  0.95444595  1
  Zn  Zn136  1  0.94261638  0.68955532  0.43683200  1
  Zn  Zn137  1  0.93281378  0.68807511  0.94809288  1
  Zn  Zn138  1  0.06679691  0.31273786  0.06129945  1
  Zn  Zn139  1  0.05871343  0.31035401  0.58409669  1
  Zn  Zn140  1  0.06755560  0.80716806  0.05904304  1
  Zn  Zn141  1  0.07101058  0.81383529  0.55693699  1
  Zn  Zn142  1  0.55722100  0.30938289  0.05926310  1
  Zn  Zn143  1  0.55204980  0.30005172  0.55723627  1
  Zn  Zn144  1  0.55932907  0.81951934  0.06744755  1
  Zn  Zn145  1  0.57051330  0.78913672  0.56021598  1
  O  O146  1  0.11460644  0.12927743  0.12554467  1
  O  O147  1  0.11095252  0.12620944  0.62265058  1
  O  O148  1  0.12947840  0.61552265  0.11666866  1
  O  O149  1  0.12615131  0.62701619  0.61416003  1
  O  O150  1  0.61594235  0.12803811  0.13053275  1
  O  O151  1  0.64392338  0.12732585  0.59746827  1
  O  O152  1  0.61924124  0.62269471  0.12843972  1
  O  O153  1  0.60775134  0.68306635  0.60319068  1
  O  O154  1  0.34344744  0.38005338  0.37988311  1
  O  O155  1  0.37180592  0.39027242  0.86452017  1
  O  O156  1  0.36873845  0.87543439  0.38895879  1
  O  O157  1  0.37850350  0.87817248  0.87024272  1
  O  O158  1  0.88189129  0.37772008  0.38667624  1
  O  O159  1  0.86729224  0.37142779  0.89269292  1
  O  O160  1  0.89261641  0.88431587  0.36492414  1
  O  O161  1  0.88689242  0.86707520  0.86624992  1
  O  O162  1  0.25788794  0.00306625  0.38401485  1
  O  O163  1  0.25175525  0.02596602  0.91563794  1
  O  O164  1  0.24351106  0.51232640  0.37774414  1
  O  O165  1  0.26209266  0.50969792  0.88063506  1
  O  O166  1  0.77452403  -0.01004969  0.37738177  1
  O  O167  1  0.74974764  0.00013956  0.86700971  1
  O  O168  1  0.75061163  0.51077295  0.35671340  1
  O  O169  1  0.75372094  0.52980386  0.87537209  1
  O  O170  1  0.24239828  0.48679421  0.11995363  1
  O  O171  1  0.24256964  0.49631729  0.62605720  1
  O  O172  1  0.25755813  0.98418733  0.13463183  1
  O  O173  1  0.24866850  0.98487798  0.61878551  1
  O  O174  1  0.75189093  0.48985161  0.13313948  1
  O  O175  1  0.73982528  0.51174408  0.63889384  1
  O  O176  1  0.74608180  0.98164826  0.12751628  1
  O  O177  1  0.74965610  0.98808964  0.61674410  1
  O  O178  1  0.00741867  0.36355583  0.23874677  1
  O  O179  1  -0.03259213  0.37091962  0.74886604  1
  O  O180  1  0.01294825  0.85920231  0.25763641  1
  O  O181  1  0.00433218  0.87820171  0.76118954  1
  O  O182  1  0.51047163  0.36764120  0.23573142  1
  O  O183  1  0.50229549  0.36762861  0.76842466  1
  O  O184  1  0.47906357  0.86213469  0.27494912  1
  O  O185  1  0.50598766  0.87257656  0.76224271  1
  O  O186  1  0.50270842  0.14386871  0.24385893  1
  O  O187  1  0.49162599  0.13980126  0.75778888  1
  O  O188  1  0.49227083  0.61476952  0.22678387  1
  O  O189  1  0.49384232  0.63515533  0.74530624  1
  O  O190  1  0.99612014  0.13195444  0.23844944  1
  O  O191  1  0.97248248  0.10925344  0.73596003  1
  O  O192  1  1.00842901  0.63320834  0.23673787  1
  O  O193  1  1.00910497  0.63776086  0.72595062  1
  O  O194  1  0.38554132  0.25423900  0.01405560  1
  O  O195  1  0.38849899  0.25347594  0.52519729  1
  O  O196  1  0.36148898  0.73898916  0.00200146  1
  O  O197  1  0.37878253  0.74192099  0.51624186  1
  O  O198  1  0.88182954  0.25671023  0.01075214  1
  O  O199  1  0.87266587  0.26741380  0.47891085  1
  O  O200  1  0.86850727  0.76886879  0.00269373  1
  O  O201  1  0.86317661  0.75211564  0.49742628  1
  O  O202  1  0.11419815  0.24332254  0.51095547  1
  O  O203  1  0.08290477  0.23358585  0.98673803  1
  O  O204  1  0.12850253  0.74051571  0.48542810  1
  O  O205  1  0.13729247  0.74065260  0.99012768  1
  O  O206  1  0.62063483  0.24450583  0.48023672  1
  O  O207  1  0.62338292  0.23840204  1.00602706  1
  O  O208  1  0.65394882  0.75833183  0.47431923  1
  O  O209  1  0.63404472  0.75770865  1.00295725  1
  O  O210  1  0.49118523  0.23997697  0.13126151  1
  O  O211  1  0.48845029  0.26384819  0.64518240  1
  O  O212  1  0.49871614  0.72901176  0.11018858  1
  O  O213  1  0.47760773  0.76727170  0.64027533  1
  O  O214  1  0.98931937  0.23417809  0.12974688  1
  O  O215  1  0.98867268  0.23171536  0.63884073  1
  O  O216  1  1.01068753  0.74041217  0.13686854  1
  O  O217  1  0.98771065  0.75291704  0.60935970  1
  O  O218  1  -0.00051868  0.24433329  0.35254896  1
  O  O219  1  -0.01300885  0.24416884  0.84726777  1
  O  O220  1  0.01194890  0.75372575  0.36650344  1
  O  O221  1  0.01266998  0.76682036  0.88755039  1
  O  O222  1  0.49800014  0.25423284  0.35895241  1
  O  O223  1  0.50001637  0.26442867  0.87069682  1
  O  O224  1  0.51756101  0.74492921  0.37947958  1
  O  O225  1  0.48936434  0.75976970  0.86132395  1
  O  O226  1  0.23445872  0.13156736  0.50123791  1
  O  O227  1  0.25875273  0.07660124  0.97241693  1
  O  O228  1  0.24202858  0.62516462  0.48755449  1
  O  O229  1  0.24256712  0.63194292  0.99003473  1
  O  O230  1  0.73065587  0.11036494  0.45775217  1
  O  O231  1  0.75353893  0.10918006  0.99052894  1
  O  O232  1  0.75865886  0.62780978  0.48456873  1
  O  O233  1  0.75150646  0.64490771  0.99513825  1
  O  O234  1  0.24318809  0.37272063  0.01266474  1
  O  O235  1  0.24624126  0.37438477  0.52330070  1
  O  O236  1  0.25192531  0.86015391  0.00199870  1
  O  O237  1  0.23974464  0.87033239  0.50992912  1
  O  O238  1  0.74812212  0.38124538  0.01320183  1
  O  O239  1  0.77171943  0.38121880  0.47999543  1
  O  O240  1  0.75762844  0.87189307  0.01165344  1
  O  O241  1  0.75042215  0.87436669  0.50392992  1
  O  O242  1  0.11755578  0.48667881  0.23782972  1
  O  O243  1  0.11919649  0.49190070  0.73253381  1
  O  O244  1  0.13299625  0.99904200  0.26187706  1
  O  O245  1  0.11653894  0.98347339  0.74614313  1
  O  O246  1  0.62469847  0.48800193  0.24947860  1
  O  O247  1  0.63964468  0.51029516  0.75884391  1
  O  O248  1  0.64573623  1.01550587  0.31110524  1
  O  O249  1  0.64015722  0.99327505  0.74145139  1
  O  O250  1  0.36626383  0.00013013  0.27850293  1
  O  O251  1  0.38143157  0.01871435  0.74741589  1
  O  O252  1  0.38259547  0.51231286  0.26042705  1
  O  O253  1  0.38713481  0.51460046  0.76264168  1
  O  O254  1  0.88267661  0.01078876  0.25962103  1
  O  O255  1  0.85655808  0.00766626  0.74254110  1
  O  O256  1  0.86841086  0.49035656  0.24424270  1
  O  O257  1  0.85050701  0.51718794  0.74847984  1
  O  O258  1  0.13442726  0.37914476  0.35588707  1
  O  O259  1  0.11520681  0.39226368  0.85539508  1
  O  O260  1  0.12502523  0.86024864  0.37768588  1
  O  O261  1  0.12161347  0.87110685  0.86590556  1
  O  O262  1  0.62660070  0.36951109  0.35849071  1
  O  O263  1  0.62197627  0.37457470  0.87839598  1
  O  O264  1  0.61605830  0.86176859  0.36250235  1
  O  O265  1  0.62629219  0.88399092  0.86286412  1
  O  O266  1  0.37495427  0.13530858  0.12045167  1
  O  O267  1  0.37192485  0.13842835  0.63294058  1
  O  O268  1  0.36481365  0.61833410  0.13421625  1
  O  O269  1  0.36210526  0.63913080  0.63736245  1
  O  O270  1  0.86964280  0.13021974  0.13717849  1
  O  O271  1  0.87669387  0.12032202  0.60871825  1
  O  O272  1  0.89083112  0.62037197  0.11853903  1
  O  O273  1  0.89310525  0.63491323  0.60785530  1
  O  O274  1  0.26218726  0.25611407  0.12277123  1
  O  O275  1  0.26446182  0.26444186  0.63527213  1
  O  O276  1  0.25007160  0.75386065  0.11342804  1
  O  O277  1  0.26042422  0.76417245  0.63167732  1
  O  O278  1  0.75897046  0.26602570  0.13450326  1
  O  O279  1  0.71507444  0.28544854  0.63105580  1
  O  O280  1  0.74747297  0.76527911  0.11361482  1
  O  O281  1  0.76189744  0.75162007  0.60458105  1
  O  O282  1  0.24315525  0.25169532  0.37526065  1
  O  O283  1  0.24382367  0.27493100  0.89296520  1
  O  O284  1  0.24200776  0.74094627  0.36912881  1
  O  O285  1  0.24386376  0.74377225  0.88516198  1
  O  O286  1  0.73590146  0.25622526  0.36313276  1
  O  O287  1  0.74254818  0.22730449  0.87475509  1
  O  O288  1  0.75277954  0.73545735  0.37180708  1
  O  O289  1  0.73654763  0.75464559  0.89184371  1
  O  O290  1  -0.01525656  0.10611365  0.01553497  1
  O  O291  1  0.00554882  0.12198902  0.51069881  1
  O  O292  1  0.01330989  0.63993863  0.01607429  1
  O  O293  1  0.01948575  0.63286026  0.50493485  1
  O  O294  1  0.50144924  0.11564941  0.01342862  1
  O  O295  1  0.51626714  0.12817455  0.48728905  1
  O  O296  1  0.49789140  0.61027020  0.00881945  1
  O  O297  1  0.48570782  0.60311766  0.51233780  1
  O  O298  1  0.50692455  0.38540730  0.50049769  1
  O  O299  1  0.50206738  0.38556557  0.98809582  1
  O  O300  1  0.51124713  0.86063292  0.48351395  1
  O  O301  1  0.50061039  0.86207631  0.97590513  1
  O  O302  1  0.97895274  0.36839494  0.50458581  1
  O  O303  1  0.98596072  0.38209474  1.01002664  1
  O  O304  1  1.01115348  0.88373905  0.48459400  1
  O  O305  1  0.98985915  0.87852946  1.00344705  1
  O  O306  1  0.50727573  0.50476542  0.38968338  1
  O  O307  1  0.49454430  0.48975048  0.88146406  1
  O  O308  1  0.48744794  0.97882281  0.38000597  1
  O  O309  1  0.50017186  0.98831634  0.87836818  1
  O  O310  1  0.99835863  0.51287796  0.38891951  1
  O  O311  1  0.97370718  0.54073741  0.85980504  1
  O  O312  1  0.99853602  0.99237317  0.37696339  1
  O  O313  1  0.99727563  0.98370226  0.88863193  1
  O  O314  1  0.00522157  0.00954587  0.12273928  1
  O  O315  1  -0.00491281  0.00705457  0.61577757  1
  O  O316  1  0.01246301  0.51615306  0.12542512  1
  O  O317  1  0.01590251  0.52096502  0.61953199  1
  O  O318  1  0.49758185  0.02206875  0.15448930  1
  O  O319  1  0.51021442  -0.01170834  0.61921402  1
  O  O320  1  0.49727884  0.50403448  0.10954874  1
  O  O321  1  0.51074756  0.49422989  0.61692189  1
  O  O322  1  0.22991627  0.36504857  0.23045320  1
  O  O323  1  0.23523707  0.37399453  0.74391614  1
  O  O324  1  0.24821965  0.86340132  0.24288682  1
  O  O325  1  0.23922642  0.88088092  0.75371033  1
  O  O326  1  0.74287266  0.38838742  0.24270400  1
  O  O327  1  0.75025551  0.39381422  0.76374695  1
  O  O328  1  0.74837188  0.86990129  0.24422719  1
  O  O329  1  0.74755866  0.88518453  0.74772052  1
  O  O330  1  0.23705020  0.13188410  0.27362530  1
  O  O331  1  0.26539679  0.13278955  0.74894938  1
  O  O332  1  0.25726491  0.62077946  0.26001186  1
  O  O333  1  0.25659854  0.63265049  0.76335681  1
  O  O334  1  0.75585945  0.12842508  0.26369583  1
  O  O335  1  0.75363077  0.11192356  0.75391258  1
  O  O336  1  0.75621547  0.61222904  0.24973213  1
  O  O337  1  0.74098168  0.64126827  0.76598807  1
  O  O338  1  0.35105748  0.13492843  0.38709263  1
  O  O339  1  0.37776285  0.12807146  0.86794401  1
  O  O340  1  0.36227411  0.62486972  0.36952019  1
  O  O341  1  0.36955235  0.62120011  0.86754312  1
  O  O342  1  0.88338579  0.11353337  0.36224181  1
  O  O343  1  0.86468621  0.12064055  0.86553995  1
  O  O344  1  0.86771412  0.62645440  0.37087722  1
  O  O345  1  0.85692422  0.66809364  0.86801836  1
  O  O346  1  0.13014863  0.38403982  0.12348363  1
  O  O347  1  0.12938414  0.39101096  0.62538529  1
  O  O348  1  0.14169554  0.87078290  0.12080680  1
  O  O349  1  0.13663567  0.86729510  0.63811501  1
  O  O350  1  0.63639741  0.36868721  0.13516044  1
  O  O351  1  0.66185885  0.33718406  0.61881090  1
  O  O352  1  0.62655105  0.87385267  0.13906045  1
  O  O353  1  0.64728143  0.86682273  0.63091194  1
  O  O354  1  0.11133239  0.26135663  0.23844751  1
  O  O355  1  0.09642847  0.28379639  0.73344792  1
  O  O356  1  0.12043728  0.74095228  0.26418834  1
  O  O357  1  0.12996372  0.76174041  0.76327939  1
  O  O358  1  0.61449687  0.26147342  0.25720807  1
  O  O359  1  0.60990928  0.24138937  0.74909529  1
  O  O360  1  0.63114448  0.74507746  0.25982781  1
  O  O361  1  0.61116693  0.76327898  0.74791459  1
  O  O362  1  0.38786717  0.25672770  0.23545756  1
  O  O363  1  0.38503025  0.24166219  0.74594578  1
  O  O364  1  0.37831567  0.72404117  0.24811245  1
  O  O365  1  0.38049955  0.74017516  0.74733089  1
  O  O366  1  0.88449535  0.24537325  0.24026210  1
  O  O367  1  0.86932363  0.23249012  0.74686462  1
  O  O368  1  0.89740558  0.74651313  0.25414996  1
  O  O369  1  0.87067656  0.74351159  0.72177949  1
  O  O370  1  0.39332333  0.50799315  0.49519402  1
  O  O371  1  0.38498177  0.50182622  0.98183265  1
  O  O372  1  0.38066240  1.00965546  0.48640508  1
  O  O373  1  0.41669194  0.98061584  1.02228059  1
  O  O374  1  0.87843577  0.47554419  0.50623746  1
  O  O375  1  0.86949445  0.48734405  1.00540542  1
  O  O376  1  0.89149069  1.00836496  0.48042331  1
  O  O377  1  0.88571908  0.97922299  1.00825368  1
  O  O378  1  0.10280622  -0.00686453  0.00146600  1
  O  O379  1  0.11081925  0.01060762  0.50685923  1
  O  O380  1  0.12957467  0.51218874  0.00392542  1
  O  O381  1  0.12967106  0.51679336  0.51270498  1
  O  O382  1  0.59729166  -0.01885163  0.01459132  1
  O  O383  1  0.61815343  0.01074562  0.49105459  1
  O  O384  1  0.61281175  0.50006701  -0.00395198  1
  O  O385  1  0.62062145  0.50109684  0.50042543  1
  O  O386  1  0.36055913  0.37101936  0.12689373  1
  O  O387  1  0.36362657  0.37651982  0.63860473  1
  O  O388  1  0.36062182  0.86772367  0.13453017  1
  O  O389  1  0.36009011  0.86768055  0.62771691  1
  O  O390  1  0.86440683  0.36799174  0.11510796  1
  O  O391  1  0.85986370  0.35436025  0.59274122  1
  O  O392  1  0.86895858  0.86989738  0.12836821  1
  O  O393  1  0.86191943  0.86547501  0.62460213  1
  O  O394  1  0.12937358  0.13035837  0.39799696  1
  O  O395  1  0.12039586  0.14164952  0.82587346  1
  O  O396  1  0.13397215  0.63124661  0.38104355  1
  O  O397  1  0.13237508  0.63132711  0.87807159  1
  O  O398  1  0.62050358  0.14452020  0.37056101  1
  O  O399  1  0.63318669  0.10739893  0.87895770  1
  O  O400  1  0.64035908  0.63243934  0.36792206  1
  O  O401  1  0.62932605  0.63339048  0.88109353  1
