# generated using pymatgen
data_V73Zn73O256
_symmetry_space_group_name_H-M   'P 1'
_cell_length_a   16.88864473
_cell_length_b   16.90839412
_cell_length_c   16.84670908
_cell_angle_alpha   89.95178449
_cell_angle_beta   90.08877787
_cell_angle_gamma   89.83891497
_symmetry_Int_Tables_number   1
_chemical_formula_structural   V73Zn73O256
_chemical_formula_sum   'V73 Zn73 O256'
_cell_volume   4810.71739862
_cell_formula_units_Z   1
loop_
 _symmetry_equiv_pos_site_id
 _symmetry_equiv_pos_as_xyz
  1  'x, y, z'
loop_
 _atom_site_type_symbol
 _atom_site_label
 _atom_site_symmetry_multiplicity
 _atom_site_fract_x
 _atom_site_fract_y
 _atom_site_fract_z
 _atom_site_occupancy
  V  V0  1  0.39251135  -0.00133354  0.87603814  1
  V  V1  1  0.11998148  0.24353422  0.37963941  1
  V  V2  1  -0.00828504  0.11841669  0.62425189  1
  V  V3  1  0.13065918  0.37062712  0.75213425  1
  V  V4  1  0.48889410  -0.00027089  0.50118200  1
  V  V5  1  0.75124514  -0.01144500  0.22065532  1
  V  V6  1  0.85704616  0.87351876  0.49152851  1
  V  V7  1  0.87629046  0.26260542  0.61824307  1
  V  V8  1  0.25156959  0.37306520  0.12906322  1
  V  V9  1  0.75831755  0.62499306  0.87129296  1
  V  V10  1  0.50918540  0.36639881  0.86344827  1
  V  V11  1  0.62803282  0.39838838  0.27490804  1
  V  V12  1  0.11896882  0.74512167  0.87318079  1
  V  V13  1  0.87059178  0.25104607  0.12334082  1
  V  V14  1  0.74311561  0.13469088  0.85916239  1
  V  V15  1  0.25182989  0.49746632  0.25651794  1
  V  V16  1  0.25372265  0.24533603  0.50733396  1
  V  V17  1  0.62220100  0.11059195  -0.00045479  1
  V  V18  1  0.26114046  0.87155925  0.62155802  1
  V  V19  1  0.60838536  0.88575665  0.25311391  1
  V  V20  1  0.23120957  0.88053649  0.12027423  1
  V  V21  1  0.38062591  0.87649673  -0.00122323  1
  V  V22  1  -0.00888736  -0.00705764  0.48528545  1
  V  V23  1  0.25292511  0.74398725  0.00084473  1
  V  V24  1  0.60829230  0.75416393  0.87850985  1
  V  V25  1  0.37077020  -0.02044268  0.36816130  1
  V  V26  1  0.26754472  0.13112320  0.36550836  1
  V  V27  1  0.74079229  0.38647442  0.62813209  1
  V  V28  1  0.25775318  0.75540840  0.50320533  1
  V  V29  1  0.24700615  0.62227862  0.37999217  1
  V  V30  1  -0.00138186  0.11645204  0.11671213  1
  V  V31  1  0.25093384  0.24516118  0.00290771  1
  V  V32  1  0.38696090  0.37350602  0.50249408  1
  V  V33  1  0.51674995  0.25006016  0.26230345  1
  V  V34  1  0.50385624  0.11614062  0.12435467  1
  V  V35  1  0.12020093  0.00191376  0.61637269  1
  V  V36  1  0.00108957  0.75274662  0.23430042  1
  V  V37  1  0.11169540  0.37494962  0.25970150  1
  V  V38  1  0.61810722  0.00380843  0.62609942  1
  V  V39  1  0.12068495  0.50338670  0.63233356  1
  V  V40  1  0.73856900  0.25117556  -0.00326967  1
  V  V41  1  0.25070063  0.61904678  0.85855163  1
  V  V42  1  0.73139063  0.38774587  0.12366989  1
  V  V43  1  -0.00291352  0.37601280  0.88156339  1
  V  V44  1  0.38310655  0.24882903  0.13380381  1
  V  V45  1  0.48664243  0.64072335  0.63504794  1
  V  V46  1  0.87132845  0.88331466  0.00826421  1
  V  V47  1  0.25139897  0.12133904  0.87750030  1
  V  V48  1  0.11838069  0.87219487  0.74330487  1
  V  V49  1  0.75010357  -0.02392338  0.74814112  1
  V  V50  1  0.38563225  0.63337459  0.24871215  1
  V  V51  1  0.49504935  0.61932755  0.11005941  1
  V  V52  1  0.25196385  0.37645461  0.62698523  1
  V  V53  1  0.87312047  0.72951172  0.12311276  1
  V  V54  1  0.38631623  0.13517649  0.73688287  1
  V  V55  1  0.61664141  0.62205260  0.49723194  1
  V  V56  1  0.37513133  0.50151319  0.86031301  1
  V  V57  1  0.38256670  0.38785718  0.00332076  1
  V  V58  1  -0.00570748  0.87338447  0.87006512  1
  V  V59  1  0.11613475  0.76203784  0.37276125  1
  V  V60  1  0.61735331  0.60550931  -0.00216472  1
  V  V61  1  -0.00051255  0.23506010  0.75345416  1
  V  V62  1  0.39044985  0.49562364  0.38284581  1
  V  V63  1  0.87439146  0.51435379  0.35387518  1
  V  V64  1  0.87632292  0.00661337  0.86928137  1
  V  V65  1  -0.00605869  0.48068775  0.49069501  1
  V  V66  1  0.12302103  0.51051643  0.12278757  1
  V  V67  1  0.74088060  0.74003296  0.50377938  1
  V  V68  1  0.61541653  0.50691256  0.64042646  1
  V  V69  1  0.88804545  0.74253078  0.63393739  1
  V  V70  1  0.60346566  0.86495734  0.74878762  1
  V  V71  1  0.11402890  0.62310189  0.50240269  1
  V  V72  1  0.86267206  0.12051010  0.26327199  1
  Zn  Zn73  1  -0.01000123  0.24920926  0.25690674  1
  Zn  Zn74  1  0.23739757  0.00587345  0.23515905  1
  Zn  Zn75  1  0.14766256  0.05345970  0.05294198  1
  Zn  Zn76  1  0.99937681  0.52000098  1.00939686  1
  Zn  Zn77  1  0.73980479  0.75710605  0.00326437  1
  Zn  Zn78  1  0.25078824  0.00211590  0.74519928  1
  Zn  Zn79  1  0.75919344  0.50551664  0.75803600  1
  Zn  Zn80  1  0.86814590  0.38183865  -0.01124616  1
  Zn  Zn81  1  0.12218238  0.24696828  0.88892358  1
  Zn  Zn82  1  0.18481130  0.18997103  0.19051346  1
  Zn  Zn83  1  0.18777781  0.18184523  0.69163479  1
  Zn  Zn84  1  0.19090987  0.69211322  0.19163099  1
  Zn  Zn85  1  0.18876099  0.68874060  0.68769934  1
  Zn  Zn86  1  0.68686525  0.18619607  0.18640521  1
  Zn  Zn87  1  0.69868863  0.17924987  0.64849156  1
  Zn  Zn88  1  0.68242832  0.68405614  0.17190817  1
  Zn  Zn89  1  0.69216400  0.69238540  0.68565944  1
  Zn  Zn90  1  0.31903904  0.31139245  0.31684578  1
  Zn  Zn91  1  0.32128809  0.30838795  0.81326309  1
  Zn  Zn92  1  0.29995130  0.81165732  0.30704778  1
  Zn  Zn93  1  0.30700918  0.81827161  0.81399724  1
  Zn  Zn94  1  0.83627183  0.34524824  0.27651451  1
  Zn  Zn95  1  0.81518717  0.31199174  0.80303032  1
  Zn  Zn96  1  0.78579225  0.77858463  0.29547338  1
  Zn  Zn97  1  0.81066295  0.80004305  0.81663418  1
  Zn  Zn98  1  0.18711158  0.43399376  0.44384441  1
  Zn  Zn99  1  0.18738071  0.43566760  0.93885087  1
  Zn  Zn100  1  0.16028417  0.96876000  0.40174630  1
  Zn  Zn101  1  0.18778738  0.93199753  0.93487283  1
  Zn  Zn102  1  0.75541541  0.40797923  0.42062450  1
  Zn  Zn103  1  0.68903745  0.43640507  0.92919930  1
  Zn  Zn104  1  0.65176202  0.90847249  0.45293290  1
  Zn  Zn105  1  0.68804514  0.93406897  0.93183658  1
  Zn  Zn106  1  0.32420981  0.05924635  0.06260085  1
  Zn  Zn107  1  0.31042601  0.05704365  0.55795281  1
  Zn  Zn108  1  0.30757031  0.56621228  0.06446596  1
  Zn  Zn109  1  0.30972958  0.56016757  0.56551818  1
  Zn  Zn110  1  0.81486758  0.06764497  0.05547686  1
  Zn  Zn111  1  0.81762211  0.05521249  0.57037352  1
  Zn  Zn112  1  0.80706138  0.56044261  0.04701763  1
  Zn  Zn113  1  0.81451381  0.56332057  0.56214637  1
  Zn  Zn114  1  0.44877602  0.44051298  0.19650715  1
  Zn  Zn115  1  0.43771323  0.43589461  0.68653739  1
  Zn  Zn116  1  0.42280481  0.93404621  0.18392490  1
  Zn  Zn117  1  0.43594211  0.94294165  0.69196059  1
  Zn  Zn118  1  0.91214711  0.46607778  0.15293724  1
  Zn  Zn119  1  0.95040529  0.43546355  0.69073734  1
  Zn  Zn120  1  0.94457259  0.93709699  0.20251363  1
  Zn  Zn121  1  0.93225845  0.92519561  0.68015359  1
  Zn  Zn122  1  0.05821146  0.06808963  0.29874109  1
  Zn  Zn123  1  0.08305762  0.04338280  0.84665737  1
  Zn  Zn124  1  0.05376146  0.56847441  0.31264697  1
  Zn  Zn125  1  0.02822780  0.58510203  0.84955825  1
  Zn  Zn126  1  0.54938693  0.04757874  0.30010250  1
  Zn  Zn127  1  0.56750706  0.06571719  0.80681096  1
  Zn  Zn128  1  0.69871056  0.58941461  0.32544349  1
  Zn  Zn129  1  0.55965422  0.55995369  0.81718728  1
  Zn  Zn130  1  0.44669762  0.18524638  0.44830357  1
  Zn  Zn131  1  0.43596932  0.18859676  0.93860873  1
  Zn  Zn132  1  0.44356736  0.68634652  0.43670432  1
  Zn  Zn133  1  0.42928678  0.69201032  0.80511857  1
  Zn  Zn134  1  0.93683116  0.18263126  0.44206526  1
  Zn  Zn135  1  0.92982252  0.18999594  0.93816571  1
  Zn  Zn136  1  0.93250910  0.69349074  0.44032123  1
  Zn  Zn137  1  0.93738198  0.69586902  0.94731960  1
  Zn  Zn138  1  0.06311125  0.30785618  0.07190577  1
  Zn  Zn139  1  0.06492864  0.30848689  0.56442824  1
  Zn  Zn140  1  0.05781983  0.81652131  0.05235176  1
  Zn  Zn141  1  0.05808109  0.81324495  0.55507282  1
  Zn  Zn142  1  0.55921283  0.31009949  0.05822779  1
  Zn  Zn143  1  0.56829022  0.43908014  0.45355274  1
  Zn  Zn144  1  0.54508216  0.79572788  0.06467284  1
  Zn  Zn145  1  0.55267645  0.81548913  0.56231772  1
  O  O146  1  0.10765156  0.12893866  0.13120248  1
  O  O147  1  0.11661464  0.10860372  0.63156755  1
  O  O148  1  0.13950217  0.60843076  0.13120769  1
  O  O149  1  0.13307970  0.60944735  0.62047553  1
  O  O150  1  0.61721935  0.12560920  0.11034001  1
  O  O151  1  0.61645761  0.10199049  0.65234835  1
  O  O152  1  0.61335853  0.62651960  0.10590884  1
  O  O153  1  0.61584093  0.61879906  0.62709951  1
  O  O154  1  0.37140598  0.38637375  0.38745088  1
  O  O155  1  0.36816392  0.38574787  0.88949925  1
  O  O156  1  0.35751638  0.88178525  0.37717692  1
  O  O157  1  0.36468139  0.89087486  0.88318138  1
  O  O158  1  0.86079337  0.39653541  0.37128967  1
  O  O159  1  0.89221370  0.36862735  0.87329075  1
  O  O160  1  0.86948863  0.86426594  0.39418413  1
  O  O161  1  0.87829033  0.88201434  0.87610271  1
  O  O162  1  0.26683627  0.02252520  0.39408867  1
  O  O163  1  0.25646265  0.01502731  0.87540379  1
  O  O164  1  0.24982617  0.50514372  0.37146744  1
  O  O165  1  0.25283001  0.51404104  0.88235688  1
  O  O166  1  0.69933372  0.04140146  0.38791370  1
  O  O167  1  0.75278882  0.01025186  0.85942359  1
  O  O168  1  0.76810783  0.51577867  0.37718402  1
  O  O169  1  0.75248224  0.51611892  0.87813083  1
  O  O170  1  0.24497269  0.49014952  0.13670265  1
  O  O171  1  0.23502393  0.48541124  0.61592773  1
  O  O172  1  0.23843540  0.99904655  0.11480117  1
  O  O173  1  0.23750508  0.98598177  0.61688273  1
  O  O174  1  0.74864105  0.48572880  0.12065813  1
  O  O175  1  0.74697114  0.49954523  0.63353942  1
  O  O176  1  0.75247212  0.99531578  0.12142387  1
  O  O177  1  0.74094554  1.00302184  0.64641425  1
  O  O178  1  0.01273841  0.37189153  0.25211447  1
  O  O179  1  0.01215201  0.36291679  0.76223178  1
  O  O180  1  0.00340504  0.85576347  0.25207397  1
  O  O181  1  0.00711253  0.87912718  0.75785677  1
  O  O182  1  0.52283652  0.36770020  0.25182821  1
  O  O183  1  0.49155940  0.37280473  0.76381480  1
  O  O184  1  0.50860536  0.89954613  0.24994229  1
  O  O185  1  0.50450199  0.87364307  0.75492811  1
  O  O186  1  0.51162124  0.13688703  0.23453759  1
  O  O187  1  0.48565663  0.12057834  0.75310944  1
  O  O188  1  0.48290166  0.62679783  0.25595254  1
  O  O189  1  0.49910729  0.62521500  0.74161751  1
  O  O190  1  0.98044045  0.12854064  0.24140329  1
  O  O191  1  1.00893752  0.13409369  0.74623968  1
  O  O192  1  1.00824189  0.65008514  0.25119670  1
  O  O193  1  0.95458346  0.58777815  0.75625392  1
  O  O194  1  0.36866071  0.26201200  0.01321418  1
  O  O195  1  0.36721128  0.26328909  0.49564215  1
  O  O196  1  0.35466578  0.76696646  -0.01009833  1
  O  O197  1  0.35489213  0.73881649  0.49664129  1
  O  O198  1  0.86177371  0.25684131  0.00871444  1
  O  O199  1  0.88064942  0.24587935  0.51891310  1
  O  O200  1  0.87996504  0.76718692  0.01356484  1
  O  O201  1  0.86502343  0.75684862  0.50829094  1
  O  O202  1  0.14032120  0.25831551  0.48737911  1
  O  O203  1  0.14594078  0.25428904  1.00746817  1
  O  O204  1  0.13074054  0.73969643  0.49302080  1
  O  O205  1  0.13344159  0.75860769  0.97949668  1
  O  O206  1  0.69030195  0.23438573  0.46259286  1
  O  O207  1  0.63488164  0.24404825  0.99765698  1
  O  O208  1  0.63166573  0.73985963  0.51384551  1
  O  O209  1  0.62055116  0.74995350  0.98785828  1
  O  O210  1  0.49828704  0.24506743  0.13270124  1
  O  O211  1  0.52071593  0.24866205  0.63338666  1
  O  O212  1  0.48926084  0.72147633  0.12777291  1
  O  O213  1  0.49454322  0.74110882  0.62643276  1
  O  O214  1  0.98520517  0.24691804  0.13249140  1
  O  O215  1  0.99830584  0.23940577  0.63172883  1
  O  O216  1  0.99565160  0.75274863  0.12645619  1
  O  O217  1  0.99100124  0.74920803  0.61915913  1
  O  O218  1  0.01571219  0.24159370  0.37776371  1
  O  O219  1  0.00289017  0.24706339  0.86489167  1
  O  O220  1  0.01429244  0.74979380  0.37747392  1
  O  O221  1  0.01189588  0.75789219  0.87191820  1
  O  O222  1  0.50028040  0.24102942  0.36067665  1
  O  O223  1  0.49178692  0.26820465  0.88213460  1
  O  O224  1  0.49737796  0.76657504  0.38293072  1
  O  O225  1  0.51012573  0.74226094  0.87180122  1
  O  O226  1  0.25798045  0.14228112  0.49427624  1
  O  O227  1  0.25592321  0.12988979  0.99274248  1
  O  O228  1  0.24032773  0.62893725  0.49578611  1
  O  O229  1  0.25346424  0.63960001  0.99351063  1
  O  O230  1  0.73441578  0.13211590  0.54044268  1
  O  O231  1  0.73872274  0.13177460  0.99143149  1
  O  O232  1  0.73344630  0.63107582  0.50757741  1
  O  O233  1  0.73164953  0.62783575  0.99323826  1
  O  O234  1  0.25860956  0.36876529  0.01418565  1
  O  O235  1  0.25701002  0.36430040  0.50771517  1
  O  O236  1  0.25105619  0.86805917  0.00329166  1
  O  O237  1  0.24864367  0.86119044  0.51055303  1
  O  O238  1  0.74879086  0.36932342  0.00753143  1
  O  O239  1  0.75916717  0.37983226  0.52914098  1
  O  O240  1  0.76652637  0.87341669  -0.00835973  1
  O  O241  1  0.75075442  0.86857454  0.50187822  1
  O  O242  1  0.13292432  0.48816836  0.24891164  1
  O  O243  1  0.11921630  0.48582571  0.73542108  1
  O  O244  1  0.13993220  0.99518821  0.29061961  1
  O  O245  1  0.12831201  0.98803583  0.74528571  1
  O  O246  1  0.63097779  0.49551554  0.26476881  1
  O  O247  1  0.63120728  0.50665069  0.74303778  1
  O  O248  1  0.64005199  0.99308127  0.24294040  1
  O  O249  1  0.63164192  0.98190285  0.75376224  1
  O  O250  1  0.35727555  -0.00671479  0.26443083  1
  O  O251  1  0.37010137  0.00554045  0.76404907  1
  O  O252  1  0.36838723  0.50029572  0.26639151  1
  O  O253  1  0.36347222  0.48808824  0.76273831  1
  O  O254  1  0.86203870  0.01078890  0.24683086  1
  O  O255  1  0.85858407  -0.01093522  0.75672708  1
  O  O256  1  0.88258027  0.50932900  0.25320836  1
  O  O257  1  0.90673583  0.52463979  0.75437653  1
  O  O258  1  0.13416795  0.36562382  0.36429974  1
  O  O259  1  0.12582960  0.36494575  0.86798294  1
  O  O260  1  0.13491323  0.85772714  0.38802525  1
  O  O261  1  0.11820378  0.86605678  0.86223386  1
  O  O262  1  0.64233831  0.38628596  0.37900566  1
  O  O263  1  0.60888019  0.37892276  0.87530030  1
  O  O264  1  0.63310178  0.86803983  0.34900426  1
  O  O265  1  0.62341167  0.86204472  0.86771494  1
  O  O266  1  0.39177191  0.13799911  0.11526262  1
  O  O267  1  0.36892449  0.11330817  0.63864058  1
  O  O268  1  0.37784448  0.61560470  0.14009468  1
  O  O269  1  0.38889836  0.61639286  0.62178626  1
  O  O270  1  0.87789721  0.13532338  0.12770584  1
  O  O271  1  0.88669099  0.13157739  0.63275348  1
  O  O272  1  0.87984093  0.63142161  0.11106873  1
  O  O273  1  0.87449341  0.64145254  0.61826764  1
  O  O274  1  0.26125883  0.25520963  0.12656349  1
  O  O275  1  0.24202147  0.25494939  0.61202968  1
  O  O276  1  0.23647724  0.76107226  0.10778343  1
  O  O277  1  0.24179939  0.75961818  0.61391152  1
  O  O278  1  0.75125936  0.25396951  0.11396903  1
  O  O279  1  0.76763230  0.26881842  0.64249607  1
  O  O280  1  0.77030721  0.74666993  0.11775225  1
  O  O281  1  0.76030322  0.74973652  0.61370954  1
  O  O282  1  0.24848455  0.24458866  0.38216260  1
  O  O283  1  0.26172653  0.23885949  0.88854069  1
  O  O284  1  0.24048027  0.73952833  0.38457403  1
  O  O285  1  0.24047086  0.73980790  0.88016562  1
  O  O286  1  0.74458625  0.18398148  0.47074337  1
  O  O287  1  0.76042279  0.23976959  0.87953652  1
  O  O288  1  0.75200793  0.74974634  0.40315144  1
  O  O289  1  0.73518964  0.73911318  0.88066289  1
  O  O290  1  -0.00853977  0.13181100  0.01587759  1
  O  O291  1  -0.00800250  0.10862611  0.51394719  1
  O  O292  1  0.01330661  0.61775687  -0.04060287  1
  O  O293  1  0.01297537  0.61791571  0.49552599  1
  O  O294  1  0.51432727  0.13094745  0.00672235  1
  O  O295  1  0.50794672  0.10078846  0.49395884  1
  O  O296  1  0.50693063  0.61802015  0.00424102  1
  O  O297  1  0.50967472  0.62934094  0.51715203  1
  O  O298  1  0.48655750  0.37262787  0.50375876  1
  O  O299  1  0.48464327  0.37707223  0.99637466  1
  O  O300  1  0.53348185  0.90020484  0.48624637  1
  O  O301  1  0.47946198  0.86761896  1.00443021  1
  O  O302  1  1.00786790  0.38171901  0.49637640  1
  O  O303  1  1.00480792  0.35703638  0.98481138  1
  O  O304  1  0.99080449  0.88876616  0.49538136  1
  O  O305  1  0.98671175  0.87635275  0.97978622  1
  O  O306  1  0.48876897  0.49703600  0.38252391  1
  O  O307  1  0.48036402  0.49041668  0.87222354  1
  O  O308  1  0.47646885  1.00219973  0.37758103  1
  O  O309  1  0.49119822  1.00106149  0.87278932  1
  O  O310  1  0.99455178  0.49759084  0.38305678  1
  O  O311  1  1.01262759  0.47521535  0.88160263  1
  O  O312  1  0.99768944  1.01275852  0.38808687  1
  O  O313  1  0.97879957  0.99588706  0.86045282  1
  O  O314  1  -0.00718624  0.01712727  0.12966679  1
  O  O315  1  0.00209146  0.00405414  0.62381252  1
  O  O316  1  0.02141648  0.49935096  0.13336839  1
  O  O317  1  0.01676161  0.49247382  0.61163433  1
  O  O318  1  0.49015906  0.01857210  0.12944348  1
  O  O319  1  0.50565158  -0.00764868  0.61315200  1
  O  O320  1  0.49946702  0.51853840  0.13562931  1
  O  O321  1  0.51213393  0.50468412  0.63284189  1
  O  O322  1  0.25241687  0.38135844  0.24526382  1
  O  O323  1  0.24301616  0.36106370  0.73922071  1
  O  O324  1  0.25004642  0.87300157  0.22199115  1
  O  O325  1  0.23806427  0.87746254  0.73432811  1
  O  O326  1  0.72654725  0.36883490  0.23633316  1
  O  O327  1  0.77290275  0.39240415  0.73719233  1
  O  O328  1  0.75645778  0.88972383  0.24695305  1
  O  O329  1  0.74140138  0.87676387  0.75514129  1
  O  O330  1  0.25359995  0.12806690  0.26187450  1
  O  O331  1  0.26294474  0.12509069  0.76203930  1
  O  O332  1  0.25287267  0.61272229  0.26102370  1
  O  O333  1  0.25036126  0.62166208  0.75918251  1
  O  O334  1  0.75645224  0.11046113  0.24195500  1
  O  O335  1  0.73982752  0.13435236  0.75935782  1
  O  O336  1  0.73774992  0.67352660  0.26545794  1
  O  O337  1  0.74618344  0.62630559  0.76656568  1
  O  O338  1  0.36769319  0.13500066  0.37407557  1
  O  O339  1  0.37146069  0.11517543  0.87338407  1
  O  O340  1  0.36699841  0.61088956  0.37403932  1
  O  O341  1  0.36358267  0.61134815  0.87015600  1
  O  O342  1  0.86973331  0.13108900  0.36224741  1
  O  O343  1  0.86050779  0.11313520  0.87641780  1
  O  O344  1  0.88675336  0.61318127  0.37550267  1
  O  O345  1  0.85597670  0.63867047  0.88685723  1
  O  O346  1  0.13609174  0.37382789  0.14247616  1
  O  O347  1  0.13236905  0.37893954  0.63121561  1
  O  O348  1  0.13103582  0.88359959  0.11009160  1
  O  O349  1  0.12289504  0.88223630  0.62924097  1
  O  O350  1  0.63033887  0.37784456  0.11951773  1
  O  O351  1  0.63774616  0.39443233  0.62986144  1
  O  O352  1  0.62406874  0.85018392  0.13906547  1
  O  O353  1  0.61756868  0.88176670  0.64393019  1
  O  O354  1  0.12585323  0.26166445  0.26190948  1
  O  O355  1  0.11500729  0.25718208  0.74572390  1
  O  O356  1  0.12312343  0.75130101  0.26426583  1
  O  O357  1  0.13092693  0.76167075  0.75804254  1
  O  O358  1  0.61937879  0.25099794  0.25428436  1
  O  O359  1  0.57518333  0.25511773  0.68165706  1
  O  O360  1  0.62492684  0.78898067  0.20115117  1
  O  O361  1  0.62546244  0.75946694  0.75967640  1
  O  O362  1  0.39336041  0.26440540  0.24004312  1
  O  O363  1  0.37528064  0.23602158  0.74593461  1
  O  O364  1  0.36224740  0.73092567  0.25799113  1
  O  O365  1  0.35732108  0.74930665  0.74592183  1
  O  O366  1  0.86560142  0.23619838  0.24307472  1
  O  O367  1  0.89598692  0.25008322  0.74090953  1
  O  O368  1  0.88618743  0.75410086  0.22937071  1
  O  O369  1  0.87495527  0.75779349  0.73523338  1
  O  O370  1  0.36813065  0.48905384  0.48969972  1
  O  O371  1  0.36657901  0.48909562  0.99955119  1
  O  O372  1  0.38477091  0.99230994  0.49537240  1
  O  O373  1  0.37628926  0.99194400  0.98596073  1
  O  O374  1  0.89384271  0.49985251  0.50297055  1
  O  O375  1  0.89207432  0.48310004  1.03484229  1
  O  O376  1  0.87872532  0.98802558  0.50295687  1
  O  O377  1  0.86686828  0.99321559  0.97943144  1
  O  O378  1  0.10991651  0.00795554  -0.04045800  1
  O  O379  1  0.10697846  -0.00623856  0.50674747  1
  O  O380  1  0.12666815  0.48964736  0.02032236  1
  O  O381  1  0.11704063  0.50340776  0.50511000  1
  O  O382  1  0.62901259  0.01177557  -0.00579332  1
  O  O383  1  0.63762664  0.00116844  0.52733374  1
  O  O384  1  0.62237807  0.50758932  -0.00558282  1
  O  O385  1  0.62519184  0.51372627  0.51959399  1
  O  O386  1  0.37205244  0.37363276  0.12007043  1
  O  O387  1  0.36579366  0.38433293  0.61131531  1
  O  O388  1  0.35640301  0.88741161  0.10451313  1
  O  O389  1  0.35891185  0.88097407  0.62883785  1
  O  O390  1  0.85398223  0.36110641  0.14744421  1
  O  O391  1  0.88959161  0.36325188  0.62629558  1
  O  O392  1  0.88492028  0.89024252  0.10694943  1
  O  O393  1  0.87654577  0.86105030  0.60793359  1
  O  O394  1  0.13969743  0.14252906  0.37240471  1
  O  O395  1  0.14780546  0.13617934  0.86518935  1
  O  O396  1  0.13395304  0.62721565  0.38281688  1
  O  O397  1  0.13412360  0.63912806  0.85927272  1
  O  O398  1  0.64342362  0.09023213  0.37724024  1
  O  O399  1  0.63656371  0.12434999  0.88236044  1
  O  O400  1  0.61226958  0.61710522  0.39809868  1
  O  O401  1  0.62483270  0.63219078  0.88503263  1
