# generated using pymatgen
data_V73Zn73O256
_symmetry_space_group_name_H-M   'P 1'
_cell_length_a   16.86511988
_cell_length_b   16.86369496
_cell_length_c   16.84907198
_cell_angle_alpha   90.11256423
_cell_angle_beta   90.05903043
_cell_angle_gamma   90.05385994
_symmetry_Int_Tables_number   1
_chemical_formula_structural   V73Zn73O256
_chemical_formula_sum   'V73 Zn73 O256'
_cell_volume   4792.00094315
_cell_formula_units_Z   1
loop_
 _symmetry_equiv_pos_site_id
 _symmetry_equiv_pos_as_xyz
  1  'x, y, z'
loop_
 _atom_site_type_symbol
 _atom_site_label
 _atom_site_symmetry_multiplicity
 _atom_site_fract_x
 _atom_site_fract_y
 _atom_site_fract_z
 _atom_site_occupancy
  V  V0  1  0.74582685  0.00097777  0.74455934  1
  V  V1  1  0.49691624  0.63508834  0.61844926  1
  V  V2  1  0.75348480  0.74909560  0.00366110  1
  V  V3  1  0.00196790  -0.01176245  0.50288237  1
  V  V4  1  0.64101173  0.75707547  0.37193681  1
  V  V5  1  0.12832201  0.12223920  0.49654412  1
  V  V6  1  0.12677999  0.61744917  -0.00989854  1
  V  V7  1  0.49977701  0.13730989  0.13704424  1
  V  V8  1  -0.00582284  0.62851803  0.61451927  1
  V  V9  1  0.12248303  0.87741552  0.75710025  1
  V  V10  1  0.50328458  0.76197931  0.25812609  1
  V  V11  1  0.87867217  0.25565326  0.12226050  1
  V  V12  1  0.87934479  -0.00740609  0.37341241  1
  V  V13  1  0.35106811  0.13412659  0.25355528  1
  V  V14  1  0.37465927  0.76077439  0.12450232  1
  V  V15  1  0.26675999  0.87401948  0.61627461  1
  V  V16  1  0.48880906  -0.00203784  0.00283693  1
  V  V17  1  -0.00154912  0.74311056  0.75191838  1
  V  V18  1  0.36007018  0.50640963  0.86456127  1
  V  V19  1  0.48885285  0.87942129  0.88205362  1
  V  V20  1  0.12790432  -0.00142899  0.62880856  1
  V  V21  1  0.12492983  0.37909225  0.25067128  1
  V  V22  1  0.25526174  0.75571523  -0.00255398  1
  V  V23  1  0.49306379  0.36852272  0.86292361  1
  V  V24  1  0.63309584  0.12244005  0.00182838  1
  V  V25  1  0.23363746  0.88439241  0.13289755  1
  V  V26  1  0.48991975  0.50017096  -0.00081184  1
  V  V27  1  0.94504796  0.42417803  0.93679455  1
  V  V28  1  0.51475963  0.12181868  0.61711034  1
  V  V29  1  0.84984344  0.62030294  0.27553346  1
  V  V30  1  0.75011009  0.12720982  0.39181532  1
  V  V31  1  0.36583400  -0.00801325  0.37021018  1
  V  V32  1  0.38441546  0.13464348  0.75155038  1
  V  V33  1  0.37603835  0.65144140  0.74817854  1
  V  V34  1  0.49393751  0.38628277  0.36595645  1
  V  V35  1  0.61761138  0.23959698  0.38664877  1
  V  V36  1  -0.00471494  0.12513371  0.64544978  1
  V  V37  1  0.87797091  0.87391051  -0.01159959  1
  V  V38  1  0.12000897  0.25869958  0.86065185  1
  V  V39  1  0.25813988  0.13591393  0.88733155  1
  V  V40  1  0.49440035  0.62562068  0.12688850  1
  V  V41  1  0.11905220  0.77987360  0.37111586  1
  V  V42  1  0.25285840  0.37286252  0.12686742  1
  V  V43  1  -0.00730163  0.23495922  0.24849704  1
  V  V44  1  0.86566486  0.25269276  0.62683111  1
  V  V45  1  0.63269159  0.35762499  0.24289646  1
  V  V46  1  0.62867825  -0.00581341  0.12952134  1
  V  V47  1  0.25660095  0.74022436  0.49099538  1
  V  V48  1  0.63864326  0.62453068  0.49193187  1
  V  V49  1  0.63337805  0.49688781  0.13129256  1
  V  V50  1  0.85908320  0.87040384  0.51124944  1
  V  V51  1  0.11725434  0.50612508  0.12995922  1
  V  V52  1  0.10161145  0.13335639  -0.00002573  1
  V  V53  1  0.74660149  -0.00062181  0.25451517  1
  V  V54  1  0.37451332  0.25120415  0.61454484  1
  V  V55  1  0.76385252  0.61922650  0.86948479  1
  V  V56  1  0.26235551  0.00123261  0.76120899  1
  V  V57  1  0.62274295  0.62326307  -0.00493303  1
  V  V58  1  0.75570864  0.13134785  0.87107211  1
  V  V59  1  0.61676934  0.75311120  0.87366912  1
  V  V60  1  0.62903144  0.36876031  0.74108837  1
  V  V61  1  0.75393860  0.87211307  0.12978862  1
  V  V62  1  0.12915144  0.75157680  0.87406315  1
  V  V63  1  0.14884113  0.52152700  0.63344822  1
  V  V64  1  0.74685289  0.26831015  0.00441944  1
  V  V65  1  0.36814701  0.36094911  0.00322246  1
  V  V66  1  0.36494648  0.61281511  0.25970581  1
  V  V67  1  0.87917821  0.00179550  0.87541530  1
  V  V68  1  -0.01085258  0.64826094  0.12498038  1
  V  V69  1  0.62281533  0.88050114  0.74700924  1
  V  V70  1  -0.01072787  0.38157550  0.37520718  1
  V  V71  1  0.37662491  0.38934732  0.49358422  1
  V  V72  1  0.12865124  0.24176806  0.37168235  1
  Zn  Zn73  1  0.00848705  -0.00110419  0.02109594  1
  Zn  Zn74  1  0.25103340  0.24724259  0.49582900  1
  Zn  Zn75  1  0.48861006  0.00459594  0.49706862  1
  Zn  Zn76  1  0.61361475  0.24356083  0.86893266  1
  Zn  Zn77  1  0.00746607  0.49749308  0.50288602  1
  Zn  Zn78  1  0.61892223  0.49823923  0.62049314  1
  Zn  Zn79  1  0.75363871  0.49942082  0.74929199  1
  Zn  Zn80  1  0.85351963  0.74944181  0.61788320  1
  Zn  Zn81  1  0.76843351  0.38229739  0.59820972  1
  Zn  Zn82  1  0.18038813  0.19015685  0.17738295  1
  Zn  Zn83  1  0.19408751  0.18435342  0.68300242  1
  Zn  Zn84  1  0.18386763  0.69185897  0.19175030  1
  Zn  Zn85  1  0.19298843  0.69197597  0.68269130  1
  Zn  Zn86  1  0.71000441  0.17783317  0.18144002  1
  Zn  Zn87  1  0.69179889  0.19854957  0.68740486  1
  Zn  Zn88  1  0.69073928  0.68313151  0.19108625  1
  Zn  Zn89  1  0.67832471  0.68737807  0.68519223  1
  Zn  Zn90  1  0.31235779  0.31148557  0.30809784  1
  Zn  Zn91  1  0.29967440  0.31418746  0.80437517  1
  Zn  Zn92  1  0.30991061  0.81101426  0.30998243  1
  Zn  Zn93  1  0.31034631  0.81692490  0.81424021  1
  Zn  Zn94  1  0.80758492  0.31126598  0.31223553  1
  Zn  Zn95  1  0.84429982  0.34476277  0.79011329  1
  Zn  Zn96  1  0.82476478  0.80733558  0.31041083  1
  Zn  Zn97  1  0.79167130  0.79255960  0.78580905  1
  Zn  Zn98  1  0.17354929  0.41859060  0.45776287  1
  Zn  Zn99  1  0.18391124  0.43537320  0.93639819  1
  Zn  Zn100  1  0.19338770  0.94039674  0.43208321  1
  Zn  Zn101  1  0.18853614  0.94316136  0.94684834  1
  Zn  Zn102  1  0.66004015  0.42996883  0.43874357  1
  Zn  Zn103  1  0.67618817  0.44182377  0.92899901  1
  Zn  Zn104  1  0.68728726  0.93071130  0.43600206  1
  Zn  Zn105  1  0.69003173  0.93957204  0.93632262  1
  Zn  Zn106  1  0.31316065  0.06615177  0.07589567  1
  Zn  Zn107  1  0.31551418  0.06037929  0.56270499  1
  Zn  Zn108  1  0.30351675  0.56336215  0.06883298  1
  Zn  Zn109  1  0.32337000  0.57274875  0.56009886  1
  Zn  Zn110  1  0.84239834  0.06463316  0.07888248  1
  Zn  Zn111  1  0.81753091  0.06282761  0.56420297  1
  Zn  Zn112  1  0.81930543  0.55206943  0.05240338  1
  Zn  Zn113  1  0.80406491  0.57047189  0.57829150  1
  Zn  Zn114  1  0.44184378  0.43359757  0.18942284  1
  Zn  Zn115  1  0.43296724  0.44505105  0.67852389  1
  Zn  Zn116  1  0.43323028  0.94483792  0.19317285  1
  Zn  Zn117  1  0.44596999  0.93946129  0.68933941  1
  Zn  Zn118  1  0.92836458  0.43953693  0.17787389  1
  Zn  Zn119  1  0.92902146  0.45005175  0.68200620  1
  Zn  Zn120  1  0.93005980  0.94358786  0.17773385  1
  Zn  Zn121  1  0.93546372  0.93664557  0.69331486  1
  Zn  Zn122  1  0.06237856  0.05621720  0.31316127  1
  Zn  Zn123  1  0.07071622  0.06257820  0.82654821  1
  Zn  Zn124  1  0.01157708  0.54852031  0.28919193  1
  Zn  Zn125  1  0.06074935  0.55295475  0.80907827  1
  Zn  Zn126  1  0.56147765  0.05708598  0.31475301  1
  Zn  Zn127  1  0.56223532  0.06027949  0.81527802  1
  Zn  Zn128  1  0.56300750  0.56896173  0.31077113  1
  Zn  Zn129  1  0.55165416  0.55528323  0.80278497  1
  Zn  Zn130  1  0.43864134  0.17217618  0.43014271  1
  Zn  Zn131  1  0.43819157  0.18194015  0.94417774  1
  Zn  Zn132  1  0.43533009  0.69092902  0.43764735  1
  Zn  Zn133  1  0.43413727  0.68655328  0.93375846  1
  Zn  Zn134  1  0.93771287  0.17555792  0.43808658  1
  Zn  Zn135  1  0.92975570  0.22325253  0.92042254  1
  Zn  Zn136  1  0.93619722  0.69166412  0.43116777  1
  Zn  Zn137  1  0.94414351  0.68601910  0.93753590  1
  Zn  Zn138  1  0.07092046  0.30561277  0.05924333  1
  Zn  Zn139  1  0.01875381  0.28340703  0.54055159  1
  Zn  Zn140  1  0.06190067  0.81306888  0.05585537  1
  Zn  Zn141  1  0.07227563  0.80701558  0.56234139  1
  Zn  Zn142  1  0.56352682  0.31387386  0.05641609  1
  Zn  Zn143  1  0.55036529  0.30663507  0.56084929  1
  Zn  Zn144  1  0.56365547  0.81287128  0.06319582  1
  Zn  Zn145  1  0.57132041  0.80366820  0.56294238  1
  O  O146  1  0.12097357  0.13236664  0.09967231  1
  O  O147  1  0.12047353  0.11168018  0.62365023  1
  O  O148  1  0.12018900  0.61722310  0.11850346  1
  O  O149  1  0.11743823  0.62390986  0.62482220  1
  O  O150  1  0.62338418  0.11537753  0.11890816  1
  O  O151  1  0.61227603  0.13268792  0.63621352  1
  O  O152  1  0.61605194  0.61664012  0.11440793  1
  O  O153  1  0.61761752  0.62622293  0.61150211  1
  O  O154  1  0.38640980  0.37059764  0.37586796  1
  O  O155  1  0.37740751  0.38361265  0.88794071  1
  O  O156  1  0.37671923  0.89195942  0.35916089  1
  O  O157  1  0.38981900  0.87687627  0.87566341  1
  O  O158  1  0.89121219  0.37269677  0.36032689  1
  O  O159  1  0.89841287  0.33964545  0.88967776  1
  O  O160  1  0.86894149  0.88607431  0.38960818  1
  O  O161  1  0.86625161  0.88687664  0.88391483  1
  O  O162  1  0.26289341  0.00331279  0.37025541  1
  O  O163  1  0.25020008  0.00773564  0.86502673  1
  O  O164  1  0.21721902  0.52381330  0.38638454  1
  O  O165  1  0.26224113  0.50142285  0.88212378  1
  O  O166  1  0.75390298  0.00302735  0.37431805  1
  O  O167  1  0.75312837  0.01373990  0.87021922  1
  O  O168  1  0.81795890  0.46752944  0.45256670  1
  O  O169  1  0.74392541  0.51798568  0.88118086  1
  O  O170  1  0.23146793  0.48908931  0.12043061  1
  O  O171  1  0.24816120  0.51800891  0.62661338  1
  O  O172  1  0.25123266  0.98259583  0.11402909  1
  O  O173  1  0.24534301  0.99587186  0.63805543  1
  O  O174  1  0.73082620  0.50305622  0.11220953  1
  O  O175  1  0.73987836  0.49082295  0.63013697  1
  O  O176  1  0.74750119  0.99431350  0.13545038  1
  O  O177  1  0.75540858  1.00941221  0.64590238  1
  O  O178  1  0.01074093  0.37173254  0.25603507  1
  O  O179  1  0.03529259  0.37065671  0.72740637  1
  O  O180  1  0.03127316  0.91323197  0.23621571  1
  O  O181  1  0.01763597  0.86763203  0.74437625  1
  O  O182  1  0.50959697  0.36964510  0.25823663  1
  O  O183  1  0.49339674  0.37665417  0.76104336  1
  O  O184  1  0.50079721  0.85970708  0.23713425  1
  O  O185  1  0.51207667  0.89139307  0.77211712  1
  O  O186  1  0.51409297  0.12969254  0.23605948  1
  O  O187  1  0.48740790  0.11885914  0.74807496  1
  O  O188  1  0.49349164  0.63206617  0.23822463  1
  O  O189  1  0.48839004  0.62640060  0.74236840  1
  O  O190  1  1.00403378  0.13626575  0.25103303  1
  O  O191  1  1.00387104  0.10700340  0.74295742  1
  O  O192  1  1.01189292  0.63920353  0.22532900  1
  O  O193  1  1.00578534  0.63889306  0.74549604  1
  O  O194  1  0.37565293  0.26278771  0.00211775  1
  O  O195  1  0.37512823  0.24166038  0.50718133  1
  O  O196  1  0.36137744  0.74145557  0.00662596  1
  O  O197  1  0.35769834  0.75898335  0.48908887  1
  O  O198  1  0.85908576  0.24746584  0.01418550  1
  O  O199  1  0.90438252  0.24293192  0.52240237  1
  O  O200  1  0.86465525  0.76256176  -0.01412039  1
  O  O201  1  0.87875112  0.76726005  0.50033509  1
  O  O202  1  0.11848478  0.23953954  0.48873073  1
  O  O203  1  0.12662255  0.23863537  0.98224928  1
  O  O204  1  0.14258813  0.76325897  0.48650609  1
  O  O205  1  0.13412904  0.74545539  0.99013173  1
  O  O206  1  0.62935766  0.26293588  0.48392737  1
  O  O207  1  0.63184900  0.24280214  0.99169910  1
  O  O208  1  0.62128638  0.73987381  0.48204977  1
  O  O209  1  0.63160048  0.74150182  0.99501903  1
  O  O210  1  0.50761447  0.23498761  0.11655658  1
  O  O211  1  0.48517351  0.23467185  0.62496229  1
  O  O212  1  0.49513633  0.74226983  0.12578559  1
  O  O213  1  0.50878013  0.73705995  0.62957339  1
  O  O214  1  0.98773569  0.25084326  0.13389347  1
  O  O215  1  1.01294101  0.22630973  0.63877560  1
  O  O216  1  0.99253835  0.74854056  0.11665681  1
  O  O217  1  1.00855253  0.74195717  0.63685385  1
  O  O218  1  0.00544739  0.25430665  0.36329334  1
  O  O219  1  0.02129792  0.23824004  0.85437235  1
  O  O220  1  0.02375283  0.74562260  0.38584263  1
  O  O221  1  0.01833629  0.74612592  0.86503895  1
  O  O222  1  0.51621357  0.24267477  0.37272232  1
  O  O223  1  0.49190409  0.26547493  0.88169310  1
  O  O224  1  0.49979151  0.75281506  0.35978601  1
  O  O225  1  0.50600396  0.76800620  0.89237035  1
  O  O226  1  0.23137960  0.12550866  0.50999474  1
  O  O227  1  0.26278077  0.12036134  0.98681082  1
  O  O228  1  0.25295446  0.64009560  0.50059712  1
  O  O229  1  0.23434009  0.64021415  1.00956860  1
  O  O230  1  0.74503347  0.11554574  0.49142713  1
  O  O231  1  0.74110797  0.12867281  0.99389642  1
  O  O232  1  0.73787744  0.63175318  0.50584590  1
  O  O233  1  0.74117378  0.63063822  0.99210423  1
  O  O234  1  0.26277732  0.38034339  0.00796946  1
  O  O235  1  0.27208147  0.36648614  0.48552951  1
  O  O236  1  0.24813236  0.86101188  0.00533183  1
  O  O237  1  0.25503567  0.88895193  0.51701328  1
  O  O238  1  0.74070320  0.36480147  -0.01682805  1
  O  O239  1  0.76748929  0.39974104  0.47528992  1
  O  O240  1  0.75465364  0.86533108  0.00361237  1
  O  O241  1  0.75964364  0.87777269  0.50937930  1
  O  O242  1  0.11611073  0.49350487  0.23798802  1
  O  O243  1  0.12655224  0.50107879  0.73107684  1
  O  O244  1  0.08331936  0.97056195  0.23481460  1
  O  O245  1  0.13613742  0.99541200  0.74875513  1
  O  O246  1  0.62019512  0.49968494  0.23344129  1
  O  O247  1  0.62517494  0.48080370  0.75406784  1
  O  O248  1  0.63186292  0.99735010  0.24019020  1
  O  O249  1  0.63329063  0.99294969  0.75458249  1
  O  O250  1  0.38174388  0.02026481  0.25863399  1
  O  O251  1  0.36544908  0.00872476  0.74882167  1
  O  O252  1  0.37979622  0.51332934  0.24238162  1
  O  O253  1  0.36897357  0.49271386  0.76383948  1
  O  O254  1  0.86845783  -0.01037115  0.26903056  1
  O  O255  1  0.85975073  -0.00914005  0.76557041  1
  O  O256  1  0.89900688  0.52716583  0.24580402  1
  O  O257  1  0.85966510  0.45801957  0.76645719  1
  O  O258  1  0.11874119  0.36443405  0.36711576  1
  O  O259  1  0.13234857  0.35910717  0.87557506  1
  O  O260  1  0.11663674  0.88226680  0.37286676  1
  O  O261  1  0.13556981  0.86697807  0.86759339  1
  O  O262  1  0.61354979  0.36095138  0.36194363  1
  O  O263  1  0.60351525  0.37360055  0.86828067  1
  O  O264  1  0.62965971  0.85729576  0.36871472  1
  O  O265  1  0.61759859  0.86870434  0.87701883  1
  O  O266  1  0.39308375  0.12089084  0.13771055  1
  O  O267  1  0.37928824  0.13149765  0.63520822  1
  O  O268  1  0.38271929  0.63375063  0.12603524  1
  O  O269  1  0.38701328  0.63180069  0.63561660  1
  O  O270  1  0.83149399  0.16107187  0.14225816  1
  O  O271  1  0.88935923  0.12860329  0.62758870  1
  O  O272  1  0.89089476  0.62291092  0.10854142  1
  O  O273  1  0.88794415  0.63623554  0.62417098  1
  O  O274  1  0.23882526  0.27386532  0.12028048  1
  O  O275  1  0.26817757  0.24677840  0.61979494  1
  O  O276  1  0.25469415  0.75883208  0.11542543  1
  O  O277  1  0.24496853  0.76858503  0.61087286  1
  O  O278  1  0.73433235  0.26642983  0.10624393  1
  O  O279  1  0.76055588  0.25740542  0.61372297  1
  O  O280  1  0.74088504  0.75544150  0.11279058  1
  O  O281  1  0.76073044  0.76028657  0.67700598  1
  O  O282  1  0.23144855  0.25211986  0.37153830  1
  O  O283  1  0.25569804  0.23890967  0.87831843  1
  O  O284  1  0.23907499  0.75930570  0.38419252  1
  O  O285  1  0.24579595  0.75206216  0.88775116  1
  O  O286  1  0.74673412  0.23194086  0.37280890  1
  O  O287  1  0.74976517  0.23472548  0.88482832  1
  O  O288  1  0.73997244  0.74820438  0.36617774  1
  O  O289  1  0.73747450  0.73810234  0.88228740  1
  O  O290  1  0.00123430  0.13925524  -0.01251611  1
  O  O291  1  0.01127176  0.10936530  0.51145769  1
  O  O292  1  0.02002181  0.63485849  0.00884575  1
  O  O293  1  -0.00072830  0.62456485  0.51197512  1
  O  O294  1  0.51026139  0.11446868  0.00702446  1
  O  O295  1  0.50777238  0.12646621  0.51301172  1
  O  O296  1  0.50338457  0.62038880  0.00617510  1
  O  O297  1  0.49890610  0.62980148  0.51208878  1
  O  O298  1  0.48991900  0.36807995  0.47891075  1
  O  O299  1  0.48571505  0.38324914  0.99864811  1
  O  O300  1  0.54367375  0.89790953  0.50102886  1
  O  O301  1  0.50357691  0.88853304  0.99691221  1
  O  O302  1  1.00183052  0.37510482  0.47954728  1
  O  O303  1  1.00475864  0.37789224  1.00449547  1
  O  O304  1  1.00051859  0.88650489  0.50972008  1
  O  O305  1  0.98153817  0.87990706  1.00139530  1
  O  O306  1  0.50586264  0.48478621  0.36891557  1
  O  O307  1  0.48813641  0.48854867  0.88284779  1
  O  O308  1  0.48256705  1.01905904  0.38131580  1
  O  O309  1  0.50596117  0.99298340  0.89372427  1
  O  O310  1  1.00922069  0.48714020  0.38202437  1
  O  O311  1  1.00126244  0.48402347  0.87432550  1
  O  O312  1  0.98442546  1.00504859  0.38582585  1
  O  O313  1  0.97986738  1.00676046  0.87655217  1
  O  O314  1  -0.05059630  0.03038123  0.11035139  1
  O  O315  1  0.00922625  0.00333266  0.62329155  1
  O  O316  1  0.01488259  0.50071396  0.11955403  1
  O  O317  1  -0.00349344  0.52044742  0.62664956  1
  O  O318  1  0.51051192  0.00441444  0.11748821  1
  O  O319  1  0.49391813  0.01737048  0.62200134  1
  O  O320  1  0.50351919  0.50812040  0.11595710  1
  O  O321  1  0.50412241  0.51841842  0.63015723  1
  O  O322  1  0.23934948  0.37542110  0.23969116  1
  O  O323  1  0.27512818  0.38940248  0.72934554  1
  O  O324  1  0.24898920  0.87068514  0.23172567  1
  O  O325  1  0.24664056  0.88674655  0.74529121  1
  O  O326  1  0.72973264  0.38019652  0.25997149  1
  O  O327  1  0.73013091  0.36575590  0.75214710  1
  O  O328  1  0.76073065  0.88062551  0.23922891  1
  O  O329  1  0.73353800  0.89228351  0.76569593  1
  O  O330  1  0.25220296  0.12250595  0.23260445  1
  O  O331  1  0.26092166  0.11422489  0.75718186  1
  O  O332  1  0.26679630  0.62810710  0.23950513  1
  O  O333  1  0.27423445  0.63995867  0.74392470  1
  O  O334  1  0.74688653  0.10449763  0.26555577  1
  O  O335  1  0.74015259  0.11796139  0.76413421  1
  O  O336  1  0.75042386  0.60921847  0.25280143  1
  O  O337  1  0.73861344  0.62156683  0.76810526  1
  O  O338  1  0.36134690  0.12899679  0.35908844  1
  O  O339  1  0.37013316  0.13023206  0.86268053  1
  O  O340  1  0.37907806  0.62588029  0.35901649  1
  O  O341  1  0.38248420  0.61439375  0.86071319  1
  O  O342  1  0.86134981  0.10716333  0.38397565  1
  O  O343  1  0.86142405  0.11778656  0.88203994  1
  O  O344  1  0.86784092  0.61838450  0.37698285  1
  O  O345  1  0.86320400  0.63000793  0.87697721  1
  O  O346  1  0.13009415  0.38369339  0.13008062  1
  O  O347  1  0.08830055  0.36024478  0.67769263  1
  O  O348  1  0.13347861  0.87499651  0.11573506  1
  O  O349  1  0.13585048  0.88624432  0.63550569  1
  O  O350  1  0.61521981  0.38551163  0.13395336  1
  O  O351  1  0.61500585  0.37128882  0.63470105  1
  O  O352  1  0.63932977  0.88496451  0.11560525  1
  O  O353  1  0.61801345  0.86901773  0.64950190  1
  O  O354  1  0.11287720  0.25650156  0.25144659  1
  O  O355  1  0.14911230  0.24822839  0.76228281  1
  O  O356  1  0.13382430  0.74990050  0.27314626  1
  O  O357  1  0.12645645  0.75809078  0.75716403  1
  O  O358  1  0.63627141  0.25543938  0.24979969  1
  O  O359  1  0.61732350  0.26189478  0.75406130  1
  O  O360  1  0.61202439  0.73832085  0.25836398  1
  O  O361  1  0.62373791  0.76435460  0.76747156  1
  O  O362  1  0.36828777  0.23530917  0.24477448  1
  O  O363  1  0.37211237  0.23848558  0.73953713  1
  O  O364  1  0.38702543  0.74138030  0.24074418  1
  O  O365  1  0.38532668  0.75060662  0.75949383  1
  O  O366  1  0.88961957  0.25099070  0.24981923  1
  O  O367  1  0.87214749  0.24838608  0.72972616  1
  O  O368  1  0.86974177  0.72019730  0.25236168  1
  O  O369  1  0.90112716  0.76325329  0.76051990  1
  O  O370  1  0.37465735  0.48780621  0.49943150  1
  O  O371  1  0.38068713  0.50460036  0.99383273  1
  O  O372  1  0.37321899  1.00753975  0.48261994  1
  O  O373  1  0.39114816  1.00537284  1.00646672  1
  O  O374  1  0.86757102  0.48940516  0.51183806  1
  O  O375  1  0.87782306  0.48044055  0.98956344  1
  O  O376  1  0.88160336  0.98882600  0.49747873  1
  O  O377  1  0.85953085  0.98895046  0.98546722  1
  O  O378  1  0.11221125  0.02142934  -0.02067691  1
  O  O379  1  0.12124949  0.00248370  0.50967012  1
  O  O380  1  0.12931702  0.51379951  0.00437350  1
  O  O381  1  0.11860149  0.47049891  0.54172064  1
  O  O382  1  0.62539271  0.00730850  0.01066464  1
  O  O383  1  0.60442033  -0.04296665  0.51254276  1
  O  O384  1  0.60963574  0.50493924  0.00544342  1
  O  O385  1  0.62485457  0.51687891  0.49701437  1
  O  O386  1  0.36417532  0.38264199  0.11582894  1
  O  O387  1  0.39070717  0.36218069  0.60381847  1
  O  O388  1  0.37219858  0.86358801  0.12672431  1
  O  O389  1  0.36537435  0.87938603  0.63416780  1
  O  O390  1  0.86230718  0.35563192  0.13956366  1
  O  O391  1  0.88446541  0.35929233  0.62150815  1
  O  O392  1  0.86062285  0.87830685  0.10761010  1
  O  O393  1  0.87917310  0.87414143  0.61506373  1
  O  O394  1  0.11652585  0.12824251  0.38317047  1
  O  O395  1  0.14453671  0.13440724  0.88023128  1
  O  O396  1  0.16956444  0.57888565  0.37448741  1
  O  O397  1  0.12493485  0.62929963  0.88486799  1
  O  O398  1  0.63531821  0.13179210  0.37544518  1
  O  O399  1  0.63107504  0.12449216  0.88477699  1
  O  O400  1  0.62205325  0.63150651  0.38500824  1
  O  O401  1  0.61348109  0.63108363  0.88670900  1
