# generated using pymatgen
data_V73Zn73O256
_symmetry_space_group_name_H-M   'P 1'
_cell_length_a   16.87336535
_cell_length_b   16.87749065
_cell_length_c   16.85389211
_cell_angle_alpha   90.05633310
_cell_angle_beta   90.10098637
_cell_angle_gamma   89.95639163
_symmetry_Int_Tables_number   1
_chemical_formula_structural   V73Zn73O256
_chemical_formula_sum   'V73 Zn73 O256'
_cell_volume   4799.64134676
_cell_formula_units_Z   1
loop_
 _symmetry_equiv_pos_site_id
 _symmetry_equiv_pos_as_xyz
  1  'x, y, z'
loop_
 _atom_site_type_symbol
 _atom_site_label
 _atom_site_symmetry_multiplicity
 _atom_site_fract_x
 _atom_site_fract_y
 _atom_site_fract_z
 _atom_site_occupancy
  V  V0  1  0.63961271  0.23697387  0.37362221  1
  V  V1  1  -0.00054098  0.12552671  0.13133480  1
  V  V2  1  0.50125707  0.12601950  0.12105997  1
  V  V3  1  0.00593438  0.74119104  0.25874861  1
  V  V4  1  0.38877284  0.49779945  0.37820883  1
  V  V5  1  0.85865916  0.62213560  0.74695762  1
  V  V6  1  0.87713038  0.87246095  -0.00093117  1
  V  V7  1  0.36764514  0.25482324  0.13207746  1
  V  V8  1  -0.00049706  0.49695026  0.50378022  1
  V  V9  1  0.88280054  0.87561956  0.49538494  1
  V  V10  1  0.62080674  0.22230619  0.87665037  1
  V  V11  1  0.87611762  0.25107235  0.12816319  1
  V  V12  1  0.12415405  0.63002109  0.49134660  1
  V  V13  1  0.86944843  0.37259511  0.50985391  1
  V  V14  1  0.62246166  0.00577366  0.61224807  1
  V  V15  1  0.73873465  0.74118007  -0.01071582  1
  V  V16  1  0.50267500  0.87819544  0.38939409  1
  V  V17  1  0.75012411  0.24115324  0.50940034  1
  V  V18  1  0.25056694  0.61437135  0.85160587  1
  V  V19  1  0.00008625  0.38400229  0.87528742  1
  V  V20  1  0.62668707  0.00571893  0.11531486  1
  V  V21  1  0.86345432  -0.00020420  0.36997684  1
  V  V22  1  0.62391724  0.86838867  0.75982705  1
  V  V23  1  0.24774298  0.24701435  0.00242215  1
  V  V24  1  0.88185835  0.74569423  0.62332548  1
  V  V25  1  0.88083453  0.49566412  0.36800255  1
  V  V26  1  0.35329414  0.88045043  0.00632578  1
  V  V27  1  -0.00772648  0.25032273  0.74382193  1
  V  V28  1  0.87454038  0.37846070  -0.00357444  1
  V  V29  1  0.13290537  0.74706880  0.89431931  1
  V  V30  1  -0.01127866  0.11646287  0.61680153  1
  V  V31  1  0.37780188  0.38357127  0.00475777  1
  V  V32  1  0.00022491  0.87490092  0.87347245  1
  V  V33  1  0.12485893  0.24261681  0.87666399  1
  V  V34  1  0.13158072  0.37386792  0.74845174  1
  V  V35  1  0.13027295  0.00133359  0.14798807  1
  V  V36  1  0.36749881  0.63925693  0.25001541  1
  V  V37  1  0.00177495  -0.00127343  -0.00123775  1
  V  V38  1  0.14192844  0.12953224  0.50252976  1
  V  V39  1  0.74442051  0.74808747  0.49611133  1
  V  V40  1  0.24692229  0.47595840  0.24989673  1
  V  V41  1  0.47804634  0.15263887  0.62487806  1
  V  V42  1  0.12822376  0.88073933  0.72463829  1
  V  V43  1  0.75191891  0.87464434  0.12516099  1
  V  V44  1  0.24636083  0.36010880  0.60617806  1
  V  V45  1  0.50781630  0.61853162  0.11338124  1
  V  V46  1  0.48876208  0.74749960  0.74954143  1
  V  V47  1  0.12214832  0.25571614  0.37803668  1
  V  V48  1  0.27327564  0.03243339  0.75655576  1
  V  V49  1  0.62944504  0.88336658  0.25250884  1
  V  V50  1  0.38643814  0.36343994  0.49225797  1
  V  V51  1  0.37673950  0.00265312  0.39791559  1
  V  V52  1  0.49770606  0.38614094  0.87538495  1
  V  V53  1  0.50081176  0.25053753  0.26023250  1
  V  V54  1  0.62139930  0.60375174  0.50497966  1
  V  V55  1  0.75749769  -0.00167744  0.76467561  1
  V  V56  1  0.37359903  0.77786549  0.61260663  1
  V  V57  1  0.87527728  0.12057482  0.76570801  1
  V  V58  1  0.75044954  0.62853737  0.36696246  1
  V  V59  1  0.86267496  0.50776414  0.87288545  1
  V  V60  1  0.09769087  0.36889702  0.24236055  1
  V  V61  1  0.50969404  0.75234038  0.24435535  1
  V  V62  1  0.36677811  0.11413183  0.25575446  1
  V  V63  1  0.74546056  0.23178666  -0.00461214  1
  V  V64  1  0.01155861  0.61342962  0.10764165  1
  V  V65  1  0.00797501  0.73793003  0.74589233  1
  V  V66  1  0.85787052  0.12303845  0.25270701  1
  V  V67  1  0.61797634  0.38192362  0.25033546  1
  V  V68  1  0.75142809  0.87523416  0.62416133  1
  V  V69  1  0.12644143  0.50390597  0.62889375  1
  V  V70  1  0.24440113  0.86814493  0.14367997  1
  V  V71  1  0.75027207  0.49997424  0.24123758  1
  V  V72  1  0.48293504  0.88006854  0.88000022  1
  Zn  Zn73  1  0.00551214  0.00038958  0.49382979  1
  Zn  Zn74  1  0.74205611  0.37895835  0.11584111  1
  Zn  Zn75  1  0.24897231  0.62282998  0.38081636  1
  Zn  Zn76  1  0.73708399  0.39530647  0.63763774  1
  Zn  Zn77  1  0.02808144  0.88249797  0.35149380  1
  Zn  Zn78  1  0.87681556  0.73586280  0.13006329  1
  Zn  Zn79  1  0.49646882  0.01286644  -0.01513147  1
  Zn  Zn80  1  0.13246490  0.11988075  0.00046121  1
  Zn  Zn81  1  0.62072394  0.35446728  0.75145281  1
  Zn  Zn82  1  0.18548036  0.19021288  0.19466552  1
  Zn  Zn83  1  0.18013714  0.18117424  0.68386145  1
  Zn  Zn84  1  0.17858545  0.69136213  0.19040941  1
  Zn  Zn85  1  0.19398998  0.69262292  0.67616452  1
  Zn  Zn86  1  0.68694122  0.19178003  0.18272749  1
  Zn  Zn87  1  0.69201111  0.18457237  0.69015932  1
  Zn  Zn88  1  0.68689764  0.68957580  0.17911260  1
  Zn  Zn89  1  0.68328715  0.68645637  0.68329573  1
  Zn  Zn90  1  0.31068834  0.30180335  0.32654904  1
  Zn  Zn91  1  0.30524807  0.31928103  0.82253858  1
  Zn  Zn92  1  0.32470284  0.82669933  0.31366663  1
  Zn  Zn93  1  0.30642977  0.81615647  0.80900765  1
  Zn  Zn94  1  0.81363823  0.31645531  0.31228624  1
  Zn  Zn95  1  0.80647194  0.30901865  0.81187608  1
  Zn  Zn96  1  0.82145439  0.81047042  0.30788653  1
  Zn  Zn97  1  0.81561398  0.80801850  0.81397400  1
  Zn  Zn98  1  0.18533902  0.43701403  0.42581841  1
  Zn  Zn99  1  0.20049617  0.43345258  0.93303688  1
  Zn  Zn100  1  0.17758405  0.97775824  0.41000360  1
  Zn  Zn101  1  0.18129335  0.94253451  0.92708161  1
  Zn  Zn102  1  0.68961610  0.43225027  0.42933998  1
  Zn  Zn103  1  0.69460425  0.42842733  0.92153567  1
  Zn  Zn104  1  0.69249801  0.93650849  0.43450788  1
  Zn  Zn105  1  0.68533445  0.93364951  0.94164594  1
  Zn  Zn106  1  0.31492483  0.06016073  0.06422869  1
  Zn  Zn107  1  0.30921005  0.05953600  0.58131562  1
  Zn  Zn108  1  0.31682633  0.56182591  0.07632456  1
  Zn  Zn109  1  0.30182377  0.54868964  0.55575176  1
  Zn  Zn110  1  0.81681440  0.05636137  0.06261423  1
  Zn  Zn111  1  0.81575840  0.06104699  0.56725505  1
  Zn  Zn112  1  0.82219849  0.56702286  0.06060239  1
  Zn  Zn113  1  0.80816663  0.56270307  0.55861974  1
  Zn  Zn114  1  0.43638592  0.44322452  0.19045248  1
  Zn  Zn115  1  0.43567857  0.33320803  0.68108753  1
  Zn  Zn116  1  0.43881527  0.93683831  0.18130935  1
  Zn  Zn117  1  0.43376287  0.94883984  0.68491112  1
  Zn  Zn118  1  0.93607757  0.44508001  0.17780266  1
  Zn  Zn119  1  0.93463808  0.43988802  0.68756398  1
  Zn  Zn120  1  0.93944859  0.93630734  0.18972052  1
  Zn  Zn121  1  0.94208738  0.93422168  0.68764288  1
  Zn  Zn122  1  0.04807134  0.08166073  0.32526448  1
  Zn  Zn123  1  0.06439449  0.05905386  0.80911658  1
  Zn  Zn124  1  0.06413524  0.56034725  0.30388779  1
  Zn  Zn125  1  0.06736614  0.56399276  0.81740426  1
  Zn  Zn126  1  0.55949839  0.06075196  0.31254790  1
  Zn  Zn127  1  0.55776220  0.05668569  0.79594967  1
  Zn  Zn128  1  0.56596656  0.56960779  0.31435238  1
  Zn  Zn129  1  0.53250102  0.57437157  0.83764297  1
  Zn  Zn130  1  0.44786119  0.17853816  0.44510783  1
  Zn  Zn131  1  0.43805077  0.20328484  0.94131290  1
  Zn  Zn132  1  0.44589424  0.69068332  0.43275712  1
  Zn  Zn133  1  0.42316594  0.69824431  0.94092627  1
  Zn  Zn134  1  0.93487557  0.19634160  0.42875433  1
  Zn  Zn135  1  0.94071304  0.18975943  0.94038802  1
  Zn  Zn136  1  0.93824689  0.68242202  0.43369335  1
  Zn  Zn137  1  0.93796985  0.68780921  0.93985537  1
  Zn  Zn138  1  0.06002990  0.31486781  0.06159856  1
  Zn  Zn139  1  0.05526834  0.31124563  0.55953704  1
  Zn  Zn140  1  0.06378417  0.81112778  0.07722201  1
  Zn  Zn141  1  0.10456904  0.84119407  0.51632680  1
  Zn  Zn142  1  0.56127980  0.31325401  0.06367557  1
  Zn  Zn143  1  0.57231398  0.31830210  0.55731342  1
  Zn  Zn144  1  0.55931268  0.80888282  0.06096495  1
  Zn  Zn145  1  0.56380814  0.80723440  0.57048300  1
  O  O146  1  0.11693848  0.11833163  0.12652113  1
  O  O147  1  0.10141930  0.13711525  0.61090410  1
  O  O148  1  0.11255920  0.62414353  0.13173812  1
  O  O149  1  0.12919544  0.60687086  0.61742796  1
  O  O150  1  0.61869276  0.11296565  0.13021432  1
  O  O151  1  0.64086063  0.10475047  0.62760935  1
  O  O152  1  0.60836317  0.62895452  0.12517753  1
  O  O153  1  0.63151073  0.62640924  0.60484718  1
  O  O154  1  0.37228039  0.38664981  0.38136285  1
  O  O155  1  0.38505300  0.36180230  0.89289372  1
  O  O156  1  0.39213940  0.88885916  0.38086124  1
  O  O157  1  0.37797609  0.88119833  0.88211089  1
  O  O158  1  0.86513586  0.39067882  0.38584759  1
  O  O159  1  0.88020691  0.38556691  0.87522003  1
  O  O160  1  0.87023358  0.88760142  0.38046010  1
  O  O161  1  0.89057294  0.86657553  0.88340488  1
  O  O162  1  0.27878123  -0.00376922  0.37253026  1
  O  O163  1  0.23281723  -0.00065491  0.84685503  1
  O  O164  1  0.25808668  0.50306925  0.36211072  1
  O  O165  1  0.23675772  0.51295099  0.86165019  1
  O  O166  1  0.76325984  0.00241179  0.37353462  1
  O  O167  1  0.75016875  -0.00927318  0.86339240  1
  O  O168  1  0.75756810  0.50798359  0.36340143  1
  O  O169  1  0.76427893  0.50163350  0.86569685  1
  O  O170  1  0.25246777  0.50878503  0.15522387  1
  O  O171  1  0.23068221  0.48243800  0.62054322  1
  O  O172  1  0.23284315  1.00322052  0.12821805  1
  O  O173  1  0.24655495  1.00650708  0.65883854  1
  O  O174  1  0.75711824  0.50329435  0.13842733  1
  O  O175  1  0.77247036  0.50172101  0.64127269  1
  O  O176  1  0.73606949  0.99140122  0.11830288  1
  O  O177  1  0.75122494  0.98651615  0.63283065  1
  O  O178  1  -0.00161821  0.37732015  0.25005112  1
  O  O179  1  0.00370538  0.36816470  0.75516096  1
  O  O180  1  -0.00194837  0.85935825  0.24528571  1
  O  O181  1  0.00206323  0.86107761  0.75629076  1
  O  O182  1  0.51092433  0.36779876  0.24654296  1
  O  O183  1  0.49198350  0.36968925  0.77038640  1
  O  O184  1  0.51044515  0.86811286  0.24530127  1
  O  O185  1  0.51205792  0.87462978  0.75847824  1
  O  O186  1  0.49551849  0.13342294  0.24078525  1
  O  O187  1  0.50891380  0.11951240  0.71825689  1
  O  O188  1  0.49711809  0.64054676  0.25039265  1
  O  O189  1  0.50133448  0.64810899  0.76302916  1
  O  O190  1  0.98689451  0.12304787  0.23498201  1
  O  O191  1  0.99167329  0.12799397  0.74214704  1
  O  O192  1  0.99995978  0.63328394  0.24656116  1
  O  O193  1  0.99826130  0.63633566  0.75255279  1
  O  O194  1  0.36652870  0.25440015  0.01433054  1
  O  O195  1  0.37622035  0.26466348  0.47671139  1
  O  O196  1  0.37384092  0.78161140  0.00265499  1
  O  O197  1  0.39380681  0.74446243  0.51783673  1
  O  O198  1  0.86316647  0.25586868  0.00198273  1
  O  O199  1  0.86275256  0.26571485  0.48888262  1
  O  O200  1  0.87134049  0.76271077  0.00557830  1
  O  O201  1  0.86955109  0.75254143  0.50656325  1
  O  O202  1  0.11482927  0.24221686  0.49059280  1
  O  O203  1  0.12989552  0.24975544  0.99532925  1
  O  O204  1  0.10846065  0.72593888  0.50958984  1
  O  O205  1  0.12633222  0.75546320  0.99230319  1
  O  O206  1  0.63916225  0.25756176  0.48285894  1
  O  O207  1  0.63910697  0.24875180  0.99826185  1
  O  O208  1  0.64345252  0.75276712  0.50217938  1
  O  O209  1  0.63869735  0.75622031  1.00022148  1
  O  O210  1  0.49328454  0.24322244  0.13604170  1
  O  O211  1  0.49934520  0.25723680  0.62666552  1
  O  O212  1  0.49793640  0.74692055  0.13899730  1
  O  O213  1  0.48999881  0.75729354  0.64043316  1
  O  O214  1  0.98351634  0.23934904  0.11302107  1
  O  O215  1  0.99504502  0.24747983  0.63960399  1
  O  O216  1  1.00020241  0.73859115  0.13465853  1
  O  O217  1  0.98671978  0.75251392  0.63888434  1
  O  O218  1  0.01858530  0.22984424  0.36329400  1
  O  O219  1  0.00464327  0.26142400  0.86819700  1
  O  O220  1  -0.01024635  0.75473756  0.36476836  1
  O  O221  1  0.01102790  0.75226750  0.86461689  1
  O  O222  1  0.51370374  0.24388617  0.36452885  1
  O  O223  1  0.52217761  0.25726987  0.88863383  1
  O  O224  1  0.49854932  0.77042455  0.36020848  1
  O  O225  1  0.48922272  0.76890707  0.86194128  1
  O  O226  1  0.23976611  0.12974120  0.51565674  1
  O  O227  1  0.25133898  0.14022229  1.00546950  1
  O  O228  1  0.23175842  0.61883422  0.49930600  1
  O  O229  1  0.21549715  0.58540190  1.00802138  1
  O  O230  1  0.76331492  0.14258225  0.50404232  1
  O  O231  1  0.75580463  0.13272213  1.00118541  1
  O  O232  1  0.74488603  0.63005586  0.48918237  1
  O  O233  1  0.75596281  0.64291807  1.00815557  1
  O  O234  1  0.26371679  0.36170621  -0.00231805  1
  O  O235  1  0.24953413  0.37398102  0.50357404  1
  O  O236  1  0.25111478  0.88669141  0.00318806  1
  O  O237  1  0.25015784  0.80048398  0.46076498  1
  O  O238  1  0.76018767  0.37017463  -0.00259781  1
  O  O239  1  0.75960030  0.37446250  0.50494382  1
  O  O240  1  0.75860443  0.87009239  0.00568181  1
  O  O241  1  0.76122635  0.86673972  0.50483714  1
  O  O242  1  0.13548514  0.47571554  0.26465777  1
  O  O243  1  0.11191088  0.48926533  0.73473409  1
  O  O244  1  0.11903481  1.00968962  0.24665154  1
  O  O245  1  0.10525313  0.97884602  0.74147852  1
  O  O246  1  0.63419923  0.48953661  0.25584651  1
  O  O247  1  0.60843690  0.52043118  0.74146025  1
  O  O248  1  0.62104796  0.98813945  0.23812050  1
  O  O249  1  0.64262363  0.98636495  0.74176139  1
  O  O250  1  0.38093470  0.01379967  0.24582463  1
  O  O251  1  0.37469232  0.01079422  0.75821440  1
  O  O252  1  0.36570938  0.50798397  0.26121544  1
  O  O253  1  0.39416170  0.53612795  0.70295744  1
  O  O254  1  0.87437349  0.00985909  0.25741506  1
  O  O255  1  0.86652258  0.00243093  0.75005756  1
  O  O256  1  0.86313395  0.49267533  0.25976811  1
  O  O257  1  0.88423898  0.51485501  0.75952624  1
  O  O258  1  0.11627875  0.36237424  0.37058999  1
  O  O259  1  0.11865394  0.37036214  0.86817869  1
  O  O260  1  0.12276954  0.88126425  0.41249103  1
  O  O261  1  0.11517389  0.85867361  0.86851975  1
  O  O262  1  0.63152216  0.36202287  0.35633424  1
  O  O263  1  0.60742242  0.37951474  0.87236494  1
  O  O264  1  0.61847336  0.88461891  0.35931590  1
  O  O265  1  0.62482893  0.87318472  0.86181316  1
  O  O266  1  0.38187345  0.13337438  0.13815718  1
  O  O267  1  0.37767194  0.14213027  0.62367440  1
  O  O268  1  0.38236845  0.62718690  0.14613571  1
  O  O269  1  0.38964671  0.57869120  0.64218115  1
  O  O270  1  0.87738875  0.12832197  0.13391896  1
  O  O271  1  0.88310256  0.12426637  0.64142945  1
  O  O272  1  0.89656115  0.62270560  0.12188178  1
  O  O273  1  0.87148522  0.63377867  0.63702338  1
  O  O274  1  0.26091941  0.24850879  0.12323560  1
  O  O275  1  0.23693062  0.26270999  0.62177282  1
  O  O276  1  0.23737705  0.76970618  0.12775557  1
  O  O277  1  0.27661273  0.74570028  0.62304594  1
  O  O278  1  0.75890167  0.25181661  0.11199246  1
  O  O279  1  0.73948674  0.25652923  0.61049323  1
  O  O280  1  0.75233423  0.76257661  0.11710320  1
  O  O281  1  0.76027001  0.75726875  0.61862098  1
  O  O282  1  0.22610698  0.24504933  0.37231400  1
  O  O283  1  0.23348696  0.25510533  0.88608711  1
  O  O284  1  0.25975264  0.76267321  0.39609566  1
  O  O285  1  0.23461055  0.74755043  0.87159053  1
  O  O286  1  0.74410651  0.24901024  0.37803064  1
  O  O287  1  0.73877801  0.24674795  0.88870188  1
  O  O288  1  0.76225897  0.73538269  0.37975684  1
  O  O289  1  0.75426976  0.75190596  0.88900247  1
  O  O290  1  -0.00411936  0.11436464  0.01205129  1
  O  O291  1  -0.02027604  0.12896590  0.51381781  1
  O  O292  1  0.00879777  0.62947112  0.00539243  1
  O  O293  1  0.00562020  0.60534170  0.49585314  1
  O  O294  1  0.48848912  0.12831667  0.01589322  1
  O  O295  1  0.50741159  0.12923361  0.52744654  1
  O  O296  1  0.48664845  0.63695754  0.01494905  1
  O  O297  1  0.52513014  0.62606470  0.48312402  1
  O  O298  1  0.48414817  0.37588368  0.50578307  1
  O  O299  1  0.48776132  0.37057416  0.99505122  1
  O  O300  1  0.51637327  0.87030511  0.48660191  1
  O  O301  1  0.49981763  0.87609023  0.98456776  1
  O  O302  1  0.98460793  0.38415441  0.49913853  1
  O  O303  1  0.98501197  0.36673850  0.98829171  1
  O  O304  1  0.98410171  0.87548951  0.50619054  1
  O  O305  1  0.99645249  0.87804942  0.99666180  1
  O  O306  1  0.48766559  0.50053994  0.36455655  1
  O  O307  1  0.48530333  0.48583489  0.88144820  1
  O  O308  1  0.49510088  0.98801832  0.37314048  1
  O  O309  1  0.50705999  0.98393913  0.87008836  1
  O  O310  1  0.98532639  0.50158079  0.37935134  1
  O  O311  1  0.99900159  0.48779661  0.87173071  1
  O  O312  1  0.98599461  0.99728750  0.37658267  1
  O  O313  1  1.00936114  0.98519631  0.88497132  1
  O  O314  1  0.01095484  0.00484642  0.12039868  1
  O  O315  1  -0.00749264  0.01237531  0.61864731  1
  O  O316  1  0.00258220  0.51049542  0.11885139  1
  O  O317  1  0.00840396  0.49381497  0.61177639  1
  O  O318  1  0.51229252  0.00819620  0.12405567  1
  O  O319  1  0.52285149  -0.01055671  0.62526788  1
  O  O320  1  0.49498108  0.51859456  0.12961917  1
  O  O321  1  0.57460332  0.49935944  0.67869508  1
  O  O322  1  0.25879654  0.37643233  0.24843478  1
  O  O323  1  0.23650920  0.36837495  0.74243422  1
  O  O324  1  0.25203681  0.87664394  0.24362905  1
  O  O325  1  0.22654113  0.86841241  0.74606201  1
  O  O326  1  0.74333095  0.38779047  0.24575451  1
  O  O327  1  0.73788862  0.37173880  0.75267405  1
  O  O328  1  0.73589658  0.86792784  0.24237512  1
  O  O329  1  0.74775629  0.87788328  0.74551465  1
  O  O330  1  0.26816013  0.12954906  0.25091000  1
  O  O331  1  0.24948131  0.13370519  0.75713129  1
  O  O332  1  0.26276498  0.64156732  0.25959152  1
  O  O333  1  0.25264584  0.62771500  0.75199206  1
  O  O334  1  0.75900075  0.12214719  0.24307958  1
  O  O335  1  0.76455116  0.10974036  0.75180619  1
  O  O336  1  0.74153194  0.61546185  0.25770932  1
  O  O337  1  0.76062022  0.63424496  0.75372653  1
  O  O338  1  0.39179295  0.11202668  0.36487617  1
  O  O339  1  0.39392877  0.17552747  0.82719961  1
  O  O340  1  0.37597844  0.61705902  0.36724565  1
  O  O341  1  0.34329240  0.63372605  0.89187492  1
  O  O342  1  0.87598357  0.11764638  0.35997048  1
  O  O343  1  0.88860916  0.11559410  0.86502126  1
  O  O344  1  0.86113060  0.60726815  0.38257929  1
  O  O345  1  0.87998850  0.61511939  0.86528112  1
  O  O346  1  0.11544489  0.37105072  0.14203493  1
  O  O347  1  0.12771632  0.37775588  0.62861706  1
  O  O348  1  0.13339606  0.89238916  0.12755105  1
  O  O349  1  0.11806614  0.86774703  0.62526334  1
  O  O350  1  0.62836222  0.36669412  0.14240608  1
  O  O351  1  0.62064022  0.38079906  0.63840026  1
  O  O352  1  0.63001107  0.88473108  0.13052735  1
  O  O353  1  0.63886600  0.87776523  0.63331148  1
  O  O354  1  0.12257693  0.26311876  0.25619973  1
  O  O355  1  0.11286253  0.25733195  0.75754021  1
  O  O356  1  0.10894560  0.74944019  0.25960972  1
  O  O357  1  0.11274755  0.75373562  0.74089151  1
  O  O358  1  0.62227916  0.25593413  0.25643087  1
  O  O359  1  0.63243029  0.23778538  0.77273783  1
  O  O360  1  0.61618984  0.76187451  0.24693595  1
  O  O361  1  0.61651510  0.76389352  0.74186276  1
  O  O362  1  0.38363726  0.24370613  0.25085600  1
  O  O363  1  0.37655889  0.23082142  0.77661572  1
  O  O364  1  0.38639728  0.74348308  0.25873047  1
  O  O365  1  0.38457835  0.76434167  0.73854265  1
  O  O366  1  0.86543108  0.23939624  0.23938632  1
  O  O367  1  0.88003993  0.23293216  0.76221366  1
  O  O368  1  0.88593588  0.74900568  0.24334875  1
  O  O369  1  0.88317414  0.73790244  0.74702791  1
  O  O370  1  0.37163821  0.49423429  0.48353007  1
  O  O371  1  0.36503316  0.48228663  1.00897507  1
  O  O372  1  0.37558288  1.01232792  0.49659698  1
  O  O373  1  0.38306094  0.98828274  1.00551725  1
  O  O374  1  0.88288904  0.49285451  0.49346254  1
  O  O375  1  0.87026666  0.49140371  0.98353994  1
  O  O376  1  0.87285830  0.99298255  0.48842765  1
  O  O377  1  0.88912046  0.98670423  1.00516550  1
  O  O378  1  0.11355391  0.00239443  0.00493822  1
  O  O379  1  0.12050927  0.02413713  0.50215575  1
  O  O380  1  0.16720623  0.52606814  0.01221226  1
  O  O381  1  0.11262761  0.49683415  0.50459590  1
  O  O382  1  0.61801326  -0.00371501  0.01176425  1
  O  O383  1  0.63813894  -0.00653972  0.51304566  1
  O  O384  1  0.63325241  0.53472252  -0.03329713  1
  O  O385  1  0.63201065  0.50315278  0.49808043  1
  O  O386  1  0.38524339  0.36415377  0.11810937  1
  O  O387  1  0.35695613  0.37302208  0.60881063  1
  O  O388  1  0.35380749  0.88590389  0.11956699  1
  O  O389  1  0.37602300  0.87861976  0.61380950  1
  O  O390  1  0.87277972  0.36760387  0.11392043  1
  O  O391  1  0.87386713  0.37559178  0.61234583  1
  O  O392  1  0.86268744  0.88154157  0.11795664  1
  O  O393  1  0.86841117  0.86722435  0.61960775  1
  O  O394  1  0.12912145  0.12747180  0.39274458  1
  O  O395  1  0.10907954  0.13929193  0.87922280  1
  O  O396  1  0.12534727  0.61781804  0.38711032  1
  O  O397  1  0.13539952  0.63867905  0.87126013  1
  O  O398  1  0.62833478  0.13744693  0.36544622  1
  O  O399  1  0.61230344  0.12314492  0.87948915  1
  O  O400  1  0.64493385  0.62008434  0.38340591  1
  O  O401  1  0.62635820  0.58877888  0.91368983  1
