# generated using pymatgen
data_V73Zn73O256
_symmetry_space_group_name_H-M   'P 1'
_cell_length_a   16.87241094
_cell_length_b   16.84159339
_cell_length_c   16.86044507
_cell_angle_alpha   89.92811209
_cell_angle_beta   89.96883717
_cell_angle_gamma   89.94786974
_symmetry_Int_Tables_number   1
_chemical_formula_structural   V73Zn73O256
_chemical_formula_sum   'V73 Zn73 O256'
_cell_volume   4791.02868758
_cell_formula_units_Z   1
loop_
 _symmetry_equiv_pos_site_id
 _symmetry_equiv_pos_as_xyz
  1  'x, y, z'
loop_
 _atom_site_type_symbol
 _atom_site_label
 _atom_site_symmetry_multiplicity
 _atom_site_fract_x
 _atom_site_fract_y
 _atom_site_fract_z
 _atom_site_occupancy
  V  V0  1  0.87883332  0.11893387  0.23913585  1
  V  V1  1  0.38288615  0.37816594  0.49528972  1
  V  V2  1  0.25300441  0.61918223  0.86636847  1
  V  V3  1  0.87314759  -0.00239488  0.37793094  1
  V  V4  1  0.37427706  0.11336701  0.25363179  1
  V  V5  1  0.38018210  0.74759252  0.63466919  1
  V  V6  1  -0.00471018  0.39013907  0.88699848  1
  V  V7  1  0.49882515  0.11952611  0.12354896  1
  V  V8  1  0.48888223  0.87168085  0.87040868  1
  V  V9  1  0.00534064  0.87259364  0.36770496  1
  V  V10  1  0.25044312  0.76356105  0.00602136  1
  V  V11  1  0.62253157  0.62658702  0.01954769  1
  V  V12  1  0.13123287  0.51279809  0.61396759  1
  V  V13  1  -0.00358686  0.13411452  0.62373484  1
  V  V14  1  0.62909335  0.38599574  0.74929070  1
  V  V15  1  0.74583347  0.13606759  0.37743340  1
  V  V16  1  0.87324462  0.12472696  0.74971173  1
  V  V17  1  0.37383219  0.50295220  0.86569395  1
  V  V18  1  0.24707352  0.38390722  0.13971660  1
  V  V19  1  0.09217150  0.00646498  0.09953870  1
  V  V20  1  0.25620085  0.37989374  0.62916409  1
  V  V21  1  0.49074497  0.36635880  0.87763153  1
  V  V22  1  0.87340087  0.63863256  0.27240430  1
  V  V23  1  0.48268546  -0.00797925  -0.00472330  1
  V  V24  1  0.37124705  0.25232519  0.12281767  1
  V  V25  1  0.12891578  -0.00127549  0.63178277  1
  V  V26  1  0.12324108  0.25402566  0.87549472  1
  V  V27  1  0.25749851  0.11389674  0.37471887  1
  V  V28  1  0.49802305  0.62162327  0.64734682  1
  V  V29  1  -0.01557798  0.27412701  0.73675528  1
  V  V30  1  0.38769521  0.24616935  0.63211335  1
  V  V31  1  0.51190349  0.25011706  0.25163964  1
  V  V32  1  0.24948681  0.87621301  0.62925231  1
  V  V33  1  0.49207746  0.50670999  0.01330902  1
  V  V34  1  0.62842231  0.74576994  0.87237818  1
  V  V35  1  0.00663019  0.74614024  0.73382048  1
  V  V36  1  0.12869495  0.25778174  0.36885249  1
  V  V37  1  0.90417967  0.87881382  -0.04489502  1
  V  V38  1  0.12550656  0.61355568  -0.00358923  1
  V  V39  1  0.51366314  0.37526354  0.36963563  1
  V  V40  1  0.75132060  0.10916885  0.88172761  1
  V  V41  1  0.11562101  0.49839043  0.14082608  1
  V  V42  1  0.82170038  0.55936968  0.82836908  1
  V  V43  1  -0.01125922  0.50190237  0.49759645  1
  V  V44  1  0.00264557  0.00101048  0.50277931  1
  V  V45  1  0.87076599  0.87620792  0.52788063  1
  V  V46  1  0.86313983  0.72366268  0.63053234  1
  V  V47  1  0.62134335  0.50153806  0.60126630  1
  V  V48  1  0.63254063  0.24633124  0.86941766  1
  V  V49  1  0.12189905  0.77058893  0.86761652  1
  V  V50  1  0.37965233  0.11625890  0.75177457  1
  V  V51  1  0.75830415  0.86149835  0.12161845  1
  V  V52  1  0.37551794  0.87592799  0.48072939  1
  V  V53  1  0.24755113  0.25496207  0.00188773  1
  V  V54  1  0.75676991  0.50182718  0.23235813  1
  V  V55  1  0.62741622  0.14257146  0.50192328  1
  V  V56  1  0.13775050  0.38734513  0.75324201  1
  V  V57  1  0.62367193  0.87319447  0.73773632  1
  V  V58  1  0.23922610  -0.01769520  0.24257939  1
  V  V59  1  0.25018768  0.12086353  0.87787948  1
  V  V60  1  0.39302041  0.75362015  0.11688751  1
  V  V61  1  0.87046531  0.26770522  0.11841287  1
  V  V62  1  0.74518169  -0.00512264  0.73262816  1
  V  V63  1  -0.01010095  0.63817644  0.12080926  1
  V  V64  1  0.23884776  0.73861090  0.49767874  1
  V  V65  1  0.25562037  0.24861926  0.49982417  1
  V  V66  1  0.50930466  -0.00926697  0.49298982  1
  V  V67  1  0.12003599  0.74143975  0.36308657  1
  V  V68  1  0.12858197  0.12622874  0.49912046  1
  V  V69  1  0.00411719  0.25520417  0.24483000  1
  V  V70  1  0.62531797  -0.01017478  0.12519296  1
  V  V71  1  0.50410460  0.74822168  0.27251286  1
  V  V72  1  0.36587395  0.50196993  0.36505502  1
  Zn  Zn73  1  -0.00810158  0.37811213  0.37923399  1
  Zn  Zn74  1  0.24775339  -0.00736629  0.75869024  1
  Zn  Zn75  1  0.36855888  0.62261168  0.23903127  1
  Zn  Zn76  1  0.76466811  0.74452350  -0.00212275  1
  Zn  Zn77  1  0.62262704  0.86548260  0.26261136  1
  Zn  Zn78  1  0.74441069  -0.00468089  0.25226919  1
  Zn  Zn79  1  0.51814729  0.11559209  0.63353660  1
  Zn  Zn80  1  0.62243843  0.12026705  -0.00173315  1
  Zn  Zn81  1  0.74466106  0.25042629  0.01036340  1
  Zn  Zn82  1  0.18538841  0.17542373  0.18272555  1
  Zn  Zn83  1  0.18947346  0.19341882  0.69170857  1
  Zn  Zn84  1  0.18697154  0.68561933  0.18771411  1
  Zn  Zn85  1  0.19525551  0.69089501  0.69003614  1
  Zn  Zn86  1  0.69181167  0.17988946  0.18811065  1
  Zn  Zn87  1  0.68541811  0.18847748  0.69574681  1
  Zn  Zn88  1  0.68930313  0.68521504  0.19750626  1
  Zn  Zn89  1  0.68846683  0.67190304  0.69990505  1
  Zn  Zn90  1  0.31822095  0.30747551  0.31093958  1
  Zn  Zn91  1  0.31664027  0.30883586  0.81410137  1
  Zn  Zn92  1  0.29789267  0.78114277  0.29462929  1
  Zn  Zn93  1  0.30694124  0.80748824  0.81455281  1
  Zn  Zn94  1  0.80986313  0.31218142  0.30520487  1
  Zn  Zn95  1  0.83506591  0.37206631  0.77451591  1
  Zn  Zn96  1  0.81007072  0.81901520  0.31328586  1
  Zn  Zn97  1  0.81022976  0.80117140  0.80605792  1
  Zn  Zn98  1  0.18847778  0.44004036  0.43649543  1
  Zn  Zn99  1  0.19306942  0.43522797  0.94631894  1
  Zn  Zn100  1  0.19220314  0.93117395  0.43722081  1
  Zn  Zn101  1  0.18089429  0.94292344  0.94713500  1
  Zn  Zn102  1  0.66227582  0.47534824  0.39504321  1
  Zn  Zn103  1  0.66758068  0.43484683  0.94712725  1
  Zn  Zn104  1  0.69446543  0.93904497  0.45011746  1
  Zn  Zn105  1  0.67913481  0.93024700  0.93880351  1
  Zn  Zn106  1  0.30455304  0.05982468  0.06489113  1
  Zn  Zn107  1  0.32170995  0.05575839  0.56245629  1
  Zn  Zn108  1  0.31156498  0.56773008  0.05992234  1
  Zn  Zn109  1  0.31854029  0.56193482  0.55798438  1
  Zn  Zn110  1  0.82121574  0.04682115  0.05466505  1
  Zn  Zn111  1  0.81283163  0.06854862  0.56145700  1
  Zn  Zn112  1  0.80557624  0.55720073  0.04654314  1
  Zn  Zn113  1  0.80769915  0.54905085  0.55523788  1
  Zn  Zn114  1  0.43307666  0.43350310  0.18942239  1
  Zn  Zn115  1  0.44482436  0.43508490  0.68961560  1
  Zn  Zn116  1  0.43047692  0.92105090  0.19496565  1
  Zn  Zn117  1  0.44012515  0.93777298  0.67935445  1
  Zn  Zn118  1  0.93377570  0.44472972  0.19268309  1
  Zn  Zn119  1  0.95324112  0.45655564  0.69116526  1
  Zn  Zn120  1  0.94466708  0.93277073  0.17993463  1
  Zn  Zn121  1  0.92577693  0.91808792  0.74139312  1
  Zn  Zn122  1  0.06531770  0.06518584  0.30560202  1
  Zn  Zn123  1  0.06610168  0.07675158  0.80627726  1
  Zn  Zn124  1  0.04824678  0.56585085  0.31405495  1
  Zn  Zn125  1  0.06006492  0.56356321  0.80949570  1
  Zn  Zn126  1  0.56065881  0.05964598  0.31509890  1
  Zn  Zn127  1  0.56218474  0.05492356  0.81169099  1
  Zn  Zn128  1  0.55444170  0.55771919  0.27699779  1
  Zn  Zn129  1  0.55682452  0.55993394  0.81956262  1
  Zn  Zn130  1  0.44420662  0.18483218  0.43698200  1
  Zn  Zn131  1  0.43335302  0.18354896  0.93995816  1
  Zn  Zn132  1  0.43179448  0.68697572  0.44511424  1
  Zn  Zn133  1  0.43772865  0.68910746  0.93784740  1
  Zn  Zn134  1  0.93966477  0.18810044  0.42919049  1
  Zn  Zn135  1  0.90014731  0.23836830  0.90348832  1
  Zn  Zn136  1  0.94309691  0.69206182  0.45376901  1
  Zn  Zn137  1  0.94422096  0.69389940  0.93718093  1
  Zn  Zn138  1  0.06597106  0.31053896  0.06505399  1
  Zn  Zn139  1  0.06820573  0.32127839  0.56204677  1
  Zn  Zn140  1  0.06711464  0.82017564  0.05965032  1
  Zn  Zn141  1  0.05994122  0.81437233  0.56526256  1
  Zn  Zn142  1  0.55845010  0.30947832  0.05521582  1
  Zn  Zn143  1  0.56480446  0.31670240  0.56077935  1
  Zn  Zn144  1  0.56522839  0.81533771  0.05404970  1
  Zn  Zn145  1  0.55635264  0.80583410  0.55905884  1
  O  O146  1  0.11531023  0.10030026  0.14159730  1
  O  O147  1  0.12466744  0.12216435  0.61455028  1
  O  O148  1  0.11868102  0.61619537  0.11835199  1
  O  O149  1  0.14288369  0.61004935  0.63010148  1
  O  O150  1  0.61240499  0.11435524  0.12536240  1
  O  O151  1  0.63193922  0.13420459  0.60975427  1
  O  O152  1  0.61956794  0.62830980  0.11831343  1
  O  O153  1  0.60964474  0.61136335  0.63774592  1
  O  O154  1  0.38080642  0.37947505  0.37798075  1
  O  O155  1  0.38395220  0.38087721  0.87749936  1
  O  O156  1  0.36687882  0.86059449  0.38504570  1
  O  O157  1  0.38937378  0.87222523  0.85989834  1
  O  O158  1  0.87424173  0.33765016  0.40623747  1
  O  O159  1  0.89410856  0.35800491  0.87389853  1
  O  O160  1  0.88469214  0.88297452  0.38647170  1
  O  O161  1  0.88627673  0.87889735  0.85120460  1
  O  O162  1  0.24802108  0.01004175  0.37047069  1
  O  O163  1  0.24380917  0.01755317  0.87533541  1
  O  O164  1  0.26629943  0.49491355  0.37549794  1
  O  O165  1  0.26385388  0.50639275  0.88603692  1
  O  O166  1  0.76208208  0.00161077  0.37481236  1
  O  O167  1  0.73896702  0.00810499  0.87025660  1
  O  O168  1  0.75870659  0.53356145  0.42951384  1
  O  O169  1  0.75712351  0.48616447  0.88997119  1
  O  O170  1  0.24633834  0.48831210  0.12623091  1
  O  O171  1  0.25145690  0.48654860  0.61814228  1
  O  O172  1  0.24759822  0.99969422  0.14094168  1
  O  O173  1  0.24387774  0.99426104  0.62385286  1
  O  O174  1  0.74960183  0.50117704  0.13202216  1
  O  O175  1  0.72128265  0.50174351  0.61370140  1
  O  O176  1  0.73320285  0.99597774  0.12263545  1
  O  O177  1  0.74801334  1.00576756  0.63407562  1
  O  O178  1  -0.01375076  0.35886521  0.25957435  1
  O  O179  1  0.02296058  0.38182321  0.76857596  1
  O  O180  1  -0.00577956  0.88015870  0.26910383  1
  O  O181  1  0.01437369  0.85235906  0.74166116  1
  O  O182  1  0.49824630  0.35827122  0.25305750  1
  O  O183  1  0.50773067  0.37798974  0.77094765  1
  O  O184  1  0.50697066  0.85886560  0.25149686  1
  O  O185  1  0.51344247  0.89085911  0.75993452  1
  O  O186  1  0.49364244  0.13041360  0.24374235  1
  O  O187  1  0.48594616  0.11812511  0.74910004  1
  O  O188  1  0.48764460  0.63961395  0.25080471  1
  O  O189  1  0.49040980  0.62357125  0.74598538  1
  O  O190  1  0.98402485  0.13599229  0.26031889  1
  O  O191  1  0.99223592  0.13569690  0.73979081  1
  O  O192  1  0.98057833  0.62339896  0.23100041  1
  O  O193  1  1.00756463  0.64337932  0.75344393  1
  O  O194  1  0.36652655  0.24394343  0.01457112  1
  O  O195  1  0.37026084  0.25067969  0.50760157  1
  O  O196  1  0.35925144  0.74416176  0.00444110  1
  O  O197  1  0.36507516  0.75937700  0.50788277  1
  O  O198  1  0.87066316  0.24631397  0.01513891  1
  O  O199  1  0.87406617  0.28147938  0.46402621  1
  O  O200  1  0.87536828  0.77730106  -0.01835966  1
  O  O201  1  0.88308444  0.76525938  0.52512043  1
  O  O202  1  0.13744580  0.24327301  0.49349328  1
  O  O203  1  0.13325985  0.25045162  0.98850529  1
  O  O204  1  0.13605498  0.75019763  0.50540787  1
  O  O205  1  0.13346277  0.74573929  0.98256689  1
  O  O206  1  0.62446499  0.24185133  0.49488502  1
  O  O207  1  0.62374825  0.23949482  0.98643238  1
  O  O208  1  0.58744238  0.70722386  0.50231430  1
  O  O209  1  0.61830337  0.73780194  0.98777247  1
  O  O210  1  0.49294542  0.24278416  0.12956647  1
  O  O211  1  0.48902554  0.24316105  0.61895876  1
  O  O212  1  0.49282116  0.74615393  0.10840709  1
  O  O213  1  0.48704583  0.74275626  0.63256257  1
  O  O214  1  0.99035063  0.25411350  0.13703439  1
  O  O215  1  1.01629543  0.24128288  0.62902812  1
  O  O216  1  1.00547761  0.73716782  0.11622452  1
  O  O217  1  1.00000718  0.74080562  0.62918321  1
  O  O218  1  0.01315092  0.25071499  0.36511278  1
  O  O219  1  0.01117800  0.25848457  0.85771048  1
  O  O220  1  0.00803019  0.76529852  0.38776998  1
  O  O221  1  0.02047691  0.75130802  0.86862150  1
  O  O222  1  0.49578896  0.25370535  0.35755991  1
  O  O223  1  0.50325693  0.26166991  0.88657139  1
  O  O224  1  0.49482722  0.74934595  0.37175046  1
  O  O225  1  0.50547971  0.76515669  0.87806532  1
  O  O226  1  0.24860189  0.12935585  0.49572671  1
  O  O227  1  0.25908949  0.13480067  0.98459378  1
  O  O228  1  0.25609664  0.64019976  0.49997084  1
  O  O229  1  0.23733202  0.63413203  0.99407171  1
  O  O230  1  0.74156325  0.12339198  0.48889185  1
  O  O231  1  0.74794894  0.11941953  0.98912059  1
  O  O232  1  0.74976127  0.64822541  0.49769184  1
  O  O233  1  0.72850719  0.63194312  1.00199317  1
  O  O234  1  0.24886018  0.36133261  0.01636547  1
  O  O235  1  0.26154274  0.36386839  0.50587996  1
  O  O236  1  0.25132703  0.86219223  -0.01469288  1
  O  O237  1  0.26113782  0.86985769  0.50912953  1
  O  O238  1  0.71020340  0.36925625  0.03603661  1
  O  O239  1  0.75009630  0.30880014  0.57905468  1
  O  O240  1  0.73782469  0.86838282  0.01649592  1
  O  O241  1  0.77211008  0.88602340  0.51450177  1
  O  O242  1  0.12248520  0.51053282  0.23958278  1
  O  O243  1  0.12846379  0.49228134  0.74045950  1
  O  O244  1  0.13833871  0.99261676  0.26003561  1
  O  O245  1  0.12672407  1.00932695  0.73648202  1
  O  O246  1  0.65661286  0.51755877  0.28487140  1
  O  O247  1  0.62551702  0.48662904  0.76322595  1
  O  O248  1  0.61994948  0.99718940  0.23655192  1
  O  O249  1  0.63551867  0.99072194  0.74780711  1
  O  O250  1  0.37037946  0.00945494  0.24521413  1
  O  O251  1  0.36790111  0.01375880  0.74153343  1
  O  O252  1  0.37544197  0.50402425  0.25901228  1
  O  O253  1  0.37604003  0.49479662  0.76646336  1
  O  O254  1  0.88003158  0.00923992  0.26094687  1
  O  O255  1  0.85979985  0.01199689  0.74984290  1
  O  O256  1  0.86575961  0.51855875  0.24791260  1
  O  O257  1  0.87013204  0.49209521  0.76205670  1
  O  O258  1  0.13724599  0.35852017  0.37273092  1
  O  O259  1  0.13042094  0.37148044  0.87137839  1
  O  O260  1  0.10861696  0.87364651  0.38462132  1
  O  O261  1  0.13489069  0.86923981  0.86856448  1
  O  O262  1  0.61300295  0.37170558  0.37784985  1
  O  O263  1  0.61902945  0.36258518  0.86867396  1
  O  O264  1  0.65927636  0.84670205  0.38295931  1
  O  O265  1  0.61361714  0.86639677  0.86669967  1
  O  O266  1  0.38320549  0.12867596  0.13184091  1
  O  O267  1  0.36967109  0.13655183  0.63390092  1
  O  O268  1  0.35942510  0.64692080  0.12482337  1
  O  O269  1  0.38904692  0.63535455  0.61253022  1
  O  O270  1  0.86954378  0.11521409  0.13882148  1
  O  O271  1  0.88720860  0.12643147  0.63010484  1
  O  O272  1  0.89357837  0.61876436  0.09337971  1
  O  O273  1  0.87114900  0.62493687  0.62116856  1
  O  O274  1  0.25134477  0.25005211  0.12062829  1
  O  O275  1  0.25909696  0.25749698  0.61603089  1
  O  O276  1  0.23287236  0.75711585  0.10526850  1
  O  O277  1  0.25621247  0.75636328  0.61533028  1
  O  O278  1  0.76689880  0.24320037  0.13015422  1
  O  O279  1  0.77067782  0.25309206  0.62408469  1
  O  O280  1  0.74593360  0.75871472  0.12452978  1
  O  O281  1  0.76355535  0.73754633  0.63858019  1
  O  O282  1  0.24921373  0.23954934  0.38280121  1
  O  O283  1  0.24536894  0.24890451  0.88308093  1
  O  O284  1  0.22917126  0.76190112  0.39095797  1
  O  O285  1  0.24219784  0.73554574  0.87893762  1
  O  O286  1  0.74826257  0.23425485  0.36527433  1
  O  O287  1  0.73603003  0.24057753  0.87988783  1
  O  O288  1  0.71778799  0.78982368  0.38468704  1
  O  O289  1  0.73290045  0.75861906  0.87948237  1
  O  O290  1  -0.01442394  0.10136716  -0.04744704  1
  O  O291  1  0.00778037  0.12364591  0.50236269  1
  O  O292  1  0.02043443  0.62974664  0.00297177  1
  O  O293  1  -0.00310272  0.60390149  0.50008090  1
  O  O294  1  0.49709309  0.11216994  0.00762537  1
  O  O295  1  0.51834127  0.11960521  0.49676919  1
  O  O296  1  0.50537462  0.61604206  -0.00168010  1
  O  O297  1  0.52937224  0.65257002  0.50956883  1
  O  O298  1  0.49220348  0.35881730  0.47982693  1
  O  O299  1  0.51176249  0.39231096  0.98585583  1
  O  O300  1  0.48935885  0.88013441  0.49977950  1
  O  O301  1  0.49841610  0.88465977  0.98669107  1
  O  O302  1  1.02024309  0.39077573  0.49213479  1
  O  O303  1  1.01055322  0.37015588  0.98474855  1
  O  O304  1  0.99206571  0.88839836  0.49930822  1
  O  O305  1  1.00164873  0.87791021  0.97916668  1
  O  O306  1  0.49715362  0.47808944  0.35801605  1
  O  O307  1  0.48535456  0.49423542  0.88338658  1
  O  O308  1  0.49732160  1.00470964  0.39175325  1
  O  O309  1  0.50121593  0.99334623  0.88877629  1
  O  O310  1  0.99703220  0.49501715  0.38633763  1
  O  O311  1  1.00234972  0.49028877  0.87816537  1
  O  O312  1  0.99490917  0.99702071  0.38540610  1
  O  O313  1  0.99392328  1.04681196  0.90198351  1
  O  O314  1  -0.01099884  0.00664995  0.10831246  1
  O  O315  1  0.01201895  0.01632708  0.61375320  1
  O  O316  1  0.01263009  0.50327842  0.12586858  1
  O  O317  1  0.02431892  0.49629356  0.61496285  1
  O  O318  1  0.50315252  0.00165634  0.11704839  1
  O  O319  1  0.48541615  0.00937599  0.60198277  1
  O  O320  1  0.49562099  0.49222304  0.11322866  1
  O  O321  1  0.49785912  0.51599149  0.62544335  1
  O  O322  1  0.24735104  0.36531704  0.23837849  1
  O  O323  1  0.25042619  0.36864385  0.74024277  1
  O  O324  1  0.26031247  0.88577816  0.25850829  1
  O  O325  1  0.25565535  0.87645459  0.73463681  1
  O  O326  1  0.76287819  0.40415591  0.26625756  1
  O  O327  1  0.72772091  0.36675093  0.74369474  1
  O  O328  1  0.73985287  0.87806073  0.23690459  1
  O  O329  1  0.74010449  0.88715571  0.74961598  1
  O  O330  1  0.25757841  0.11763807  0.25859921  1
  O  O331  1  0.26049343  0.12867911  0.75951406  1
  O  O332  1  0.26709370  0.67002823  0.26473392  1
  O  O333  1  0.24752275  0.62047630  0.76799946  1
  O  O334  1  0.76096238  0.11651148  0.26114593  1
  O  O335  1  0.75152128  0.11436299  0.75693859  1
  O  O336  1  0.76670471  0.61954395  0.24926157  1
  O  O337  1  0.75220488  0.60828992  0.77347327  1
  O  O338  1  0.36780652  0.13103093  0.36660057  1
  O  O339  1  0.36497362  0.13413626  0.86044370  1
  O  O340  1  0.38794480  0.59871842  0.38966517  1
  O  O341  1  0.36443719  0.61558763  0.87829718  1
  O  O342  1  0.86445468  0.11702033  0.37401939  1
  O  O343  1  0.85415380  0.12781775  0.87072119  1
  O  O344  1  0.88361608  0.63427026  0.37158983  1
  O  O345  1  0.88097612  0.63235675  0.86563688  1
  O  O346  1  0.13333356  0.38754771  0.12520249  1
  O  O347  1  0.14096323  0.38182073  0.63315793  1
  O  O348  1  0.11282985  0.90486504  0.11944729  1
  O  O349  1  0.13610350  0.88934808  0.61378213  1
  O  O350  1  0.65502730  0.36680763  0.09620933  1
  O  O351  1  0.60073875  0.39324934  0.63842962  1
  O  O352  1  0.62548123  0.88395903  0.12580050  1
  O  O353  1  0.61597507  0.86447760  0.63854986  1
  O  O354  1  0.11068554  0.24096478  0.25203391  1
  O  O355  1  0.12039385  0.26612199  0.75412397  1
  O  O356  1  0.12307942  0.75391646  0.26437108  1
  O  O357  1  0.12545492  0.74720847  0.76078638  1
  O  O358  1  0.61061843  0.24097712  0.24274586  1
  O  O359  1  0.61920462  0.25523568  0.76304373  1
  O  O360  1  0.60932861  0.74349406  0.25259427  1
  O  O361  1  0.63094317  0.76355802  0.75900815  1
  O  O362  1  0.38091173  0.23651778  0.23868981  1
  O  O363  1  0.37635880  0.24391513  0.73661540  1
  O  O364  1  0.39632384  0.75557405  0.23379569  1
  O  O365  1  0.36145197  0.74371172  0.73238804  1
  O  O366  1  0.88076108  0.23823320  0.24003373  1
  O  O367  1  0.87823093  0.23030868  0.76733288  1
  O  O368  1  0.86763610  0.73932292  0.25559422  1
  O  O369  1  0.88870688  0.75165296  0.73405682  1
  O  O370  1  0.37705689  0.48190289  0.49382329  1
  O  O371  1  0.38685962  0.50565361  0.99422867  1
  O  O372  1  0.37651545  0.98234676  0.49379986  1
  O  O373  1  0.38387576  1.00029196  1.00431319  1
  O  O374  1  0.89243902  0.48191502  0.52163014  1
  O  O375  1  0.82746237  0.50510815  0.93743777  1
  O  O376  1  0.88462614  0.99795635  0.49732398  1
  O  O377  1  0.86499170  0.96673535  0.98968478  1
  O  O378  1  0.12034640  0.01817604  0.00091470  1
  O  O379  1  0.12122808  0.01077354  0.50303054  1
  O  O380  1  0.13268594  0.51076379  0.01192047  1
  O  O381  1  0.13469631  0.50544271  0.51104923  1
  O  O382  1  0.61206018  0.00006562  0.01225136  1
  O  O383  1  0.61295286  -0.00400409  0.50251239  1
  O  O384  1  0.60956789  0.52026624  -0.00703982  1
  O  O385  1  0.61010579  0.49568608  0.50267531  1
  O  O386  1  0.36021250  0.36313388  0.13107556  1
  O  O387  1  0.37750866  0.36341682  0.61924626  1
  O  O388  1  0.37362196  0.85507007  0.11996431  1
  O  O389  1  0.37067058  0.86209940  0.61989554  1
  O  O390  1  0.87477004  0.36684403  0.12573762  1
  O  O391  1  0.91526374  0.34227776  0.68782124  1
  O  O392  1  0.85719296  0.87793458  0.13022293  1
  O  O393  1  0.88404578  0.88775255  0.62608266  1
  O  O394  1  0.13475337  0.13243562  0.38338000  1
  O  O395  1  0.14232895  0.14218883  0.86285762  1
  O  O396  1  0.11042250  0.64232505  0.37384730  1
  O  O397  1  0.13726078  0.61406007  0.88585675  1
  O  O398  1  0.63950130  0.11686901  0.38291995  1
  O  O399  1  0.63104514  0.13132969  0.87014292  1
  O  O400  1  0.72928455  0.61422476  0.43134120  1
  O  O401  1  0.61449819  0.64477056  0.86759712  1
