# generated using pymatgen
data_V73Zn73O256
_symmetry_space_group_name_H-M   'P 1'
_cell_length_a   16.88863866
_cell_length_b   16.89706525
_cell_length_c   16.85022059
_cell_angle_alpha   89.95471623
_cell_angle_beta   89.92231875
_cell_angle_gamma   90.08570316
_symmetry_Int_Tables_number   1
_chemical_formula_structural   V73Zn73O256
_chemical_formula_sum   'V73 Zn73 O256'
_cell_volume   4808.50967625
_cell_formula_units_Z   1
loop_
 _symmetry_equiv_pos_site_id
 _symmetry_equiv_pos_as_xyz
  1  'x, y, z'
loop_
 _atom_site_type_symbol
 _atom_site_label
 _atom_site_symmetry_multiplicity
 _atom_site_fract_x
 _atom_site_fract_y
 _atom_site_fract_z
 _atom_site_occupancy
  V  V0  1  0.24453717  0.12838839  0.88500635  1
  V  V1  1  0.25755374  0.86822728  0.62515488  1
  V  V2  1  0.87816413  0.47341012  0.37474454  1
  V  V3  1  0.75448057  0.62912443  0.37936102  1
  V  V4  1  -0.00301153  0.12350345  0.62255698  1
  V  V5  1  0.37442522  0.62907779  0.72636576  1
  V  V6  1  0.85897068  0.12197722  0.75444496  1
  V  V7  1  0.37101524  0.36680769  0.51320001  1
  V  V8  1  0.50578631  0.11007814  0.11021380  1
  V  V9  1  0.74078197  0.25041718  0.51352827  1
  V  V10  1  0.49717241  0.36982763  0.36562356  1
  V  V11  1  0.55238446  0.67410812  0.67311373  1
  V  V12  1  0.24397165  -0.00062067  0.25182953  1
  V  V13  1  0.86898086  0.37333606  0.00195775  1
  V  V14  1  0.24382499  0.37524686  0.13895775  1
  V  V15  1  0.88284593  0.62864453  0.74306504  1
  V  V16  1  0.14782500  0.63216856  0.00205097  1
  V  V17  1  0.00722963  -0.00458411  -0.01526941  1
  V  V18  1  0.25171914  0.26253776  0.00293889  1
  V  V19  1  0.12188865  0.00590151  0.61616350  1
  V  V20  1  0.00109265  0.60743892  0.10826125  1
  V  V21  1  0.48530443  0.63194594  0.12639554  1
  V  V22  1  -0.00361680  0.24565114  0.75357898  1
  V  V23  1  0.11148090  0.50336943  0.61878555  1
  V  V24  1  0.51112143  0.49452414  0.00352437  1
  V  V25  1  0.84923725  0.00022572  0.87302789  1
  V  V26  1  0.24470234  0.24718849  0.51682849  1
  V  V27  1  0.74122129  0.63213297  0.87621756  1
  V  V28  1  0.12160980  0.24857102  0.88896532  1
  V  V29  1  0.74820265  0.49317179  0.73918117  1
  V  V30  1  0.62625226  0.00362002  0.63904823  1
  V  V31  1  0.62515354  0.38014176  0.74054827  1
  V  V32  1  0.87374898  0.49906857  0.87953226  1
  V  V33  1  0.38349012  0.12878863  0.25463104  1
  V  V34  1  0.89301659  0.62284186  0.25707807  1
  V  V35  1  0.51772173  0.85543534  0.87454251  1
  V  V36  1  0.38525137  0.25540780  0.12344261  1
  V  V37  1  0.24360329  0.86704744  0.11814766  1
  V  V38  1  0.36635706  0.49715522  0.88232813  1
  V  V39  1  0.00037913  0.49778581  0.49511458  1
  V  V40  1  0.11194669  -0.00285703  0.13601903  1
  V  V41  1  0.50771647  0.01444616  0.50438285  1
  V  V42  1  0.69295372  -0.05974838  0.16544680  1
  V  V43  1  0.88601067  0.75014362  0.60988129  1
  V  V44  1  0.23631197  0.13392410  0.37688428  1
  V  V45  1  0.63279180  0.63391765  0.01285516  1
  V  V46  1  -0.00225798  0.37843785  0.88236076  1
  V  V47  1  0.29345669  0.68267622  0.91343420  1
  V  V48  1  0.74666966  0.49656742  0.24601358  1
  V  V49  1  0.37725769  0.51487773  0.37150021  1
  V  V50  1  0.11228562  0.86775088  0.75335730  1
  V  V51  1  0.62060112  0.24204547  0.36713406  1
  V  V52  1  0.88375843  0.90118670  0.49119168  1
  V  V53  1  0.74184587  0.37514644  0.12200909  1
  V  V54  1  0.74588691  0.87155577  0.62912817  1
  V  V55  1  0.50096223  0.37129377  0.87342056  1
  V  V56  1  0.87194859  0.36249484  0.52974909  1
  V  V57  1  0.74708017  0.23578039  0.00169822  1
  V  V58  1  0.86860062  0.12433300  0.23193658  1
  V  V59  1  0.37984542  0.87089999  0.49617920  1
  V  V60  1  0.88043807  0.75367852  0.14455474  1
  V  V61  1  0.24773717  0.49835412  0.73474171  1
  V  V62  1  0.62823403  0.24032941  0.87412416  1
  V  V63  1  0.75759666  0.11944389  0.37688930  1
  V  V64  1  0.50701213  0.50077349  0.50466384  1
  V  V65  1  0.00134397  0.13510277  0.11616160  1
  V  V66  1  0.38499092  0.13672989  0.74576567  1
  V  V67  1  0.24503348  0.51513798  0.25695646  1
  V  V68  1  0.87433510  0.86205535  -0.02061510  1
  V  V69  1  0.23723706  0.74278928  0.48595933  1
  V  V70  1  0.62483846  0.62711235  0.49477579  1
  V  V71  1  0.37962658  0.00066974  0.89429705  1
  V  V72  1  0.25187439  0.00355704  0.75297298  1
  Zn  Zn73  1  0.11961784  0.75102191  0.87300292  1
  Zn  Zn74  1  0.51671746  0.88011026  0.36431292  1
  Zn  Zn75  1  0.61291869  0.37883003  0.24277688  1
  Zn  Zn76  1  0.50153097  0.75371654  0.24688733  1
  Zn  Zn77  1  0.11380053  0.25803382  0.38209178  1
  Zn  Zn78  1  0.38192008  0.00767838  0.38091076  1
  Zn  Zn79  1  0.13113061  0.37193919  0.75211466  1
  Zn  Zn80  1  0.36580393  0.84826859  0.00037476  1
  Zn  Zn81  1  0.63144664  0.76010785  0.36426570  1
  Zn  Zn82  1  0.17601108  0.18780129  0.19110089  1
  Zn  Zn83  1  0.18295132  0.18685321  0.69726290  1
  Zn  Zn84  1  0.17249825  0.68373454  0.19453876  1
  Zn  Zn85  1  0.18649995  0.68446338  0.68314066  1
  Zn  Zn86  1  0.68494613  0.18585808  0.18916525  1
  Zn  Zn87  1  0.61360082  0.20596218  0.67023831  1
  Zn  Zn88  1  0.69145616  0.76520025  0.17245557  1
  Zn  Zn89  1  0.71457659  0.67994534  0.67632696  1
  Zn  Zn90  1  0.31760274  0.30710016  0.31627278  1
  Zn  Zn91  1  0.31244609  0.31546942  0.81150002  1
  Zn  Zn92  1  0.31305667  0.81316923  0.31362365  1
  Zn  Zn93  1  0.35365297  0.82846722  0.79192707  1
  Zn  Zn94  1  0.80438182  0.29827845  0.30560690  1
  Zn  Zn95  1  0.80909088  0.30794177  0.81138333  1
  Zn  Zn96  1  0.79947479  0.83449001  0.31919063  1
  Zn  Zn97  1  0.81147448  0.81021703  0.80536162  1
  Zn  Zn98  1  0.19136649  0.43407279  0.43360737  1
  Zn  Zn99  1  0.17938240  0.44028119  0.94542248  1
  Zn  Zn100  1  0.18725655  0.93985943  0.43673281  1
  Zn  Zn101  1  0.18597263  0.93446314  0.93638243  1
  Zn  Zn102  1  0.68883853  0.43190590  0.43703412  1
  Zn  Zn103  1  0.68830500  0.43862066  0.93232182  1
  Zn  Zn104  1  0.69369423  0.93473498  0.45102761  1
  Zn  Zn105  1  0.68231615  0.92928917  0.96611196  1
  Zn  Zn106  1  0.30457825  0.07067433  0.07161373  1
  Zn  Zn107  1  0.31312281  0.06048515  0.56271409  1
  Zn  Zn108  1  0.31611545  0.55294961  0.06957988  1
  Zn  Zn109  1  0.30812969  0.56059864  0.55110704  1
  Zn  Zn110  1  0.79527836  0.04275045  0.05928488  1
  Zn  Zn111  1  0.80414165  0.06542034  0.56662126  1
  Zn  Zn112  1  0.81331732  0.56861808  0.06551488  1
  Zn  Zn113  1  0.81661521  0.55776730  0.55924418  1
  Zn  Zn114  1  0.42976437  0.44382040  0.18667390  1
  Zn  Zn115  1  0.43826888  0.44294170  0.69036439  1
  Zn  Zn116  1  0.42760346  0.93759509  0.17790539  1
  Zn  Zn117  1  0.44264115  0.94367588  0.69250990  1
  Zn  Zn118  1  0.93074355  0.43669957  0.18645790  1
  Zn  Zn119  1  0.94025051  0.43693119  0.69443223  1
  Zn  Zn120  1  0.90547667  0.95573176  0.18485543  1
  Zn  Zn121  1  0.93195147  0.93810617  0.68752826  1
  Zn  Zn122  1  -0.00624303  0.25509838  0.26397623  1
  Zn  Zn123  1  0.06603218  0.06239771  0.80879764  1
  Zn  Zn124  1  0.10639340  0.38179143  0.26055664  1
  Zn  Zn125  1  0.06390569  0.57071409  0.81731288  1
  Zn  Zn126  1  0.56991998  0.05024730  0.30556295  1
  Zn  Zn127  1  0.56044591  0.05289280  0.81557993  1
  Zn  Zn128  1  0.60684012  0.60976210  0.26210028  1
  Zn  Zn129  1  0.56193654  0.55920566  0.81623917  1
  Zn  Zn130  1  0.44090808  0.19138137  0.57374050  1
  Zn  Zn131  1  0.43311536  0.18638235  0.93758454  1
  Zn  Zn132  1  0.44179382  0.69643829  0.43567910  1
  Zn  Zn133  1  0.45855304  0.68541749  0.93278670  1
  Zn  Zn134  1  0.93321417  0.18901985  0.44135684  1
  Zn  Zn135  1  0.93114614  0.18275069  0.94040485  1
  Zn  Zn136  1  0.94499731  0.68319604  0.43647153  1
  Zn  Zn137  1  0.95008888  0.68050331  0.92395831  1
  Zn  Zn138  1  0.04099522  0.33808952  0.09215493  1
  Zn  Zn139  1  0.06380481  0.31687422  0.56878740  1
  Zn  Zn140  1  0.05225402  0.80852266  0.06599852  1
  Zn  Zn141  1  0.05975077  0.81752819  0.56107842  1
  Zn  Zn142  1  0.56626270  0.30913305  0.05799753  1
  Zn  Zn143  1  0.56468655  0.32190786  0.55308688  1
  Zn  Zn144  1  0.55507691  0.81641545  0.05503959  1
  Zn  Zn145  1  0.56801712  0.81566336  0.55243266  1
  O  O146  1  0.11075722  0.11356249  0.12090238  1
  O  O147  1  0.11495925  0.11302214  0.63539248  1
  O  O148  1  0.11053314  0.62878304  0.11108154  1
  O  O149  1  0.12523640  0.60331786  0.62992821  1
  O  O150  1  0.60192646  0.13417783  0.13402669  1
  O  O151  1  0.62958045  0.10296415  0.63278742  1
  O  O152  1  0.62444761  0.61885181  0.11207773  1
  O  O153  1  0.62611204  0.62342181  0.60792810  1
  O  O154  1  0.38714206  0.36938972  0.38406666  1
  O  O155  1  0.38977851  0.38725485  0.86801768  1
  O  O156  1  0.36552371  0.88844434  0.39254651  1
  O  O157  1  0.35453991  0.89865798  0.88938616  1
  O  O158  1  0.87198991  0.37500776  0.36870841  1
  O  O159  1  0.87678781  0.38052144  0.88051711  1
  O  O160  1  0.86930901  0.87906784  0.39101929  1
  O  O161  1  0.87197056  0.88498142  0.87282385  1
  O  O162  1  0.24852986  0.01209116  0.36439661  1
  O  O163  1  0.24862932  0.01232541  0.87221206  1
  O  O164  1  0.26391531  0.49838656  0.36873319  1
  O  O165  1  0.26503536  0.49380253  0.87775355  1
  O  O166  1  0.73691060  0.02265773  0.38644257  1
  O  O167  1  0.75178183  -0.00336914  0.88182567  1
  O  O168  1  0.76465751  0.49586723  0.36925629  1
  O  O169  1  0.75868592  0.50520250  0.86659380  1
  O  O170  1  0.26682232  0.48286982  0.14341424  1
  O  O171  1  0.24040023  0.49707058  0.63111474  1
  O  O172  1  0.23279166  0.99984866  0.13089205  1
  O  O173  1  0.23859592  1.00149837  0.63397401  1
  O  O174  1  0.75850778  0.49471657  0.13984991  1
  O  O175  1  0.75385892  0.50130538  0.64011180  1
  O  O176  1  0.79311390  0.98271949  0.15900544  1
  O  O177  1  0.73598410  0.99010476  0.62330257  1
  O  O178  1  0.00577705  0.35667734  0.20537915  1
  O  O179  1  -0.00638844  0.36113766  0.76556130  1
  O  O180  1  0.00576852  0.89478751  0.29164834  1
  O  O181  1  0.01383198  0.87755806  0.74603936  1
  O  O182  1  0.49504788  0.38156908  0.26117389  1
  O  O183  1  0.51255259  0.38996502  0.76346556  1
  O  O184  1  0.47760734  0.87185431  0.25352033  1
  O  O185  1  0.46712430  0.87278354  0.77939031  1
  O  O186  1  0.48472088  0.11423702  0.24430665  1
  O  O187  1  0.48363426  0.12239066  0.75722137  1
  O  O188  1  0.49830209  0.61125302  0.22678049  1
  O  O189  1  0.49160630  0.61158898  0.73938247  1
  O  O190  1  0.99006247  0.14085820  0.21976724  1
  O  O191  1  0.99574831  0.13227369  0.75001779  1
  O  O192  1  0.98969262  0.61697463  0.25658807  1
  O  O193  1  0.97686352  0.60192184  0.73525744  1
  O  O194  1  0.36465971  0.24841304  0.01342098  1
  O  O195  1  0.36875290  0.26047388  0.50950290  1
  O  O196  1  0.36124098  0.73157421  -0.01998572  1
  O  O197  1  0.36295336  0.76635876  0.49564504  1
  O  O198  1  0.85539172  0.26120586  -0.01414061  1
  O  O199  1  0.86100622  0.25789076  0.51051712  1
  O  O200  1  0.89571899  0.76236933  -0.02025857  1
  O  O201  1  0.87939055  0.74288096  0.50827876  1
  O  O202  1  0.14139982  0.25904461  0.50215627  1
  O  O203  1  0.13391665  0.25677271  0.99108187  1
  O  O204  1  0.13877031  0.75858069  0.50673985  1
  O  O205  1  0.10681997  0.73347336  0.99454362  1
  O  O206  1  0.63603220  0.26429338  0.48100683  1
  O  O207  1  0.63478933  0.25124370  0.98631089  1
  O  O208  1  0.62371966  0.72834369  0.49060846  1
  O  O209  1  0.62558351  0.73204125  1.00168889  1
  O  O210  1  0.48702645  0.25219250  0.12036242  1
  O  O211  1  0.51947940  0.24993021  0.62574656  1
  O  O212  1  0.50216921  0.73419531  0.12075508  1
  O  O213  1  0.50430163  0.74064670  0.61657644  1
  O  O214  1  1.00080297  0.23009698  0.08650164  1
  O  O215  1  1.00999147  0.23646143  0.64234499  1
  O  O216  1  0.98401355  0.72615544  0.12035254  1
  O  O217  1  0.98532512  0.75048397  0.62467388  1
  O  O218  1  0.00014619  0.24980114  0.37904715  1
  O  O219  1  0.00439845  0.25316954  0.87595786  1
  O  O220  1  0.02052657  0.74720998  0.37425722  1
  O  O221  1  0.03903667  0.67199267  0.85808947  1
  O  O222  1  0.51392175  0.26349443  0.37677813  1
  O  O223  1  0.50621016  0.26602437  0.88373300  1
  O  O224  1  0.50927620  0.75747681  0.36953725  1
  O  O225  1  0.51904905  0.75367898  0.86701207  1
  O  O226  1  0.26065613  0.13750287  0.48956201  1
  O  O227  1  0.25093597  0.14059450  0.99127767  1
  O  O228  1  0.25105132  0.64342223  0.49994636  1
  O  O229  1  0.25006604  0.63555797  1.02363574  1
  O  O230  1  0.75223707  0.14194244  0.49236277  1
  O  O231  1  0.75583624  0.13803943  1.00363266  1
  O  O232  1  0.74093311  0.60876752  0.48744858  1
  O  O233  1  0.74261500  0.61612684  0.98799696  1
  O  O234  1  0.24931278  0.36960084  0.01001810  1
  O  O235  1  0.26379748  0.36247676  0.49699950  1
  O  O236  1  0.23673739  0.86655128  0.01358981  1
  O  O237  1  0.25589911  0.87916537  0.51191000  1
  O  O238  1  0.75107286  0.37248993  0.00500164  1
  O  O239  1  0.76236507  0.36504488  0.49898384  1
  O  O240  1  0.77699897  0.86489701  0.00177587  1
  O  O241  1  0.77207808  0.88125486  0.51615177  1
  O  O242  1  0.14778191  0.49335988  0.25491141  1
  O  O243  1  0.13880325  0.50639936  0.75360809  1
  O  O244  1  0.13339018  1.00722545  0.23889675  1
  O  O245  1  0.13705978  0.98878890  0.74937324  1
  O  O246  1  0.64480595  0.49884371  0.25511821  1
  O  O247  1  0.63793616  0.49204488  0.75692158  1
  O  O248  1  0.63616481  0.99395707  0.22947433  1
  O  O249  1  0.61064598  0.98703225  0.73806584  1
  O  O250  1  0.35551493  0.01689086  0.23944648  1
  O  O251  1  0.36329675  0.01102378  0.76002055  1
  O  O252  1  0.36657902  0.49747076  0.26560966  1
  O  O253  1  0.36521774  0.50695140  0.75795778  1
  O  O254  1  0.89699860  0.03334872  0.26863850  1
  O  O255  1  0.87549857  0.00690166  0.76468901  1
  O  O256  1  0.87349203  0.50247185  0.26393404  1
  O  O257  1  0.86207876  0.50071776  0.75694286  1
  O  O258  1  0.12160986  0.37311790  0.37351563  1
  O  O259  1  0.11278544  0.37041958  0.87724057  1
  O  O260  1  0.11122539  0.88240701  0.36920157  1
  O  O261  1  0.13132169  0.86792586  0.85910623  1
  O  O262  1  0.61011285  0.37600526  0.37090876  1
  O  O263  1  0.61342884  0.37243329  0.87036206  1
  O  O264  1  0.63147689  0.87094973  0.38400926  1
  O  O265  1  0.61305219  0.88940550  0.88499412  1
  O  O266  1  0.38207607  0.13623477  0.13097743  1
  O  O267  1  0.37218465  0.12362290  0.64027091  1
  O  O268  1  0.38672381  0.62649110  0.11816511  1
  O  O269  1  0.37694712  0.61362495  0.62750638  1
  O  O270  1  0.87760409  0.11570433  0.12649862  1
  O  O271  1  0.88794940  0.11244128  0.64402740  1
  O  O272  1  0.88573429  0.61658699  0.14467556  1
  O  O273  1  0.85726704  0.63681864  0.63373890  1
  O  O274  1  0.25278134  0.25666924  0.11968009  1
  O  O275  1  0.24535730  0.24157926  0.61673569  1
  O  O276  1  0.22741846  0.77269757  0.14649630  1
  O  O277  1  0.24964836  0.76663615  0.61933342  1
  O  O278  1  0.74185148  0.25804099  0.10924246  1
  O  O279  1  0.72170191  0.24509777  0.61018443  1
  O  O280  1  0.78606852  0.73059517  0.11359598  1
  O  O281  1  0.76473201  0.76307966  0.62118982  1
  O  O282  1  0.24944583  0.24039623  0.38190063  1
  O  O283  1  0.24330302  0.25012157  0.88291628  1
  O  O284  1  0.24159451  0.76258205  0.38592140  1
  O  O285  1  0.27782901  0.76013782  0.85338839  1
  O  O286  1  0.73781264  0.24166800  0.38177995  1
  O  O287  1  0.73568793  0.25299024  0.88417875  1
  O  O288  1  0.75610345  0.72963081  0.37054438  1
  O  O289  1  0.75279088  0.73034389  0.86636171  1
  O  O290  1  -0.01635413  0.10078540  0.00605258  1
  O  O291  1  -0.00854900  0.13218517  0.52451288  1
  O  O292  1  -0.02084109  0.60703255  0.01134568  1
  O  O293  1  -0.00919119  0.59685344  0.49718800  1
  O  O294  1  0.49856531  0.13036287  0.01067669  1
  O  O295  1  0.49537847  0.11267615  0.50518281  1
  O  O296  1  0.51383637  0.61434575  0.00463811  1
  O  O297  1  0.51415944  0.61213730  0.48816267  1
  O  O298  1  0.49045869  0.38457482  0.49038923  1
  O  O299  1  0.50562735  0.38682131  0.98880991  1
  O  O300  1  0.48521600  0.87637430  0.49912187  1
  O  O301  1  0.48284131  0.85992771  0.97801986  1
  O  O302  1  0.97846691  0.37622018  0.51217260  1
  O  O303  1  0.98491143  0.37109802  0.99158712  1
  O  O304  1  0.98385546  0.87802294  0.50347180  1
  O  O305  1  0.98655821  0.88979888  1.00625657  1
  O  O306  1  0.48447491  0.48741900  0.38361740  1
  O  O307  1  0.49213737  0.49528222  0.88517640  1
  O  O308  1  0.50284199  0.99782993  0.38793929  1
  O  O309  1  0.48128597  0.99845809  0.88112025  1
  O  O310  1  0.98424592  0.48627616  0.38828720  1
  O  O311  1  0.98707482  0.48737758  0.86522526  1
  O  O312  1  1.04534029  0.92637636  0.34677086  1
  O  O313  1  1.00472286  0.99875511  0.88370303  1
  O  O314  1  0.00520801  0.00347530  0.12493306  1
  O  O315  1  0.01301095  0.00981079  0.63577765  1
  O  O316  1  0.00067966  0.50940205  0.13047299  1
  O  O317  1  0.00323965  0.49704480  0.61549523  1
  O  O318  1  0.49311657  0.01019736  0.11768280  1
  O  O319  1  0.51091217  -0.01054048  0.61494246  1
  O  O320  1  0.49082245  0.50250971  0.10653093  1
  O  O321  1  0.49579237  0.49741486  0.60406900  1
  O  O322  1  0.25031187  0.36793759  0.24210780  1
  O  O323  1  0.25087894  0.39403969  0.75566636  1
  O  O324  1  0.25213317  0.89707746  0.24507068  1
  O  O325  1  0.25807895  0.88641982  0.73538379  1
  O  O326  1  0.75531154  0.38411942  0.24040176  1
  O  O327  1  0.73995869  0.38474175  0.75639805  1
  O  O328  1  0.73957423  0.86006514  0.23001394  1
  O  O329  1  0.75948220  0.87673734  0.73057957  1
  O  O330  1  0.25047932  0.12245530  0.25835086  1
  O  O331  1  0.25419589  0.11983533  0.76219549  1
  O  O332  1  0.24689615  0.61453434  0.24551986  1
  O  O333  1  0.26318623  0.61203929  0.74093521  1
  O  O334  1  0.75990655  0.12938296  0.25887171  1
  O  O335  1  0.76388551  0.12861132  0.74623713  1
  O  O336  1  0.76152426  0.60520492  0.26570812  1
  O  O337  1  0.75473658  0.60935935  0.75984350  1
  O  O338  1  0.36700273  0.12379791  0.35703485  1
  O  O339  1  0.36426986  0.11923301  0.86905362  1
  O  O340  1  0.38157761  0.61300640  0.38186967  1
  O  O341  1  0.37017129  0.61717293  0.86735967  1
  O  O342  1  0.85880466  0.12816915  0.37793260  1
  O  O343  1  0.87142652  0.10921855  0.86888917  1
  O  O344  1  0.87036837  0.61467178  0.37171980  1
  O  O345  1  0.86618099  0.61511095  0.86311561  1
  O  O346  1  0.14407646  0.37930406  0.12303490  1
  O  O347  1  0.11611703  0.39411730  0.63946027  1
  O  O348  1  0.12391129  0.89052836  0.12536286  1
  O  O349  1  0.13517381  0.88861506  0.63466063  1
  O  O350  1  0.63547587  0.37515975  0.12578451  1
  O  O351  1  0.62110759  0.37917546  0.64200039  1
  O  O352  1  0.63523976  0.85763698  0.12211472  1
  O  O353  1  0.64059075  0.87451067  0.61693786  1
  O  O354  1  0.11636053  0.25645783  0.25766395  1
  O  O355  1  0.11581381  0.25345529  0.76644117  1
  O  O356  1  0.10249561  0.74318422  0.27181818  1
  O  O357  1  0.13259241  0.76658012  0.74195632  1
  O  O358  1  0.63499947  0.26284510  0.26415416  1
  O  O359  1  0.62888353  0.27007091  0.76532030  1
  O  O360  1  0.61981048  0.72431343  0.25187837  1
  O  O361  1  0.61683730  0.72273092  0.73125561  1
  O  O362  1  0.37002877  0.23674307  0.23675980  1
  O  O363  1  0.37126251  0.23632961  0.75746265  1
  O  O364  1  0.38751459  0.76878491  0.24589207  1
  O  O365  1  0.37820187  0.72765059  0.73744057  1
  O  O366  1  0.87806207  0.23193422  0.25205368  1
  O  O367  1  0.88379850  0.23355113  0.76423971  1
  O  O368  1  0.87614573  0.73300694  0.25090720  1
  O  O369  1  0.87837409  0.73254288  0.74738823  1
  O  O370  1  0.37665108  0.48890530  0.48889506  1
  O  O371  1  0.38413670  0.50540440  0.98565692  1
  O  O372  1  0.38711442  0.99365088  0.50373574  1
  O  O373  1  0.36508619  1.01292380  0.99302820  1
  O  O374  1  0.87638864  0.48105333  0.49322748  1
  O  O375  1  0.86377532  0.48954730  0.98806826  1
  O  O376  1  0.87931051  1.00096644  0.50607476  1
  O  O377  1  0.87790502  0.98848979  0.98188912  1
  O  O378  1  0.11008395  -0.00444668  0.00699443  1
  O  O379  1  0.12768042  0.00020924  0.51734874  1
  O  O380  1  0.12366103  0.53529267  -0.02358380  1
  O  O381  1  0.11214295  0.48890105  0.50859411  1
  O  O382  1  0.68491120  -0.01020003  0.06220621  1
  O  O383  1  0.61110942  -0.00314144  0.51054048  1
  O  O384  1  0.61429133  0.50494783  -0.00442863  1
  O  O385  1  0.61261645  0.50116462  0.49364376  1
  O  O386  1  0.36664327  0.35926567  0.13195300  1
  O  O387  1  0.37895355  0.38192769  0.61186874  1
  O  O388  1  0.34936741  0.88107758  0.11357507  1
  O  O389  1  0.36270264  0.88466527  0.61677199  1
  O  O390  1  0.86032076  0.37902531  0.10968397  1
  O  O391  1  0.86743317  0.37195538  0.62874952  1
  O  O392  1  0.89382021  0.85432206  0.13261717  1
  O  O393  1  0.87360219  0.86535557  0.61815526  1
  O  O394  1  0.13910860  0.12835407  0.38083408  1
  O  O395  1  0.13394215  0.13621376  0.87184204  1
  O  O396  1  0.07998486  0.70765112  0.33805575  1
  O  O397  1  0.19042810  0.65126746  0.89614963  1
  O  O398  1  0.62737909  0.13849075  0.36303967  1
  O  O399  1  0.61514203  0.14273149  0.86416922  1
  O  O400  1  0.64425416  0.61636885  0.38045054  1
  O  O401  1  0.63744084  0.61785895  0.88205195  1
