# generated using pymatgen
data_V73Zn73O256
_symmetry_space_group_name_H-M   'P 1'
_cell_length_a   16.90946834
_cell_length_b   16.87498724
_cell_length_c   16.95667115
_cell_angle_alpha   89.86143850
_cell_angle_beta   89.66108547
_cell_angle_gamma   90.27271361
_symmetry_Int_Tables_number   1
_chemical_formula_structural   V73Zn73O256
_chemical_formula_sum   'V73 Zn73 O256'
_cell_volume   4838.38236559
_cell_formula_units_Z   1
loop_
 _symmetry_equiv_pos_site_id
 _symmetry_equiv_pos_as_xyz
  1  'x, y, z'
loop_
 _atom_site_type_symbol
 _atom_site_label
 _atom_site_symmetry_multiplicity
 _atom_site_fract_x
 _atom_site_fract_y
 _atom_site_fract_z
 _atom_site_occupancy
  V  V0  1  0.65202090  0.12172999  0.50653628  1
  V  V1  1  0.87277068  0.62413342  0.24975734  1
  V  V2  1  0.49703131  0.09548585  0.15052248  1
  V  V3  1  0.61813276  0.36429061  0.25932784  1
  V  V4  1  0.37820002  0.75077503  0.63629865  1
  V  V5  1  0.37667376  0.22569163  0.65417806  1
  V  V6  1  0.72639611  0.62534661  0.88018086  1
  V  V7  1  0.87234326  0.51659159  0.86088598  1
  V  V8  1  0.12344261  0.88070119  0.24069269  1
  V  V9  1  -0.00325797  0.87431369  0.88509967  1
  V  V10  1  0.75937518  0.00504169  0.27668007  1
  V  V11  1  0.62636157  -0.00564607  0.62559872  1
  V  V12  1  -0.00398863  0.25169015  0.74668766  1
  V  V13  1  -0.01862368  0.49238561  0.00145259  1
  V  V14  1  0.12062174  0.49669405  0.12263510  1
  V  V15  1  0.75153685  0.86310573  0.61994155  1
  V  V16  1  0.50545476  0.75066066  0.76159523  1
  V  V17  1  0.49078593  0.38010732  0.90099169  1
  V  V18  1  0.87199149  0.22894997  0.11296119  1
  V  V19  1  0.49932793  0.00274656  0.50491626  1
  V  V20  1  -0.00003562  0.02650069  -0.00339293  1
  V  V21  1  0.12175297  0.87509854  0.74756761  1
  V  V22  1  0.26702515  0.00359280  0.25866214  1
  V  V23  1  0.25294598  0.75355884  0.00088659  1
  V  V24  1  0.25341262  0.37557492  0.11720931  1
  V  V25  1  0.75721386  0.41397290  0.64643252  1
  V  V26  1  0.63173539  0.24240207  0.38143849  1
  V  V27  1  -0.00462439  0.62465865  0.12339389  1
  V  V28  1  0.00066745  0.00481376  0.49627130  1
  V  V29  1  0.13999203  0.24190165  0.37766458  1
  V  V30  1  0.45790657  -0.04665820  -0.07293737  1
  V  V31  1  0.36382383  0.50793258  0.85997944  1
  V  V32  1  0.12381344  0.00816825  0.62085169  1
  V  V33  1  0.12075224  0.62431186  -0.00650120  1
  V  V34  1  0.25452696  0.87443425  0.62716845  1
  V  V35  1  0.38613979  0.25070330  0.13761254  1
  V  V36  1  0.62891731  0.62788292  0.51644051  1
  V  V37  1  0.26210254  0.24360501  0.00093222  1
  V  V38  1  0.63061098  0.86500052  0.76778542  1
  V  V39  1  0.87084278  0.12756951  0.75243039  1
  V  V40  1  0.25737510  0.88250781  0.11056737  1
  V  V41  1  0.87849470  0.87028652  0.49739730  1
  V  V42  1  0.11923001  0.37518170  0.24310470  1
  V  V43  1  0.74539109  0.64137772  0.37603849  1
  V  V44  1  -0.00177522  0.37194766  0.37947534  1
  V  V45  1  0.63603121  0.88418211  0.22352389  1
  V  V46  1  0.00081120  0.61886700  0.60565947  1
  V  V47  1  0.12015341  0.01882677  0.11561841  1
  V  V48  1  0.25646827  0.00874479  0.75453880  1
  V  V49  1  0.37106600  0.87178159  0.49463657  1
  V  V50  1  0.62261402  0.50637221  0.13114984  1
  V  V51  1  -0.00198654  0.13233220  0.62071686  1
  V  V52  1  0.13871292  0.63063951  0.48722614  1
  V  V53  1  0.75126437  0.76626315  -0.00173925  1
  V  V54  1  0.00091295  0.75253655  0.24785337  1
  V  V55  1  0.61272094  0.39216686  0.74332438  1
  V  V56  1  0.75790472  0.26378532  0.52510527  1
  V  V57  1  0.87442000  -0.00268538  0.87503815  1
  V  V58  1  0.75615824  0.48051587  0.25758977  1
  V  V59  1  0.75503055  -0.00129100  0.75337455  1
  V  V60  1  -0.00030706  0.73817755  0.74863262  1
  V  V61  1  0.25823897  0.12381272  0.87851325  1
  V  V62  1  0.49309228  0.61356790  0.62917526  1
  V  V63  1  0.52807264  0.86654368  0.38399775  1
  V  V64  1  0.49991275  0.37992157  0.41356485  1
  V  V65  1  0.12864330  0.74909624  0.87321417  1
  V  V66  1  0.88202904  0.49627787  0.38169320  1
  V  V67  1  0.87682295  0.74730492  0.62979361  1
  V  V68  1  0.10851147  0.23651934  0.89382435  1
  V  V69  1  0.00034832  0.87949042  0.37223271  1
  V  V70  1  0.13757271  0.37847669  0.76608930  1
  V  V71  1  -0.02671880  0.36525827  0.88380386  1
  V  V72  1  -0.00516938  0.23086336  0.24266732  1
  Zn  Zn73  1  0.27554178  0.35515325  0.57838555  1
  Zn  Zn74  1  0.87327054  0.77083008  0.11594355  1
  Zn  Zn75  1  0.62611209  0.24456478  0.87893726  1
  Zn  Zn76  1  0.17286770  0.49739122  0.61574557  1
  Zn  Zn77  1  0.15867685  0.75205634  0.37641871  1
  Zn  Zn78  1  0.89148757  0.37661772  0.52146417  1
  Zn  Zn79  1  0.75633550  0.35707884  0.10727304  1
  Zn  Zn80  1  0.37236341  0.52231115  0.34243620  1
  Zn  Zn81  1  0.50747174  0.74581816  0.25679474  1
  Zn  Zn82  1  0.19527297  0.18904829  0.20206401  1
  Zn  Zn83  1  0.18745749  0.19606239  0.68950607  1
  Zn  Zn84  1  0.21515265  0.71099523  0.20908907  1
  Zn  Zn85  1  0.19295288  0.67960075  0.67006279  1
  Zn  Zn86  1  0.69591849  0.15094925  0.13662081  1
  Zn  Zn87  1  0.66893416  0.19815137  0.70078716  1
  Zn  Zn88  1  0.65085145  0.71633150  0.12874077  1
  Zn  Zn89  1  0.68930314  0.67456175  0.69521614  1
  Zn  Zn90  1  0.31069455  0.36401177  0.34102596  1
  Zn  Zn91  1  0.32573880  0.31158570  0.81270998  1
  Zn  Zn92  1  0.33372696  0.80781530  0.29978498  1
  Zn  Zn93  1  0.32003978  0.82726377  0.82077823  1
  Zn  Zn94  1  0.81786263  0.28363128  0.32725801  1
  Zn  Zn95  1  0.78774120  0.30581176  0.81081868  1
  Zn  Zn96  1  0.81708958  0.81874855  0.30349843  1
  Zn  Zn97  1  0.81180853  0.80489513  0.81741574  1
  Zn  Zn98  1  0.17452607  0.43661550  0.44399757  1
  Zn  Zn99  1  0.18252522  0.43645307  0.93148517  1
  Zn  Zn100  1  0.18673471  0.93773400  0.43642248  1
  Zn  Zn101  1  0.17968705  0.94186262  0.93567413  1
  Zn  Zn102  1  0.68535444  0.43947666  0.45165078  1
  Zn  Zn103  1  0.67862857  0.44525434  0.93300219  1
  Zn  Zn104  1  0.69847823  0.93871567  0.43927176  1
  Zn  Zn105  1  0.62243384  1.07380367  0.99785353  1
  Zn  Zn106  1  0.31423952  0.07206557  0.07369617  1
  Zn  Zn107  1  0.32143225  0.05793754  0.57356334  1
  Zn  Zn108  1  0.30667817  0.55360458  0.03100031  1
  Zn  Zn109  1  0.30860169  0.54564449  0.49029239  1
  Zn  Zn110  1  0.81931046  0.04279008  0.07319789  1
  Zn  Zn111  1  0.82020983  0.05521112  0.56926479  1
  Zn  Zn112  1  0.79611486  0.57002921  0.06607419  1
  Zn  Zn113  1  0.81851758  0.57022305  0.55438867  1
  Zn  Zn114  1  0.44053061  0.43208065  0.19984152  1
  Zn  Zn115  1  0.36300999  0.46974166  0.66470096  1
  Zn  Zn116  1  0.43846828  0.90715892  0.19642065  1
  Zn  Zn117  1  0.46112162  0.96022649  0.72496709  1
  Zn  Zn118  1  0.93042066  0.42260575  0.18333117  1
  Zn  Zn119  1  0.94687253  0.43913280  0.69446334  1
  Zn  Zn120  1  0.94406816  0.96569519  0.19454993  1
  Zn  Zn121  1  0.93928836  0.93560012  0.68536332  1
  Zn  Zn122  1  0.07613784  0.06389266  0.31554029  1
  Zn  Zn123  1  0.06201986  0.06518078  0.80891105  1
  Zn  Zn124  1  0.06558647  0.56089522  0.31234306  1
  Zn  Zn125  1  0.11139574  0.57264460  0.78402713  1
  Zn  Zn126  1  0.56916290  0.05517772  0.32299099  1
  Zn  Zn127  1  0.57850413  0.06856458  0.81667925  1
  Zn  Zn128  1  0.57831384  0.54548683  0.34911623  1
  Zn  Zn129  1  0.55318935  0.55844925  0.81458796  1
  Zn  Zn130  1  0.46530376  0.21195846  0.48702600  1
  Zn  Zn131  1  0.46415279  0.16714526  0.90501491  1
  Zn  Zn132  1  0.43898012  0.68804296  0.44683072  1
  Zn  Zn133  1  0.42623308  0.68139416  0.93204946  1
  Zn  Zn134  1  0.93289348  0.18932731  0.43571086  1
  Zn  Zn135  1  0.78739551  0.17865535  0.95903088  1
  Zn  Zn136  1  0.93976791  0.69238918  0.43199533  1
  Zn  Zn137  1  0.93263261  0.69234394  0.94106651  1
  Zn  Zn138  1  0.05056182  0.30601806  0.06184527  1
  Zn  Zn139  1  0.08278234  0.30931672  0.55941973  1
  Zn  Zn140  1  0.06421216  0.81251643  0.06445658  1
  Zn  Zn141  1  0.06629235  0.80824695  0.55831388  1
  Zn  Zn142  1  0.56495881  0.33555966  0.06961494  1
  Zn  Zn143  1  0.49045532  0.36017989  0.61133542  1
  Zn  Zn144  1  0.61399714  0.87182388  0.00395919  1
  Zn  Zn145  1  0.56304531  0.80674943  0.56347214  1
  O  O146  1  0.13015391  0.11582565  0.12672970  1
  O  O147  1  0.11488302  0.11597588  0.63193767  1
  O  O148  1  0.10839514  0.61506829  0.11451466  1
  O  O149  1  0.10364703  0.65052395  0.59893750  1
  O  O150  1  0.58617505  0.12483929  0.10138492  1
  O  O151  1  0.63880570  0.10473204  0.61238981  1
  O  O152  1  0.62487689  0.60585471  0.14533953  1
  O  O153  1  0.61917456  0.61758100  0.62085729  1
  O  O154  1  0.40439327  0.34750949  0.41523729  1
  O  O155  1  0.38528803  0.38189637  0.87619133  1
  O  O156  1  0.36943698  0.86924824  0.39506453  1
  O  O157  1  0.38358351  0.89743206  0.88185413  1
  O  O158  1  0.88990464  0.37638890  0.37242562  1
  O  O159  1  0.87287792  0.37142275  0.87560604  1
  O  O160  1  0.89086146  0.87031575  0.38323282  1
  O  O161  1  0.88824881  0.88610525  0.86045353  1
  O  O162  1  0.23841351  -0.00386377  0.35513215  1
  O  O163  1  0.23998282  0.01122448  0.86497813  1
  O  O164  1  0.27765981  0.46425356  0.40557627  1
  O  O165  1  0.28657163  0.49133449  0.93546830  1
  O  O166  1  0.75381146  0.01494995  0.37791007  1
  O  O167  1  0.76276162  -0.00834387  0.85677518  1
  O  O168  1  0.76110850  0.50616767  0.36751388  1
  O  O169  1  0.76515427  0.51250736  0.88813507  1
  O  O170  1  0.23599228  0.48003000  0.10214090  1
  O  O171  1  0.28586995  0.48480483  0.58277758  1
  O  O172  1  0.23448538  0.99457612  0.11057352  1
  O  O173  1  0.24083616  0.99635093  0.63624079  1
  O  O174  1  0.74924957  0.49591846  0.15024384  1
  O  O175  1  0.75343454  0.51287806  0.62888597  1
  O  O176  1  0.80422792  0.93055779  0.11006734  1
  O  O177  1  0.74909148  0.98284873  0.63298787  1
  O  O178  1  0.00699443  0.36675806  0.25313132  1
  O  O179  1  0.00028687  0.36533754  0.76913784  1
  O  O180  1  0.00404789  0.87605512  0.25267886  1
  O  O181  1  0.01135916  0.86885531  0.75120020  1
  O  O182  1  0.51996780  0.35915111  0.25867205  1
  O  O183  1  0.51592938  0.37252599  0.72356858  1
  O  O184  1  0.52985872  0.88881740  0.27869447  1
  O  O185  1  0.52103495  0.86192487  0.74725925  1
  O  O186  1  0.51083843  0.11599446  0.24738019  1
  O  O187  1  0.57562916  0.14903330  0.73954064  1
  O  O188  1  0.50147704  0.62510568  0.27915505  1
  O  O189  1  0.51159864  0.64130606  0.73682529  1
  O  O190  1  1.00174166  0.13198936  0.25738580  1
  O  O191  1  0.99361476  0.13215505  0.74125521  1
  O  O192  1  0.99531875  0.63245277  0.24309726  1
  O  O193  1  1.01671804  0.63728358  0.73927974  1
  O  O194  1  0.36005323  0.24828256  -0.00033087  1
  O  O195  1  0.35603428  0.19936203  0.43929448  1
  O  O196  1  0.35041386  0.75055910  -0.01171164  1
  O  O197  1  0.38216404  0.76721461  0.52073048  1
  O  O198  1  0.87419313  0.23189699  0.01187397  1
  O  O199  1  0.86086116  0.25842357  0.50774613  1
  O  O200  1  0.86678332  0.75975860  -0.00073702  1
  O  O201  1  0.88713250  0.76312504  0.51144946  1
  O  O202  1  0.11633983  0.23530372  0.47460043  1
  O  O203  1  0.11687723  0.23645301  0.99469776  1
  O  O204  1  0.11809721  0.74490833  0.48227872  1
  O  O205  1  0.12192573  0.74294650  0.99002427  1
  O  O206  1  0.63962963  0.22646188  0.50990053  1
  O  O207  1  0.64813400  0.29209528  0.99685735  1
  O  O208  1  0.62242187  0.72833326  0.50184591  1
  O  O209  1  0.64044976  0.75909700  1.01970813  1
  O  O210  1  0.48411350  0.27030365  0.12005994  1
  O  O211  1  0.46614279  0.24568243  0.59420360  1
  O  O212  1  0.47605338  0.69005817  0.09887868  1
  O  O213  1  0.49061101  0.75069929  0.63673590  1
  O  O214  1  0.99176994  0.24229888  0.13540011  1
  O  O215  1  1.01389920  0.24456660  0.63196077  1
  O  O216  1  0.99357804  0.74186390  0.12725090  1
  O  O217  1  0.99332082  0.74899881  0.63200543  1
  O  O218  1  0.00897495  0.25899720  0.36168154  1
  O  O219  1  0.00397542  0.24848090  0.86915103  1
  O  O220  1  -0.00017699  0.76109135  0.35757588  1
  O  O221  1  0.00691306  0.75691642  0.86588144  1
  O  O222  1  0.52902424  0.26309224  0.40439441  1
  O  O223  1  0.50350711  0.27566699  0.88927816  1
  O  O224  1  0.49403048  0.76581796  0.37841076  1
  O  O225  1  0.49524073  0.73882167  0.86007605  1
  O  O226  1  0.26541676  0.11117298  0.48501875  1
  O  O227  1  0.25012210  0.13004353  0.98961973  1
  O  O228  1  0.23630612  0.64152493  0.50265505  1
  O  O229  1  0.23019610  0.64340731  1.00788883  1
  O  O230  1  0.75437339  0.12744433  0.50549974  1
  O  O231  1  0.73237444  0.10166246  1.02804712  1
  O  O232  1  0.74170277  0.62487305  0.48628229  1
  O  O233  1  0.75150808  0.63554671  0.98783665  1
  O  O234  1  0.22935271  0.34909069  0.01161051  1
  O  O235  1  0.17489454  0.37102987  0.53812867  1
  O  O236  1  0.23311767  0.86646832  0.00372375  1
  O  O237  1  0.26141275  0.88536956  0.51220139  1
  O  O238  1  0.71529438  0.34596361  -0.00620083  1
  O  O239  1  0.74865743  0.37249804  0.52398829  1
  O  O240  1  0.74636974  0.86535746  -0.01507228  1
  O  O241  1  0.76611246  0.87820565  0.51053725  1
  O  O242  1  0.11862756  0.49295808  0.23189076  1
  O  O243  1  0.13952057  0.46910069  0.82107230  1
  O  O244  1  0.12353287  0.99549082  0.23078220  1
  O  O245  1  0.12673606  0.99179409  0.74007019  1
  O  O246  1  0.64174093  0.48255537  0.25966170  1
  O  O247  1  0.62233105  0.49478827  0.75086425  1
  O  O248  1  0.64035988  0.98392093  0.26900932  1
  O  O249  1  0.63692614  0.98158704  0.74354619  1
  O  O250  1  0.36383237  -0.01915346  0.25462778  1
  O  O251  1  0.35353764  -0.00346345  0.74407337  1
  O  O252  1  0.35500479  0.44342080  0.26654465  1
  O  O253  1  0.32902684  0.49104136  0.76871513  1
  O  O254  1  0.86019496  -0.00707565  0.26019210  1
  O  O255  1  0.87354355  0.00395689  0.75167593  1
  O  O256  1  0.87071738  0.50114843  0.25788700  1
  O  O257  1  0.88144395  0.50586239  0.76377816  1
  O  O258  1  0.11145965  0.37562693  0.36116216  1
  O  O259  1  0.11680622  0.34536826  0.88177598  1
  O  O260  1  0.11904733  0.87261321  0.35801849  1
  O  O261  1  0.11549617  0.87066401  0.86465749  1
  O  O262  1  0.62135535  0.37343212  0.37490853  1
  O  O263  1  0.59565774  0.39981632  0.86637847  1
  O  O264  1  0.62573916  0.85911766  0.39935793  1
  O  O265  1  0.63457513  0.86381808  0.86259813  1
  O  O266  1  0.39802003  0.13747747  0.11945097  1
  O  O267  1  0.38098525  0.12401874  0.63967435  1
  O  O268  1  0.32708556  0.60561063  0.15047465  1
  O  O269  1  0.38455486  0.64618517  0.62883979  1
  O  O270  1  0.87649235  0.12691767  0.12875113  1
  O  O271  1  0.89089350  0.11965829  0.63564704  1
  O  O272  1  0.88650909  0.61506622  0.13551119  1
  O  O273  1  0.88730224  0.63896214  0.61688563  1
  O  O274  1  0.25895806  0.24467376  0.11436975  1
  O  O275  1  0.27229469  0.23989142  0.62664497  1
  O  O276  1  0.24323567  0.76830756  0.11107700  1
  O  O277  1  0.26505598  0.76160974  0.64163591  1
  O  O278  1  0.76656283  0.24088190  0.13591446  1
  O  O279  1  0.74480453  0.24511452  0.62336133  1
  O  O280  1  0.76200487  0.74412312  0.10764434  1
  O  O281  1  0.76164765  0.75423959  0.63445390  1
  O  O282  1  0.23419343  0.27960488  0.36632040  1
  O  O283  1  0.23786847  0.23860101  0.88801052  1
  O  O284  1  0.25000928  0.73677533  0.31397939  1
  O  O285  1  0.23543029  0.76466587  0.88331065  1
  O  O286  1  0.73226119  0.26807528  0.40849109  1
  O  O287  1  0.74313333  0.22087939  0.86898701  1
  O  O288  1  0.77110145  0.73775548  0.37233058  1
  O  O289  1  0.74937341  0.73803461  0.88630976  1
  O  O290  1  0.00152973  0.12105625  -0.00886424  1
  O  O291  1  -0.01068049  0.11664354  0.50620102  1
  O  O292  1  0.00239361  0.61776706  0.00588868  1
  O  O293  1  -0.00562849  0.62120311  0.50332516  1
  O  O294  1  0.45520547  0.05969075  -0.02233366  1
  O  O295  1  0.50721549  0.10328600  0.50176793  1
  O  O296  1  0.46346562  0.61692632  0.09046197  1
  O  O297  1  0.50899927  0.62867981  0.52447854  1
  O  O298  1  0.52546670  0.39613236  0.50915650  1
  O  O299  1  0.49548897  0.39474047  0.99868350  1
  O  O300  1  0.49342852  0.87681460  0.49670827  1
  O  O301  1  0.49517296  0.87478485  0.98365171  1
  O  O302  1  1.00278894  0.36494482  0.48296304  1
  O  O303  1  0.99849216  0.38114827  0.99220576  1
  O  O304  1  0.99943353  0.88232878  0.49110442  1
  O  O305  1  1.00477361  0.87428584  0.98548765  1
  O  O306  1  0.49019978  0.47487070  0.36758447  1
  O  O307  1  0.47249968  0.49563143  0.86706692  1
  O  O308  1  0.51174312  0.98305715  0.39896431  1
  O  O309  1  0.49291178  0.99453180  0.83259585  1
  O  O310  1  0.99381512  0.48403620  0.36555887  1
  O  O311  1  0.97809725  0.48399011  0.88626008  1
  O  O312  1  1.01389689  0.99187920  0.38428114  1
  O  O313  1  0.99930616  0.99551035  0.88222200  1
  O  O314  1  0.00856890  0.00621215  0.10893891  1
  O  O315  1  0.00772055  0.00742488  0.61819909  1
  O  O316  1  0.00245512  0.50235887  0.11867819  1
  O  O317  1  -0.00046939  0.52141329  0.63013565  1
  O  O318  1  0.48751858  -0.00326026  0.14031672  1
  O  O319  1  0.51714503  -0.01478858  0.62015151  1
  O  O320  1  0.52404435  0.47845976  0.14207525  1
  O  O321  1  0.47221195  0.51719411  0.64009266  1
  O  O322  1  0.22672430  0.36179950  0.22036538  1
  O  O323  1  0.23455606  0.35356104  0.75860834  1
  O  O324  1  0.24001741  0.88890188  0.22566224  1
  O  O325  1  0.23965994  0.88672759  0.74814620  1
  O  O326  1  0.75782011  0.37947066  0.26823077  1
  O  O327  1  0.76099488  0.39910350  0.74762740  1
  O  O328  1  0.74213299  0.88682377  0.25373395  1
  O  O329  1  0.74474475  0.87347217  0.74146090  1
  O  O330  1  0.26213415  0.10195155  0.23044183  1
  O  O331  1  0.24192940  0.11459458  0.75952549  1
  O  O332  1  0.26853775  0.60312588  0.19978026  1
  O  O333  1  0.18981084  0.57455172  0.70318425  1
  O  O334  1  0.73662789  0.08977018  0.22484160  1
  O  O335  1  0.76268169  0.10870260  0.73494329  1
  O  O336  1  0.76816920  0.61522127  0.26209627  1
  O  O337  1  0.74627520  0.62964681  0.77896054  1
  O  O338  1  0.31977495  0.13048727  0.42806516  1
  O  O339  1  0.35656526  0.13320985  0.87061664  1
  O  O340  1  0.43413034  0.59534260  0.25319253  1
  O  O341  1  0.36764712  0.61042820  0.86479946  1
  O  O342  1  0.85262526  0.17635108  0.35986401  1
  O  O343  1  0.87676124  0.10705473  0.85837388  1
  O  O344  1  0.87801342  0.61514377  0.36740241  1
  O  O345  1  0.88446840  0.61600927  0.87203727  1
  O  O346  1  0.11577791  0.38215530  0.12468132  1
  O  O347  1  0.11112683  0.41007628  0.67328183  1
  O  O348  1  0.12354526  0.88795601  0.12810293  1
  O  O349  1  0.13394158  0.87926221  0.63066540  1
  O  O350  1  0.64295037  0.37083488  0.15327623  1
  O  O351  1  0.65274474  0.38464991  0.64163930  1
  O  O352  1  0.63116916  0.90534073  0.12803903  1
  O  O353  1  0.63905329  0.87679242  0.61970207  1
  O  O354  1  0.11262139  0.25701219  0.24881639  1
  O  O355  1  0.11117535  0.25705583  0.75751742  1
  O  O356  1  0.11006162  0.76417498  0.23391175  1
  O  O357  1  0.12180738  0.75818806  0.75546337  1
  O  O358  1  0.64124378  0.25665043  0.27772710  1
  O  O359  1  0.65306347  0.29168973  0.77182576  1
  O  O360  1  0.61417668  0.77627978  0.22156501  1
  O  O361  1  0.61906714  0.75750686  0.74430393  1
  O  O362  1  0.37238379  0.25628077  0.23270834  1
  O  O363  1  0.38839935  0.23825531  0.75338717  1
  O  O364  1  0.41259808  0.79699338  0.22182059  1
  O  O365  1  0.39008963  0.76662329  0.74481680  1
  O  O366  1  0.89253756  0.25091405  0.24414820  1
  O  O367  1  0.88669721  0.24011196  0.75417235  1
  O  O368  1  0.88588170  0.74395277  0.24160346  1
  O  O369  1  0.88847930  0.75546600  0.74118020  1
  O  O370  1  0.37413765  0.60301215  0.41765030  1
  O  O371  1  0.42042973  0.59599488  1.01538381  1
  O  O372  1  0.39306921  0.98533994  0.51365728  1
  O  O373  1  0.38298894  1.01645748  0.98739365  1
  O  O374  1  0.87112038  0.49278532  0.48475941  1
  O  O375  1  0.88109153  0.50534694  1.00599046  1
  O  O376  1  0.89183370  0.98480582  0.50884521  1
  O  O377  1  0.89124332  1.00509985  0.98569753  1
  O  O378  1  0.11197810  0.00420451  0.00541849  1
  O  O379  1  0.11611259  -0.00628244  0.51212816  1
  O  O380  1  0.11064104  0.50728647  0.00273846  1
  O  O381  1  0.12792377  0.52586536  0.50730555  1
  O  O382  1  0.58208858  -0.02562570  -0.03839791  1
  O  O383  1  0.62506669  0.00373028  0.50782432  1
  O  O384  1  0.64319244  0.49087602  0.03368940  1
  O  O385  1  0.61803235  0.53264394  0.46599582  1
  O  O386  1  0.35564336  0.36751233  0.11839714  1
  O  O387  1  0.37364754  0.35691554  0.63257409  1
  O  O388  1  0.35393750  0.89206591  0.10601475  1
  O  O389  1  0.36396928  0.87202051  0.62361895  1
  O  O390  1  0.87058870  0.35329574  0.12031796  1
  O  O391  1  0.86450476  0.38979819  0.63032061  1
  O  O392  1  0.87384927  0.89424764  0.12410627  1
  O  O393  1  0.87121650  0.86655402  0.62019889  1
  O  O394  1  0.14690758  0.14346076  0.35150793  1
  O  O395  1  0.13151032  0.13513137  0.86798907  1
  O  O396  1  0.12310060  0.62848685  0.38101074  1
  O  O397  1  0.11862604  0.63726131  0.88241743  1
  O  O398  1  0.62628725  0.13391959  0.39284788  1
  O  O399  1  0.57865860  0.13750168  0.91058267  1
  O  O400  1  0.64661142  0.64105259  0.35780974  1
  O  O401  1  0.62685658  0.61281413  0.88597160  1
