# generated using pymatgen
data_V73Zn73O256
_symmetry_space_group_name_H-M   'P 1'
_cell_length_a   16.81781800
_cell_length_b   16.81210098
_cell_length_c   16.82232471
_cell_angle_alpha   90.03475416
_cell_angle_beta   90.03541641
_cell_angle_gamma   89.91606955
_symmetry_Int_Tables_number   1
_chemical_formula_structural   V73Zn73O256
_chemical_formula_sum   'V73 Zn73 O256'
_cell_volume   4756.38522471
_cell_formula_units_Z   1
loop_
 _symmetry_equiv_pos_site_id
 _symmetry_equiv_pos_as_xyz
  1  'x, y, z'
loop_
 _atom_site_type_symbol
 _atom_site_label
 _atom_site_symmetry_multiplicity
 _atom_site_fract_x
 _atom_site_fract_y
 _atom_site_fract_z
 _atom_site_occupancy
  V  V0  1  0.74776323  0.49689076  0.25090141  1
  V  V1  1  0.62811055  0.12123181  0.00442725  1
  V  V2  1  0.25356376  0.36434439  0.12287904  1
  V  V3  1  0.60505243  0.62663034  0.00441979  1
  V  V4  1  0.63728481  0.24886112  0.37297195  1
  V  V5  1  0.74554475  0.87862833  0.63705745  1
  V  V6  1  0.64920483  0.12867118  0.49573597  1
  V  V7  1  0.39176078  0.49514599  0.88540282  1
  V  V8  1  -0.01169298  0.24847292  0.73455225  1
  V  V9  1  0.74929328  0.10488972  0.87073836  1
  V  V10  1  0.24727586  0.74410170  0.50889198  1
  V  V11  1  0.38808145  0.36617417  -0.00093549  1
  V  V12  1  0.87992471  0.25186201  0.11968036  1
  V  V13  1  0.00674169  0.25447995  0.25858744  1
  V  V14  1  0.49839969  0.37296497  0.37900849  1
  V  V15  1  0.00699566  0.62537696  0.12172582  1
  V  V16  1  -0.00274965  0.50116907  -0.00146406  1
  V  V17  1  0.12772953  0.49655616  0.12458143  1
  V  V18  1  0.50355755  0.24825491  0.76810269  1
  V  V19  1  0.87696027  0.11904502  0.74079432  1
  V  V20  1  0.62380551  0.74865222  0.37457426  1
  V  V21  1  0.74857234  0.74766689  0.50147743  1
  V  V22  1  0.49798035  0.49678827  0.50781298  1
  V  V23  1  0.50025473  0.25374610  0.24041681  1
  V  V24  1  0.63437381  0.50466006  0.62900789  1
  V  V25  1  0.12840766  0.37351135  0.25946811  1
  V  V26  1  0.87613762  0.36108844  0.50333240  1
  V  V27  1  0.86311960  0.62232548  0.75701688  1
  V  V28  1  0.00214798  0.88765168  0.38087472  1
  V  V29  1  0.61326435  0.50133723  0.12517567  1
  V  V30  1  0.62015560  0.75088365  0.86355163  1
  V  V31  1  0.88520594  0.88202855  -0.00535613  1
  V  V32  1  0.86323266  0.50316030  0.87706260  1
  V  V33  1  0.01838183  0.74979113  0.77410167  1
  V  V34  1  0.12899310  0.11714118  -0.01653383  1
  V  V35  1  0.24549049  0.36856487  0.62210710  1
  V  V36  1  0.62473074  0.37255906  0.75994395  1
  V  V37  1  0.37732394  0.86039017  -0.00295630  1
  V  V38  1  0.49696447  0.01324989  0.50139666  1
  V  V39  1  0.38067127  0.60574232  0.74469784  1
  V  V40  1  0.00175456  0.74922098  0.25424784  1
  V  V41  1  0.12323910  0.36706590  0.75332889  1
  V  V42  1  0.88414703  0.74092161  0.62924771  1
  V  V43  1  0.62646872  0.87524657  0.25176256  1
  V  V44  1  0.75100168  0.35654058  0.62212172  1
  V  V45  1  0.24040878  0.25173930  -0.01766431  1
  V  V46  1  0.26083726  0.00007102  0.25174834  1
  V  V47  1  0.38838631  0.74160908  0.63155527  1
  V  V48  1  0.38468169  0.24980229  0.61405010  1
  V  V49  1  -0.00864091  0.36703847  0.88210600  1
  V  V50  1  0.23505034  0.74010374  -0.00176229  1
  V  V51  1  0.50022906  0.87947025  0.86394531  1
  V  V52  1  0.74686440  0.74481425  -0.00013059  1
  V  V53  1  0.12738415  0.88258592  0.24726745  1
  V  V54  1  0.87556908  0.11731621  0.25910927  1
  V  V55  1  0.13261942  0.73795033  0.37869821  1
  V  V56  1  0.75014331  0.88660777  0.12800011  1
  V  V57  1  0.87995420  0.49665061  0.37804654  1
  V  V58  1  -0.00333202  0.51624981  0.50869305  1
  V  V59  1  0.48843396  0.00804738  0.00335773  1
  V  V60  1  0.38687933  0.11864219  0.23656129  1
  V  V61  1  0.01171475  0.11389970  0.11776841  1
  V  V62  1  0.12086815  0.50800401  0.62944824  1
  V  V63  1  0.62591688  0.00505310  0.63546772  1
  V  V64  1  0.49535965  0.87618618  0.37688249  1
  V  V65  1  0.36767535  0.12131920  0.76155469  1
  V  V66  1  0.75566899  0.37717687  0.12503234  1
  V  V67  1  0.37095526  0.87951288  0.50866220  1
  V  V68  1  0.24568211  0.88024054  0.11880763  1
  V  V69  1  0.88122565  0.88483192  0.49971008  1
  V  V70  1  0.75323063  0.25548660  -0.01289065  1
  V  V71  1  0.87378652  0.75084997  0.12784217  1
  V  V72  1  0.25004915  0.13479685  0.37537231  1
  Zn  Zn73  1  0.74662468  0.62170836  0.37577149  1
  Zn  Zn74  1  0.61524817  0.62783016  0.50555365  1
  Zn  Zn75  1  0.33425984  0.41153060  0.45721951  1
  Zn  Zn76  1  0.87358173  0.62453876  0.25434029  1
  Zn  Zn77  1  0.89239640  -0.00855388  0.87053955  1
  Zn  Zn78  1  0.74682172  0.01495795  0.28292928  1
  Zn  Zn79  1  0.23611087  0.62343237  0.86196281  1
  Zn  Zn80  1  0.22814107  0.24281047  0.49617504  1
  Zn  Zn81  1  0.62001803  0.00868287  0.13543603  1
  Zn  Zn82  1  0.19063030  0.18480734  0.18735412  1
  Zn  Zn83  1  0.18774397  0.18258502  0.69385600  1
  Zn  Zn84  1  0.19661665  0.68837510  0.18022729  1
  Zn  Zn85  1  0.19708256  0.68979673  0.69106192  1
  Zn  Zn86  1  0.69138151  0.19187118  0.18965072  1
  Zn  Zn87  1  0.68588056  0.18473907  0.69156292  1
  Zn  Zn88  1  0.68467581  0.68567719  0.18861941  1
  Zn  Zn89  1  0.68998242  0.68643713  0.68799624  1
  Zn  Zn90  1  0.31550401  0.30527873  0.30314718  1
  Zn  Zn91  1  0.31647628  0.31351850  0.80933150  1
  Zn  Zn92  1  0.31110367  0.81576748  0.31653454  1
  Zn  Zn93  1  0.31432998  0.80586183  0.81759047  1
  Zn  Zn94  1  0.81934272  0.31329964  0.31057717  1
  Zn  Zn95  1  0.81165159  0.31534846  0.80672439  1
  Zn  Zn96  1  0.80998263  0.82436219  0.31846743  1
  Zn  Zn97  1  0.81015426  0.80964395  0.81657443  1
  Zn  Zn98  1  0.17685509  0.45163327  0.43745482  1
  Zn  Zn99  1  0.16236472  0.47735680  0.90584929  1
  Zn  Zn100  1  0.19265823  0.93689668  0.42805512  1
  Zn  Zn101  1  0.17906589  0.93242906  0.93145490  1
  Zn  Zn102  1  0.68705033  0.43217473  0.44010652  1
  Zn  Zn103  1  0.68270240  0.44060540  0.94293669  1
  Zn  Zn104  1  0.68653585  0.93809886  0.44472401  1
  Zn  Zn105  1  0.68530398  0.93219507  0.93985073  1
  Zn  Zn106  1  0.30471672  0.06676699  0.06424066  1
  Zn  Zn107  1  0.31316497  0.07054513  0.56746172  1
  Zn  Zn108  1  0.28542343  0.53370691  0.01912200  1
  Zn  Zn109  1  0.30035076  0.55214862  0.54724296  1
  Zn  Zn110  1  0.81995948  0.06659933  0.06325895  1
  Zn  Zn111  1  0.81318903  0.06125641  0.56030881  1
  Zn  Zn112  1  0.81339149  0.56546351  0.06246018  1
  Zn  Zn113  1  0.80909871  0.56035915  0.56427168  1
  Zn  Zn114  1  0.43373581  0.43914688  0.19076826  1
  Zn  Zn115  1  0.44100174  0.43106153  0.68586220  1
  Zn  Zn116  1  0.44409082  0.91745091  0.17616951  1
  Zn  Zn117  1  0.43440202  0.94403186  0.68263967  1
  Zn  Zn118  1  0.93770637  0.43582265  0.18865231  1
  Zn  Zn119  1  0.93372630  0.43810139  0.68774381  1
  Zn  Zn120  1  0.94065557  0.93712734  0.18699161  1
  Zn  Zn121  1  0.93946683  0.92710826  0.69258842  1
  Zn  Zn122  1  0.06475126  0.06774807  0.31012206  1
  Zn  Zn123  1  0.08458525  0.07187526  0.78487097  1
  Zn  Zn124  1  0.06138154  0.55720380  0.31274205  1
  Zn  Zn125  1  0.04869918  0.56831622  0.80285050  1
  Zn  Zn126  1  0.56104399  0.06224549  0.31768865  1
  Zn  Zn127  1  0.55456784  0.06934040  0.81875922  1
  Zn  Zn128  1  0.55537560  0.56191535  0.31241081  1
  Zn  Zn129  1  0.56283205  0.56593595  0.80936799  1
  Zn  Zn130  1  0.42831260  0.19121676  0.42531343  1
  Zn  Zn131  1  0.43406564  0.18741918  0.94023684  1
  Zn  Zn132  1  0.43873448  0.69003607  0.44222354  1
  Zn  Zn133  1  0.43759020  0.68633689  0.92774744  1
  Zn  Zn134  1  0.94572852  0.18576948  0.43940506  1
  Zn  Zn135  1  0.93693709  0.17844637  0.93501785  1
  Zn  Zn136  1  0.93544799  0.68940705  0.43677592  1
  Zn  Zn137  1  0.93894684  0.68893322  0.93832743  1
  Zn  Zn138  1  0.06447195  0.31052446  0.06160688  1
  Zn  Zn139  1  0.05423651  0.31819860  0.56212987  1
  Zn  Zn140  1  0.06392593  0.81354641  0.06208441  1
  Zn  Zn141  1  0.06329515  0.80768973  0.56479052  1
  Zn  Zn142  1  0.57676594  0.31082783  0.05998954  1
  Zn  Zn143  1  0.56804076  0.31152931  0.56159971  1
  Zn  Zn144  1  0.55769504  0.80915834  0.07078435  1
  Zn  Zn145  1  0.56162549  0.81765321  0.56503404  1
  O  O146  1  0.11475588  0.12825004  0.12112033  1
  O  O147  1  0.08390768  0.15517708  0.53395258  1
  O  O148  1  0.11472806  0.61454417  0.13578761  1
  O  O149  1  0.13453164  0.60595848  0.63456074  1
  O  O150  1  0.63793889  0.12420967  0.10970754  1
  O  O151  1  0.63753540  0.11407892  0.61064348  1
  O  O152  1  0.62429645  0.61600981  0.11663610  1
  O  O153  1  0.62796212  0.60997835  0.62743122  1
  O  O154  1  0.39031415  0.36312945  0.37295154  1
  O  O155  1  0.37234802  0.38388943  0.88649463  1
  O  O156  1  0.38871998  0.86942761  0.38631652  1
  O  O157  1  0.38567852  0.87284323  0.88595224  1
  O  O158  1  0.86673340  0.38466276  0.39126341  1
  O  O159  1  0.88364572  0.38943765  0.86485437  1
  O  O160  1  0.88728545  0.86641310  0.39174172  1
  O  O161  1  0.87194074  0.87384484  0.88951904  1
  O  O162  1  0.25742432  0.00351761  0.35876383  1
  O  O163  1  0.23021571  -0.04453642  0.82243224  1
  O  O164  1  0.27243464  0.50562515  0.43870007  1
  O  O165  1  0.27135472  0.51175256  0.90235859  1
  O  O166  1  0.76766815  -0.01877663  0.38560127  1
  O  O167  1  0.75166395  0.00318534  0.87330065  1
  O  O168  1  0.75346113  0.49754777  0.36697375  1
  O  O169  1  0.76438996  0.49523932  0.88075253  1
  O  O170  1  0.23493102  0.48430848  0.11126496  1
  O  O171  1  0.23229579  0.48098493  0.61942433  1
  O  O172  1  0.24788945  0.99150410  0.13521824  1
  O  O173  1  0.20848477  1.00326984  0.58674366  1
  O  O174  1  0.75543872  0.49358894  0.13147945  1
  O  O175  1  0.73844024  0.49104774  0.62424650  1
  O  O176  1  0.75306531  0.99058759  0.12376421  1
  O  O177  1  0.74074272  0.98809384  0.61973207  1
  O  O178  1  0.01120677  0.36311261  0.24389991  1
  O  O179  1  -0.00272685  0.36313381  0.75534604  1
  O  O180  1  0.00758243  0.86774683  0.25708256  1
  O  O181  1  -0.01463695  0.84465443  0.75408571  1
  O  O182  1  0.49568057  0.36493682  0.26056331  1
  O  O183  1  0.51421223  0.36365109  0.74609780  1
  O  O184  1  0.51016104  0.89068747  0.27298547  1
  O  O185  1  0.49348415  0.88726872  0.76495909  1
  O  O186  1  0.49327243  0.13061250  0.25222724  1
  O  O187  1  0.49916794  0.14297632  0.74821523  1
  O  O188  1  0.48271315  0.60149404  0.23883784  1
  O  O189  1  0.48116987  0.62488602  0.74965757  1
  O  O190  1  0.99875343  0.13576891  0.23808079  1
  O  O191  1  0.98683001  0.14023742  0.76005139  1
  O  O192  1  0.99746703  0.63499193  0.24438470  1
  O  O193  1  0.98124661  0.64457628  0.75207466  1
  O  O194  1  0.36149421  0.25940053  -0.00586718  1
  O  O195  1  0.37245526  0.25160155  0.51169125  1
  O  O196  1  0.37541456  0.75943593  0.00145661  1
  O  O197  1  0.36752049  0.75700194  0.50782038  1
  O  O198  1  0.86272003  0.23803717  0.00899092  1
  O  O199  1  0.88218123  0.26131944  0.49737406  1
  O  O200  1  0.86831167  0.75760415  0.00887306  1
  O  O201  1  0.86823609  0.75121858  0.51375759  1
  O  O202  1  0.10363212  0.23255645  0.49734999  1
  O  O203  1  0.13468800  0.24391473  0.99869336  1
  O  O204  1  0.13504370  0.75702548  0.49169543  1
  O  O205  1  0.13455906  0.75081126  0.99917580  1
  O  O206  1  0.62345496  0.23443025  0.49227824  1
  O  O207  1  0.64348011  0.23646334  1.00083743  1
  O  O208  1  0.63178779  0.75125542  0.49551765  1
  O  O209  1  0.62644209  0.74115265  1.00621374  1
  O  O210  1  0.51727986  0.25641586  0.14220907  1
  O  O211  1  0.48652627  0.25918602  0.62478853  1
  O  O212  1  0.48115827  0.80815608  0.14982779  1
  O  O213  1  0.48836979  0.74513651  0.61536513  1
  O  O214  1  0.99355777  0.24449988  0.12741368  1
  O  O215  1  0.99223546  0.24995391  0.63569674  1
  O  O216  1  0.99597522  0.74530793  0.13411848  1
  O  O217  1  0.98489532  0.74703054  0.62450429  1
  O  O218  1  0.00195377  0.24906164  0.35746383  1
  O  O219  1  -0.01091649  0.26497139  0.87544448  1
  O  O220  1  0.01046052  0.75565277  0.37020307  1
  O  O221  1  0.01315090  0.74592728  0.87615426  1
  O  O222  1  0.50888256  0.25693586  0.36873122  1
  O  O223  1  0.50234580  0.25239437  0.86751415  1
  O  O224  1  0.51184698  0.76567785  0.38741238  1
  O  O225  1  0.50843507  0.76448496  0.87789896  1
  O  O226  1  0.26108786  0.12712991  0.48086327  1
  O  O227  1  0.24137546  0.14108383  1.00142681  1
  O  O228  1  0.25320366  0.64623403  0.50027806  1
  O  O229  1  0.25475160  0.64325116  1.02321012  1
  O  O230  1  0.74848192  0.12654988  0.49234662  1
  O  O231  1  0.74711196  0.12777338  0.98854793  1
  O  O232  1  0.74565849  0.63746092  0.50091983  1
  O  O233  1  0.74565292  0.64080214  1.00571772  1
  O  O234  1  0.25445351  0.36259424  0.01056049  1
  O  O235  1  0.23715355  0.36163226  0.51322121  1
  O  O236  1  0.25476279  0.86820774  -0.00430083  1
  O  O237  1  0.26784427  0.87083828  0.49128891  1
  O  O238  1  0.74925101  0.36080156  0.00273797  1
  O  O239  1  0.76025525  0.37497685  0.51168325  1
  O  O240  1  0.75530059  0.86592413  0.01127427  1
  O  O241  1  0.76266860  0.86463900  0.50963110  1
  O  O242  1  0.11476929  0.48373434  0.23915375  1
  O  O243  1  0.10538714  0.48149420  0.73446880  1
  O  O244  1  0.13588434  0.98679253  0.25483079  1
  O  O245  1  0.13282984  1.08617167  0.68736792  1
  O  O246  1  0.63541914  0.50478982  0.23438062  1
  O  O247  1  0.61704029  0.48737241  0.73801193  1
  O  O248  1  0.63083863  0.99360544  0.25318679  1
  O  O249  1  0.61850189  1.01287815  0.73391811  1
  O  O250  1  0.37509635  0.00668016  0.23883582  1
  O  O251  1  0.36933796  0.02340524  0.72728862  1
  O  O252  1  0.37401748  0.53332145  0.24296803  1
  O  O253  1  0.37694055  0.49982617  0.75766576  1
  O  O254  1  0.87973783  0.01429274  0.24719379  1
  O  O255  1  0.89211879  0.01209864  0.75307654  1
  O  O256  1  0.87078156  0.49733880  0.26150281  1
  O  O257  1  0.88223658  0.51359578  0.76102038  1
  O  O258  1  0.13242220  0.38158989  0.35914060  1
  O  O259  1  0.10569501  0.38425110  0.86038408  1
  O  O260  1  0.12022053  0.86642428  0.36861641  1
  O  O261  1  0.07176999  0.91841016  0.87237437  1
  O  O262  1  0.61681189  0.35731247  0.38065769  1
  O  O263  1  0.63270488  0.38075329  0.85924804  1
  O  O264  1  0.61910524  0.86858632  0.37351086  1
  O  O265  1  0.61213071  0.86374913  0.88143554  1
  O  O266  1  0.37302343  0.12755585  0.13660415  1
  O  O267  1  0.36608595  0.14727180  0.63475094  1
  O  O268  1  0.32485640  0.57723638  0.19701183  1
  O  O269  1  0.36935914  0.63186172  0.63242859  1
  O  O270  1  0.88906161  0.13344973  0.13039944  1
  O  O271  1  0.86802641  0.12055632  0.64122994  1
  O  O272  1  0.88372315  0.63761353  0.12888094  1
  O  O273  1  0.86674049  0.63457609  0.63540034  1
  O  O274  1  0.24807467  0.26097968  0.11982427  1
  O  O275  1  0.24449123  0.25665052  0.62340254  1
  O  O276  1  0.24899121  0.76827094  0.11454680  1
  O  O277  1  0.25521743  0.75674973  0.61285201  1
  O  O278  1  0.75880383  0.25900712  0.12028562  1
  O  O279  1  0.74715261  0.25677224  0.62217253  1
  O  O280  1  0.75854724  0.75818501  0.12367920  1
  O  O281  1  0.75164054  0.76070101  0.62029112  1
  O  O282  1  0.25047795  0.24122427  0.37355044  1
  O  O283  1  0.24467303  0.26077101  0.88363011  1
  O  O284  1  0.23750061  0.75451164  0.38264859  1
  O  O285  1  0.25703782  0.73956579  0.89302565  1
  O  O286  1  0.73682421  0.25455144  0.36687467  1
  O  O287  1  0.75996824  0.24506313  0.88582124  1
  O  O288  1  0.74267211  0.75246402  0.38496063  1
  O  O289  1  0.73060174  0.76023121  0.88731282  1
  O  O290  1  0.01386253  0.12858484  0.00773316  1
  O  O291  1  0.02097125  0.11998107  0.50215841  1
  O  O292  1  -0.00469017  0.61820390  0.01374553  1
  O  O293  1  -0.00377804  0.61648120  0.50418884  1
  O  O294  1  0.51673943  0.11862102  -0.00832760  1
  O  O295  1  0.48961200  0.11319219  0.49528116  1
  O  O296  1  0.50597394  0.63177807  0.00771755  1
  O  O297  1  0.49721164  0.60320765  0.48960812  1
  O  O298  1  0.50378721  0.37845238  0.48872115  1
  O  O299  1  0.48671294  0.35631442  1.00564969  1
  O  O300  1  0.49209014  0.88382775  0.49467864  1
  O  O301  1  0.48654407  0.88615903  0.99519396  1
  O  O302  1  0.98004595  0.38667122  0.50848901  1
  O  O303  1  0.99876779  0.37986189  0.98826482  1
  O  O304  1  0.98978613  0.86752028  0.49612854  1
  O  O305  1  0.98463429  0.87280254  1.00761600  1
  O  O306  1  0.50974393  0.48105075  0.38568470  1
  O  O307  1  0.49198047  0.49821931  0.87469908  1
  O  O308  1  0.50524348  0.98977357  0.39353999  1
  O  O309  1  0.51137731  0.98751431  0.88977599  1
  O  O310  1  0.99106494  0.50304699  0.38971201  1
  O  O311  1  0.98888969  0.49214609  0.88359998  1
  O  O312  1  1.00971876  0.98753626  0.37417432  1
  O  O313  1  1.03058648  0.98247923  0.85006571  1
  O  O314  1  0.00145591  0.01439476  0.12635096  1
  O  O315  1  0.04718684  -0.04423802  0.63714743  1
  O  O316  1  0.00061418  0.50630499  0.11959073  1
  O  O317  1  0.00317911  0.50180231  0.61838055  1
  O  O318  1  0.50385284  -0.00341087  0.10692280  1
  O  O319  1  0.51693045  -0.00711360  0.61131737  1
  O  O320  1  0.51575947  0.48762464  0.12430875  1
  O  O321  1  0.51819778  0.48522906  0.61467770  1
  O  O322  1  0.24006453  0.36873504  0.23748351  1
  O  O323  1  0.22970371  0.36707846  0.74430683  1
  O  O324  1  0.24963254  0.87870957  0.24157128  1
  O  O325  1  0.23897727  0.89349488  0.77620063  1
  O  O326  1  0.75505038  0.38369589  0.23836683  1
  O  O327  1  0.73741587  0.36823265  0.73650535  1
  O  O328  1  0.74345543  0.88003602  0.24364836  1
  O  O329  1  0.75583436  0.87473436  0.73618333  1
  O  O330  1  0.26213091  0.11854047  0.25013059  1
  O  O331  1  0.27019827  0.14814870  0.76715018  1
  O  O332  1  0.26223991  0.60673094  0.23973909  1
  O  O333  1  0.27407009  0.63360540  0.75329518  1
  O  O334  1  0.76976060  0.12615748  0.24480682  1
  O  O335  1  0.76151723  0.12977116  0.76429283  1
  O  O336  1  0.75369560  0.61261494  0.25037054  1
  O  O337  1  0.76227015  0.62491933  0.75442556  1
  O  O338  1  0.36400380  0.12716976  0.35340774  1
  O  O339  1  0.39156117  0.11696237  0.86129480  1
  O  O340  1  0.37843605  0.66656418  0.33827873  1
  O  O341  1  0.37916781  0.60982964  0.86635744  1
  O  O342  1  0.88812644  0.12853171  0.35871873  1
  O  O343  1  0.86586331  0.11192290  0.87265080  1
  O  O344  1  0.86960140  0.61383007  0.37528133  1
  O  O345  1  0.87387811  0.61686650  0.86910884  1
  O  O346  1  0.13268566  0.37800884  0.13088005  1
  O  O347  1  0.12676577  0.37483005  0.63444552  1
  O  O348  1  0.13005770  0.87219420  0.13697004  1
  O  O349  1  0.09802732  0.89753186  0.63820899  1
  O  O350  1  0.64247370  0.39258671  0.11157724  1
  O  O351  1  0.63810533  0.37910691  0.62686324  1
  O  O352  1  0.63531774  0.87869480  0.13559202  1
  O  O353  1  0.63674660  0.88595376  0.62142174  1
  O  O354  1  0.11635767  0.25955170  0.24412649  1
  O  O355  1  0.10544857  0.26069265  0.74918245  1
  O  O356  1  0.12184826  0.75630459  0.25947589  1
  O  O357  1  0.11698417  0.74745748  0.74647666  1
  O  O358  1  0.61435561  0.23619842  0.26492418  1
  O  O359  1  0.61535812  0.25876488  0.74606470  1
  O  O360  1  0.63154621  0.76276702  0.26082408  1
  O  O361  1  0.62629551  0.74509923  0.76447725  1
  O  O362  1  0.39233494  0.23948260  0.24506558  1
  O  O363  1  0.39093240  0.25056938  0.74618837  1
  O  O364  1  0.37897003  0.72094313  0.28367226  1
  O  O365  1  0.37447343  0.75645542  0.73285854  1
  O  O366  1  0.88821577  0.24518326  0.24134790  1
  O  O367  1  0.88108677  0.23964672  0.75291186  1
  O  O368  1  0.88496809  0.75643315  0.24512441  1
  O  O369  1  0.86797186  0.74070353  0.74101243  1
  O  O370  1  0.39695572  0.48500279  0.52704297  1
  O  O371  1  0.38992806  0.48390908  0.99605336  1
  O  O372  1  0.38462225  0.98983335  0.51596119  1
  O  O373  1  0.38676555  1.01185633  0.99727515  1
  O  O374  1  0.88146119  0.49849342  0.49742744  1
  O  O375  1  0.88218662  0.50625310  0.98837607  1
  O  O376  1  0.88286663  0.98349722  0.51300160  1
  O  O377  1  0.87403413  0.98651311  0.99735675  1
  O  O378  1  0.14414185  0.01736460  -0.00084841  1
  O  O379  1  0.16032473  0.00109719  0.52690910  1
  O  O380  1  0.10687135  0.49181142  0.01311395  1
  O  O381  1  0.10382474  0.49336919  0.51448246  1
  O  O382  1  0.62372817  0.01120062  0.00345466  1
  O  O383  1  0.61677523  0.01492552  0.50380264  1
  O  O384  1  0.62926376  0.51756709  0.00891276  1
  O  O385  1  0.62023261  0.50038840  0.51101904  1
  O  O386  1  0.36189359  0.38234669  0.11621207  1
  O  O387  1  0.35368330  0.36375759  0.63606068  1
  O  O388  1  0.35817425  0.88958540  0.09983355  1
  O  O389  1  0.38007220  0.86361529  0.61330875  1
  O  O390  1  0.86964825  0.36519664  0.12408911  1
  O  O391  1  0.86082490  0.37810292  0.61878583  1
  O  O392  1  0.87055319  0.86795160  0.11989352  1
  O  O393  1  0.86748985  0.86412437  0.61847474  1
  O  O394  1  0.14900421  0.11978979  0.36373559  1
  O  O395  1  0.12004283  0.12259007  0.88431395  1
  O  O396  1  0.12369787  0.63827580  0.36955425  1
  O  O397  1  0.13028096  0.58560679  0.87598941  1
  O  O398  1  0.62437046  0.13179744  0.38801711  1
  O  O399  1  0.64230852  0.12037199  0.88348431  1
  O  O400  1  0.62371489  0.63718724  0.37561153  1
  O  O401  1  0.61383203  0.63940081  0.88968354  1
