# generated using pymatgen
data_V73Zn73O256
_symmetry_space_group_name_H-M   'P 1'
_cell_length_a   16.86673855
_cell_length_b   16.93639592
_cell_length_c   16.93582668
_cell_angle_alpha   90.06342153
_cell_angle_beta   90.40440405
_cell_angle_gamma   89.91676096
_symmetry_Int_Tables_number   1
_chemical_formula_structural   V73Zn73O256
_chemical_formula_sum   'V73 Zn73 O256'
_cell_volume   4837.78956655
_cell_formula_units_Z   1
loop_
 _symmetry_equiv_pos_site_id
 _symmetry_equiv_pos_as_xyz
  1  'x, y, z'
loop_
 _atom_site_type_symbol
 _atom_site_label
 _atom_site_symmetry_multiplicity
 _atom_site_fract_x
 _atom_site_fract_y
 _atom_site_fract_z
 _atom_site_occupancy
  V  V0  1  0.52940584  0.24543166  0.75536979  1
  V  V1  1  0.62177060  0.87413670  0.74869074  1
  V  V2  1  0.37717757  0.37817431  -0.00130408  1
  V  V3  1  0.49780730  0.50935692  0.00659976  1
  V  V4  1  0.75152288  0.38621154  0.62699478  1
  V  V5  1  0.49533454  0.13070082  0.62623740  1
  V  V6  1  0.62122174  0.74413891  0.86943073  1
  V  V7  1  -0.00249056  0.01281908  0.48196225  1
  V  V8  1  0.63208472  0.12993597  0.50022003  1
  V  V9  1  0.37146551  0.14535938  0.74742610  1
  V  V10  1  0.11023985  0.00916037  0.63134489  1
  V  V11  1  0.25697394  0.13792827  0.37145368  1
  V  V12  1  0.24170764  0.64981162  0.37990440  1
  V  V13  1  0.51003630  0.37249943  0.37266317  1
  V  V14  1  0.11792205  0.87741888  0.76469208  1
  V  V15  1  0.63099085  0.62314071  0.00570409  1
  V  V16  1  0.36800597  0.36317107  0.50843486  1
  V  V17  1  0.11401818  0.26286644  0.87499465  1
  V  V18  1  0.74766418  0.62052674  0.37443568  1
  V  V19  1  0.48501933  -0.00017977  -0.00042950  1
  V  V20  1  0.63017037  -0.00045227  0.62469281  1
  V  V21  1  0.11961474  0.11880560  0.01203182  1
  V  V22  1  0.86680591  0.87675880  0.48365055  1
  V  V23  1  0.86479910  0.35748588  -0.00183929  1
  V  V24  1  0.10138913  0.25744665  0.37196082  1
  V  V25  1  0.89004323  0.37730973  0.50540770  1
  V  V26  1  0.75553861  0.11594970  0.35897596  1
  V  V27  1  0.63786856  0.49842272  0.13768595  1
  V  V28  1  0.01250763  0.75645922  0.24951074  1
  V  V29  1  -0.00561661  0.49293048  -0.01086673  1
  V  V30  1  0.13484388  0.51523688  0.64318812  1
  V  V31  1  0.84908212  0.49902779  0.86878605  1
  V  V32  1  0.88652881  0.12080524  0.74200120  1
  V  V33  1  0.25625334  0.37414421  0.13466626  1
  V  V34  1  0.05752125  0.82712006  0.42051810  1
  V  V35  1  0.88221508  0.49814131  0.37796402  1
  V  V36  1  0.36368193  0.49407970  0.36764275  1
  V  V37  1  0.25739446  0.25235067  0.00328129  1
  V  V38  1  0.49233052  0.24979401  0.23588697  1
  V  V39  1  0.60359819  0.73597028  0.36101322  1
  V  V40  1  0.12948922  0.89615030  0.24691972  1
  V  V41  1  0.38210796  0.62858955  0.24835388  1
  V  V42  1  0.87037709  0.63471240  0.75205129  1
  V  V43  1  0.00600154  0.27331313  0.74308036  1
  V  V44  1  0.52182595  0.90507312  0.34406029  1
  V  V45  1  0.24802629  0.75357513  0.00372029  1
  V  V46  1  0.25506462  0.12966394  0.87574202  1
  V  V47  1  0.74881128  0.75856440  -0.00099916  1
  V  V48  1  0.48608772  0.87749017  0.87191369  1
  V  V49  1  0.62398822  0.62173208  0.51151219  1
  V  V50  1  0.75024647  0.35796122  0.13305425  1
  V  V51  1  0.89311782  0.75088693  0.62186483  1
  V  V52  1  0.12192571  0.62579985  -0.00901265  1
  V  V53  1  0.87225349  0.61724730  0.25117002  1
  V  V54  1  0.26087556  0.00118439  0.75203875  1
  V  V55  1  0.63872307  0.39612831  0.75367544  1
  V  V56  1  -0.00071716  0.62036916  0.12774929  1
  V  V57  1  0.48604776  0.63499222  0.64018476  1
  V  V58  1  0.49016058  0.39224688  0.85982200  1
  V  V59  1  0.37018809  0.00179596  0.35122795  1
  V  V60  1  0.25077564  0.88122117  0.13550019  1
  V  V61  1  0.49167156  -0.00224675  0.50278134  1
  V  V62  1  0.49927141  0.49761073  0.51081456  1
  V  V63  1  0.72671797  0.87803198  0.14190791  1
  V  V64  1  0.38374305  0.74479009  0.13023165  1
  V  V65  1  0.87119990  0.75765508  0.12788541  1
  V  V66  1  0.75164405  0.00809962  0.77009044  1
  V  V67  1  0.25822387  0.87687023  0.61199715  1
  V  V68  1  0.01353505  0.52038565  0.50514525  1
  V  V69  1  0.24507375  0.37145342  0.63830233  1
  V  V70  1  0.27358412  0.61442035  0.88407878  1
  V  V71  1  0.61752517  0.14023826  -0.01280419  1
  V  V72  1  0.12793949  0.49574167  0.13237835  1
  Zn  Zn73  1  0.73004868  0.76099513  0.50266466  1
  Zn  Zn74  1  0.12853855  0.14260616  0.50722465  1
  Zn  Zn75  1  0.88589466  0.24548468  0.61999326  1
  Zn  Zn76  1  0.11981096  0.37086704  0.25481097  1
  Zn  Zn77  1  0.48857901  0.11827354  0.12350865  1
  Zn  Zn78  1  0.75334754  0.25367525  0.50255579  1
  Zn  Zn79  1  0.04251952  -0.05781005  -0.06586866  1
  Zn  Zn80  1  0.75475918  0.87436312  0.62910672  1
  Zn  Zn81  1  0.63159604  0.25734975  0.36290104  1
  Zn  Zn82  1  0.19251277  0.18876612  0.19297450  1
  Zn  Zn83  1  0.18382939  0.19218173  0.68850991  1
  Zn  Zn84  1  0.20008904  0.68190763  0.19459577  1
  Zn  Zn85  1  0.19424786  0.69606288  0.68959887  1
  Zn  Zn86  1  0.66300948  0.18411051  0.18104791  1
  Zn  Zn87  1  0.70122619  0.18874991  0.67985535  1
  Zn  Zn88  1  0.68580856  0.68394258  0.18474348  1
  Zn  Zn89  1  0.69672201  0.68716585  0.68309898  1
  Zn  Zn90  1  0.31361978  0.31426228  0.31831087  1
  Zn  Zn91  1  0.30669100  0.31935082  0.81649473  1
  Zn  Zn92  1  0.32706940  0.82534787  0.43333716  1
  Zn  Zn93  1  0.29680697  0.80174877  0.81071233  1
  Zn  Zn94  1  0.79871742  0.31982460  0.32633102  1
  Zn  Zn95  1  0.82570841  0.30839696  0.81291288  1
  Zn  Zn96  1  0.81029121  0.79608398  0.31219576  1
  Zn  Zn97  1  0.80661825  0.81049021  0.80769026  1
  Zn  Zn98  1  0.18330321  0.43067625  0.44223887  1
  Zn  Zn99  1  0.18822864  0.44117777  0.93951224  1
  Zn  Zn100  1  0.20105851  0.97676017  0.45134301  1
  Zn  Zn101  1  0.21062579  0.94432481  0.94193139  1
  Zn  Zn102  1  0.69227445  0.44366853  0.44430398  1
  Zn  Zn103  1  0.68059864  0.42834130  0.94413694  1
  Zn  Zn104  1  0.69297730  0.93253817  0.32309419  1
  Zn  Zn105  1  0.67333610  0.93912162  0.94321854  1
  Zn  Zn106  1  0.31900927  0.06382644  0.06195104  1
  Zn  Zn107  1  0.30840038  0.06939964  0.56468638  1
  Zn  Zn108  1  0.31091403  0.56177050  0.06582853  1
  Zn  Zn109  1  0.30845234  0.56310069  0.56101521  1
  Zn  Zn110  1  0.76903804  0.05869523  0.06228233  1
  Zn  Zn111  1  0.81525484  0.05499781  0.56216848  1
  Zn  Zn112  1  0.80955235  0.56202649  0.06046113  1
  Zn  Zn113  1  0.81550339  0.56666118  0.56479929  1
  Zn  Zn114  1  0.44469909  0.43863068  0.18747995  1
  Zn  Zn115  1  0.44213516  0.42924699  0.68300331  1
  Zn  Zn116  1  0.43696280  0.92988945  0.18062622  1
  Zn  Zn117  1  0.43731869  0.93772388  0.68788932  1
  Zn  Zn118  1  0.92830352  0.43541322  0.18084377  1
  Zn  Zn119  1  0.94370699  0.45694953  0.68757802  1
  Zn  Zn120  1  0.91279493  0.93643816  0.05733187  1
  Zn  Zn121  1  0.93367614  0.93623816  0.69002009  1
  Zn  Zn122  1  0.07510218  0.07192896  0.31385074  1
  Zn  Zn123  1  0.06710753  0.07023395  0.81894451  1
  Zn  Zn124  1  0.06585538  0.56398571  0.31738212  1
  Zn  Zn125  1  0.05386986  0.56851366  0.80750094  1
  Zn  Zn126  1  0.55617098  0.08203094  0.31441498  1
  Zn  Zn127  1  0.55909125  0.05577409  0.81768489  1
  Zn  Zn128  1  0.55925486  0.55296138  0.31602025  1
  Zn  Zn129  1  0.56072079  0.56341462  0.81599396  1
  Zn  Zn130  1  0.43739930  0.18745164  0.43605817  1
  Zn  Zn131  1  0.44376578  0.19663591  0.93423185  1
  Zn  Zn132  1  0.42485812  0.67368087  0.44225569  1
  Zn  Zn133  1  0.44101671  0.69492724  0.94664438  1
  Zn  Zn134  1  0.93342747  0.18761363  0.43127343  1
  Zn  Zn135  1  0.92682095  0.08801721  0.94929833  1
  Zn  Zn136  1  0.93614239  0.68901127  0.43818287  1
  Zn  Zn137  1  0.92181265  0.67597348  0.94355976  1
  Zn  Zn138  1  0.06315307  0.31192379  0.05725861  1
  Zn  Zn139  1  0.07316376  0.32038184  0.56379665  1
  Zn  Zn140  1  0.06651888  0.81110496  0.06741798  1
  Zn  Zn141  1  0.09744660  0.79349772  0.59866073  1
  Zn  Zn142  1  0.56477264  0.32072402  0.06196932  1
  Zn  Zn143  1  0.56513519  0.31516568  0.57033224  1
  Zn  Zn144  1  0.55818273  0.81727299  0.05590109  1
  Zn  Zn145  1  0.50218327  0.79642403  0.53758571  1
  O  O146  1  0.13975111  0.12998097  0.11066637  1
  O  O147  1  0.13251643  0.11232655  0.62172261  1
  O  O148  1  0.11870811  0.61058105  0.12184733  1
  O  O149  1  0.13874809  0.61649953  0.63185389  1
  O  O150  1  0.60128605  0.12845881  0.10452340  1
  O  O151  1  0.61890668  0.11909173  0.62297857  1
  O  O152  1  0.62887476  0.61100106  0.11747493  1
  O  O153  1  0.62032943  0.62581698  0.61303667  1
  O  O154  1  0.38592188  0.38119284  0.39037783  1
  O  O155  1  0.37324873  0.37500558  0.89381725  1
  O  O156  1  0.39949818  0.90167994  0.37519405  1
  O  O157  1  0.38969681  0.85168637  0.85765094  1
  O  O158  1  0.86704677  0.38751108  0.39320780  1
  O  O159  1  0.86488257  0.38747996  0.88928681  1
  O  O160  1  0.86630774  0.86792928  0.38431813  1
  O  O161  1  0.88980578  0.83494300  0.88775954  1
  O  O162  1  0.26696085  -0.00296204  0.36034482  1
  O  O163  1  0.25104781  0.01579809  0.86073842  1
  O  O164  1  0.26452346  0.48539859  0.37751075  1
  O  O165  1  0.25086787  0.51653809  0.88312594  1
  O  O166  1  0.74461783  0.01598479  0.37572986  1
  O  O167  1  0.74736502  -0.00279223  0.86863736  1
  O  O168  1  0.76377896  0.51202339  0.38255786  1
  O  O169  1  0.75077817  0.50067248  0.88120485  1
  O  O170  1  0.23520336  0.49246441  0.12214568  1
  O  O171  1  0.24025848  0.49496837  0.62179965  1
  O  O172  1  0.26254972  0.97758803  0.11616463  1
  O  O173  1  0.24489733  0.99608756  0.63631493  1
  O  O174  1  0.74248989  0.49694445  0.12536298  1
  O  O175  1  0.76019264  0.48563810  0.62622483  1
  O  O176  1  0.74047590  0.97719329  0.13378801  1
  O  O177  1  0.74007560  0.99646483  0.63132386  1
  O  O178  1  0.00349024  0.34705411  0.20957007  1
  O  O179  1  -0.00335706  0.37110591  0.74969675  1
  O  O180  1  0.01789782  0.85867897  0.24274542  1
  O  O181  1  0.01940775  0.89205347  0.75093559  1
  O  O182  1  0.50129039  0.37645828  0.27022738  1
  O  O183  1  0.53182878  0.35615952  0.73510399  1
  O  O184  1  0.49157616  0.86242542  0.26035002  1
  O  O185  1  0.51166151  0.87969916  0.75766548  1
  O  O186  1  0.49728275  0.14281464  0.24233148  1
  O  O187  1  0.49320311  0.13561075  0.74798854  1
  O  O188  1  0.48066701  0.60613997  0.25169396  1
  O  O189  1  0.50254044  0.61771186  0.73808355  1
  O  O190  1  0.98898571  0.09785553  0.22573527  1
  O  O191  1  0.98727473  0.12502802  0.74900434  1
  O  O192  1  0.99378544  0.62950383  0.24303085  1
  O  O193  1  0.96940163  0.60273379  0.73966711  1
  O  O194  1  0.36582376  0.26132714  -0.00049511  1
  O  O195  1  0.38473642  0.26516417  0.50414933  1
  O  O196  1  0.35845312  0.73728018  0.01801304  1
  O  O197  1  0.40004117  0.76625649  0.49620578  1
  O  O198  1  0.88206175  0.26365194  -0.00317427  1
  O  O199  1  0.88301903  0.26852563  0.50090183  1
  O  O200  1  0.85635606  0.73970337  0.01490137  1
  O  O201  1  0.88122264  0.76460391  0.50747586  1
  O  O202  1  0.11333890  0.25312027  0.48192681  1
  O  O203  1  0.13354094  0.24563135  0.99196249  1
  O  O204  1  0.11027306  0.77393717  0.48508334  1
  O  O205  1  0.13750424  0.73502456  1.01642602  1
  O  O206  1  0.62428569  0.23498209  0.51114895  1
  O  O207  1  0.59336466  0.24103863  0.98988008  1
  O  O208  1  0.61329088  0.72851341  0.48695389  1
  O  O209  1  0.63126408  0.74334384  0.99604083  1
  O  O210  1  0.49233436  0.27367076  0.13733514  1
  O  O211  1  0.51080051  0.23973292  0.64316694  1
  O  O212  1  0.48145271  0.75227729  0.11159831  1
  O  O213  1  0.50521713  0.73436109  0.63068986  1
  O  O214  1  1.00569050  0.28610525  0.15623441  1
  O  O215  1  1.00977456  0.25752462  0.63903536  1
  O  O216  1  0.99236350  0.73932437  0.13368093  1
  O  O217  1  0.99299270  0.75611526  0.62638565  1
  O  O218  1  0.00174369  0.24708430  0.36131990  1
  O  O219  1  0.01283752  0.25419011  0.86465802  1
  O  O220  1  0.00081199  0.75391181  0.36278928  1
  O  O221  1  -0.03421028  0.81740451  0.86475992  1
  O  O222  1  0.50389298  0.26508408  0.38048317  1
  O  O223  1  0.48988163  0.27077140  0.85170254  1
  O  O224  1  0.50534220  0.72683269  0.36921187  1
  O  O225  1  0.51564004  0.75822412  0.88358399  1
  O  O226  1  0.23524865  0.09418693  0.48065982  1
  O  O227  1  0.25007240  0.13579644  0.99168457  1
  O  O228  1  0.26194134  0.62187189  0.47602700  1
  O  O229  1  0.24174562  0.62669528  0.99658672  1
  O  O230  1  0.73897540  0.12404502  0.50340818  1
  O  O231  1  0.71953328  0.13408499  1.00144249  1
  O  O232  1  0.73359842  0.61886575  0.49598027  1
  O  O233  1  0.73932823  0.63970011  1.00544848  1
  O  O234  1  0.25794251  0.37216409  0.00786628  1
  O  O235  1  0.26537932  0.37564324  0.50413720  1
  O  O236  1  0.24213131  0.85899308  0.01282159  1
  O  O237  1  0.25820664  0.89294400  0.50854885  1
  O  O238  1  0.75685435  0.36821918  0.00658606  1
  O  O239  1  0.75886478  0.37750085  0.51363226  1
  O  O240  1  0.73856117  0.86351610  0.01622286  1
  O  O241  1  0.76560524  0.87816611  0.50202410  1
  O  O242  1  0.11064087  0.49101606  0.23506297  1
  O  O243  1  0.12365710  0.50495114  0.74204391  1
  O  O244  1  0.12019235  0.99409798  0.24330630  1
  O  O245  1  0.13523856  1.00635606  0.74324398  1
  O  O246  1  0.62503848  0.50300765  0.23633634  1
  O  O247  1  0.62939612  0.49379701  0.74866290  1
  O  O248  1  0.58732425  0.97426208  0.29475724  1
  O  O249  1  0.63396160  0.99612303  0.74710046  1
  O  O250  1  0.39084185  0.00691482  0.25438515  1
  O  O251  1  0.36360200  0.01366123  0.74476070  1
  O  O252  1  0.37596460  0.49383321  0.26423093  1
  O  O253  1  0.43924166  0.45099334  0.79186762  1
  O  O254  1  0.94127749  0.04361378  0.20958553  1
  O  O255  1  0.86305572  0.01025293  0.74877766  1
  O  O256  1  0.88818493  0.50845231  0.26145579  1
  O  O257  1  0.86776495  0.49080987  0.76838637  1
  O  O258  1  0.12231640  0.36356163  0.37234345  1
  O  O259  1  0.12958731  0.36195591  0.88301745  1
  O  O260  1  0.12344820  0.88309401  0.36156949  1
  O  O261  1  0.12996652  0.89335445  0.86885133  1
  O  O262  1  0.61414382  0.37715133  0.38907781  1
  O  O263  1  0.61444885  0.38272471  0.85785138  1
  O  O264  1  0.60997034  0.84784378  0.37382518  1
  O  O265  1  0.61550559  0.86614999  0.86644648  1
  O  O266  1  0.37702523  0.13423627  0.12347626  1
  O  O267  1  0.38662225  0.12537041  0.63239526  1
  O  O268  1  0.36589289  0.62976767  0.13897555  1
  O  O269  1  0.38762656  0.61984098  0.62240880  1
  O  O270  1  0.88136634  0.19455103  0.15753332  1
  O  O271  1  0.86899107  0.12720559  0.63826649  1
  O  O272  1  0.88110548  0.62754315  0.13299956  1
  O  O273  1  0.87444804  0.64565892  0.62348691  1
  O  O274  1  0.24258500  0.26754550  0.11583409  1
  O  O275  1  0.23646077  0.27046587  0.62576632  1
  O  O276  1  0.25638020  0.75282759  0.12189482  1
  O  O277  1  0.22201642  0.77995283  0.61272950  1
  O  O278  1  0.73814629  0.25983561  0.12763064  1
  O  O279  1  0.76442218  0.26385900  0.62139848  1
  O  O280  1  0.75202376  0.75596168  0.12184190  1
  O  O281  1  0.75755791  0.75776624  0.61587222  1
  O  O282  1  0.26161930  0.23792710  0.38630722  1
  O  O283  1  0.24311482  0.24847952  0.88425512  1
  O  O284  1  0.25732910  0.74988663  0.37794783  1
  O  O285  1  0.25225395  0.73851706  0.89989458  1
  O  O286  1  0.74462155  0.24160743  0.38566880  1
  O  O287  1  0.80715581  0.20173072  0.87039401  1
  O  O288  1  0.74083694  0.73270514  0.38486035  1
  O  O289  1  0.73753096  0.76130604  0.89193805  1
  O  O290  1  0.02100324  0.13537497  0.00496432  1
  O  O291  1  -0.00558694  0.11420120  0.49965326  1
  O  O292  1  0.00205963  0.61733834  0.01097705  1
  O  O293  1  0.00013786  0.61924871  0.50191669  1
  O  O294  1  0.49154229  0.11182759  -0.00580721  1
  O  O295  1  0.50677470  0.12251811  0.51070757  1
  O  O296  1  0.51036936  0.61521678  0.00367265  1
  O  O297  1  0.50565293  0.61127072  0.50685262  1
  O  O298  1  0.49537495  0.38416785  0.50386111  1
  O  O299  1  0.49222337  0.38556741  0.98686338  1
  O  O300  1  0.51573061  0.89930315  0.48992748  1
  O  O301  1  0.50072065  0.88331750  0.98087766  1
  O  O302  1  0.99118166  0.38848174  0.50462514  1
  O  O303  1  0.98541433  0.38953772  1.00788071  1
  O  O304  1  0.99434266  0.88393019  0.48101063  1
  O  O305  1  0.99551879  0.74766602  0.88737834  1
  O  O306  1  0.49284355  0.48665436  0.38675090  1
  O  O307  1  0.51719257  0.49943202  0.90144890  1
  O  O308  1  0.48765390  1.01486942  0.39205687  1
  O  O309  1  0.48815762  0.98253553  0.87103008  1
  O  O310  1  0.99130415  0.50746084  0.38788981  1
  O  O311  1  0.99929932  0.50029280  0.88932738  1
  O  O312  1  1.00405684  1.01132471  0.38280770  1
  O  O313  1  0.98587846  1.02071143  0.87851359  1
  O  O314  1  -0.00201747  -0.11943985  0.01517695  1
  O  O315  1  0.00948264  0.00350685  0.62862961  1
  O  O316  1  0.00332375  0.50675117  0.11730093  1
  O  O317  1  0.01910457  0.50123107  0.61283124  1
  O  O318  1  0.49220432  -0.00938459  0.10383320  1
  O  O319  1  0.50812112  0.00968581  0.62334944  1
  O  O320  1  0.51867568  0.48535987  0.11176434  1
  O  O321  1  0.49861051  0.50390212  0.61379862  1
  O  O322  1  0.24902728  0.37079304  0.23626871  1
  O  O323  1  0.25774609  0.38231956  0.73756923  1
  O  O324  1  0.23582650  0.87818006  0.24297826  1
  O  O325  1  0.24506533  0.89349140  0.75403461  1
  O  O326  1  0.76904096  0.37134483  0.23331574  1
  O  O327  1  0.74452496  0.36794413  0.74585568  1
  O  O328  1  0.74333933  0.86390916  0.24770509  1
  O  O329  1  0.74203139  0.88872850  0.75230421  1
  O  O330  1  0.24851260  0.12671077  0.27151793  1
  O  O331  1  0.25509352  0.12237127  0.75335117  1
  O  O332  1  0.26664303  0.62440220  0.26727846  1
  O  O333  1  0.25855227  0.63747839  0.77804797  1
  O  O334  1  0.73073841  0.12942809  0.26188031  1
  O  O335  1  0.75373415  0.11067284  0.74955041  1
  O  O336  1  0.76450092  0.63012566  0.25870727  1
  O  O337  1  0.77027118  0.61585832  0.73508027  1
  O  O338  1  0.36591601  0.11176801  0.38627865  1
  O  O339  1  0.36271365  0.13945196  0.86360994  1
  O  O340  1  0.36994981  0.60712925  0.36680403  1
  O  O341  1  0.37291625  0.62190091  0.88847173  1
  O  O342  1  0.85571404  0.13024820  0.37211948  1
  O  O343  1  0.86242719  0.14541484  0.85680785  1
  O  O344  1  0.86937213  0.61976913  0.37069744  1
  O  O345  1  0.86911113  0.61393742  0.86259512  1
  O  O346  1  0.13535382  0.38664699  0.11909194  1
  O  O347  1  0.13934921  0.39371679  0.62042723  1
  O  O348  1  0.13726068  0.87086643  0.13892015  1
  O  O349  1  0.13547255  0.89783205  0.64037377  1
  O  O350  1  0.64197648  0.38742821  0.11780714  1
  O  O351  1  0.64376926  0.37390469  0.63562572  1
  O  O352  1  0.62762753  0.86380145  0.13334159  1
  O  O353  1  0.62283471  0.88819082  0.63859099  1
  O  O354  1  0.13199505  0.25226525  0.26764709  1
  O  O355  1  0.11517067  0.24829827  0.76256540  1
  O  O356  1  0.11171345  0.74010745  0.24358887  1
  O  O357  1  0.13136052  0.77790028  0.74948205  1
  O  O358  1  0.60349117  0.25506831  0.25272812  1
  O  O359  1  0.62821255  0.23697978  0.76039496  1
  O  O360  1  0.62085858  0.73101554  0.26267578  1
  O  O361  1  0.63755623  0.75545987  0.76456782  1
  O  O362  1  0.39405456  0.26237815  0.26128708  1
  O  O363  1  0.37032939  0.24576021  0.74552210  1
  O  O364  1  0.38408496  0.73258713  0.24082631  1
  O  O365  1  0.30284727  0.70486043  0.74506192  1
  O  O366  1  0.87896375  0.21158694  0.22788181  1
  O  O367  1  0.89427272  0.24447451  0.74400894  1
  O  O368  1  0.88660270  0.73792540  0.24450853  1
  O  O369  1  0.87311110  0.74229833  0.73994846  1
  O  O370  1  0.38774521  0.49450996  0.49102858  1
  O  O371  1  0.39127419  0.49740286  1.01137119  1
  O  O372  1  0.39217336  1.00177962  0.51636030  1
  O  O373  1  0.38238628  0.99837237  0.98838636  1
  O  O374  1  0.88748965  0.49781298  0.49832370  1
  O  O375  1  0.88306167  0.50869661  0.98693352  1
  O  O376  1  0.89059935  0.98545697  0.50752444  1
  O  O377  1  0.87489282  1.03648254  1.03447549  1
  O  O378  1  0.13187262  0.01666917  -0.00910687  1
  O  O379  1  0.10478648  -0.00366060  0.51345816  1
  O  O380  1  0.11027945  0.50444476  0.00929903  1
  O  O381  1  0.11420611  0.50460364  0.49467771  1
  O  O382  1  0.60083733  0.01210574  -0.01275664  1
  O  O383  1  0.61400399  0.01841239  0.51335464  1
  O  O384  1  0.62322950  0.50861363  0.00959849  1
  O  O385  1  0.61030525  0.51027304  0.49505850  1
  O  O386  1  0.36086707  0.38729427  0.11866678  1
  O  O387  1  0.36437374  0.38288391  0.61540265  1
  O  O388  1  0.36021050  0.85367206  0.13913196  1
  O  O389  1  0.35612957  0.87205783  0.63927468  1
  O  O390  1  0.85974821  0.38105263  0.10790668  1
  O  O391  1  0.87390463  0.38213413  0.61491917  1
  O  O392  1  0.86217722  0.86037911  0.13126470  1
  O  O393  1  0.87605472  0.86426791  0.62249727  1
  O  O394  1  0.13374212  0.14274198  0.37855442  1
  O  O395  1  0.13909683  0.14005532  0.88180166  1
  O  O396  1  0.14196265  0.63018892  0.36607084  1
  O  O397  1  0.11870254  0.62254348  0.88959975  1
  O  O398  1  0.62817026  0.13087350  0.39283669  1
  O  O399  1  0.60694020  0.13035674  0.88340640  1
  O  O400  1  0.63021357  0.62172682  0.37932843  1
  O  O401  1  0.62247879  0.63972943  0.88372956  1
