# generated using pymatgen
data_V73Zn73O256
_symmetry_space_group_name_H-M   'P 1'
_cell_length_a   16.86193623
_cell_length_b   16.83587244
_cell_length_c   16.87043957
_cell_angle_alpha   89.92647734
_cell_angle_beta   90.06064654
_cell_angle_gamma   90.00569571
_symmetry_Int_Tables_number   1
_chemical_formula_structural   V73Zn73O256
_chemical_formula_sum   'V73 Zn73 O256'
_cell_volume   4789.26496239
_cell_formula_units_Z   1
loop_
 _symmetry_equiv_pos_site_id
 _symmetry_equiv_pos_as_xyz
  1  'x, y, z'
loop_
 _atom_site_type_symbol
 _atom_site_label
 _atom_site_symmetry_multiplicity
 _atom_site_fract_x
 _atom_site_fract_y
 _atom_site_fract_z
 _atom_site_occupancy
  V  V0  1  0.00709596  0.51223763  0.49969424  1
  V  V1  1  0.12587823  0.49646960  0.12840567  1
  V  V2  1  0.01082257  0.86245525  0.86576900  1
  V  V3  1  0.38055185  0.63499110  0.24815916  1
  V  V4  1  0.74722872  0.50051213  0.74469091  1
  V  V5  1  0.24677609  0.74908918  0.48884023  1
  V  V6  1  0.37370446  0.35143487  0.00426653  1
  V  V7  1  0.63304712  0.36259810  0.24287686  1
  V  V8  1  0.48223607  0.50158571  -0.00001573  1
  V  V9  1  0.25225143  0.61817589  0.86435850  1
  V  V10  1  0.88053459  0.36711857  0.49630310  1
  V  V11  1  0.87553133  0.51337282  0.36941499  1
  V  V12  1  0.11857711  0.62783870  -0.00861354  1
  V  V13  1  0.75597450  0.87807379  0.62800691  1
  V  V14  1  0.00959483  0.00607652  0.00100871  1
  V  V15  1  0.86810835  0.01316407  0.87250396  1
  V  V16  1  0.17851226  0.48690949  0.64809439  1
  V  V17  1  0.49058417  0.75393514  0.75673187  1
  V  V18  1  0.89260955  0.62702929  0.74988443  1
  V  V19  1  0.74700712  0.74902497  -0.00265020  1
  V  V20  1  0.62538311  0.50367813  0.11576590  1
  V  V21  1  0.62178821  0.74089967  0.37077610  1
  V  V22  1  0.87262839  0.75489278  0.13510237  1
  V  V23  1  -0.00405977  0.26215895  0.73870639  1
  V  V24  1  0.61089604  -0.01075449  0.64155946  1
  V  V25  1  0.87110767  0.12957814  0.73189731  1
  V  V26  1  0.13542972  0.14047858  0.49894879  1
  V  V27  1  -0.01287905  0.00455338  0.49990691  1
  V  V28  1  0.25051105  0.86269989  0.62751239  1
  V  V29  1  0.36796954  0.75409901  0.12328323  1
  V  V30  1  0.38363842  0.49381781  0.37017557  1
  V  V31  1  0.87560235  0.87488643  -0.00065922  1
  V  V32  1  0.24113450  0.13608985  0.87728359  1
  V  V33  1  0.48721010  0.25308349  0.24905978  1
  V  V34  1  0.50385536  0.24508275  0.74034163  1
  V  V35  1  -0.00280215  0.48547046  0.00230319  1
  V  V36  1  0.23663045  0.75876793  -0.00546160  1
  V  V37  1  0.37213096  0.88027292  -0.00027946  1
  V  V38  1  0.38762173  0.88170465  0.49886689  1
  V  V39  1  0.63296240  -0.00375539  0.13243565  1
  V  V40  1  -0.00506975  0.88408443  0.37832765  1
  V  V41  1  0.76336240  -0.01358403  0.25040995  1
  V  V42  1  0.23879153  -0.00523194  0.74951667  1
  V  V43  1  0.01369304  0.74683862  0.25998531  1
  V  V44  1  0.38181580  0.35613439  0.51380291  1
  V  V45  1  0.37737693  0.12435206  0.74520002  1
  V  V46  1  0.24160528  0.62989246  0.37362647  1
  V  V47  1  0.49590069  0.13169494  0.13216675  1
  V  V48  1  0.51158727  0.01199825  -0.00667720  1
  V  V49  1  0.61540793  0.10445929  0.50632942  1
  V  V50  1  0.25700385  0.36041148  0.12850766  1
  V  V51  1  0.51038174  0.61335570  0.64100032  1
  V  V52  1  0.87439096  0.25330221  0.14214649  1
  V  V53  1  0.10981955  0.27069819  0.87945168  1
  V  V54  1  0.00087742  0.11983590  0.14246483  1
  V  V55  1  0.13560954  0.89213525  0.24500102  1
  V  V56  1  0.74482969  0.62494464  0.88194733  1
  V  V57  1  0.24931265  0.50436024  0.24496664  1
  V  V58  1  0.76423754  0.24490338  -0.00811288  1
  V  V59  1  0.62040583  0.38307008  0.74814672  1
  V  V60  1  0.75839197  0.11477842  0.36833428  1
  V  V61  1  0.11932738  0.00040454  0.61961870  1
  V  V62  1  0.62323705  0.23756461  0.88433046  1
  V  V63  1  0.62620443  0.24539830  0.38478700  1
  V  V64  1  0.87958812  0.48528872  0.88211336  1
  V  V65  1  0.01417801  0.27029794  0.26376096  1
  V  V66  1  0.50508352  0.63966705  0.11828478  1
  V  V67  1  0.74477754  0.73083628  0.50389236  1
  V  V68  1  0.37156115  -0.00423721  0.87499083  1
  V  V69  1  0.50772273  0.88328088  0.35581334  1
  V  V70  1  0.25729022  0.11266461  0.36082442  1
  V  V71  1  0.74960813  0.51635249  0.25305414  1
  V  V72  1  -0.00395455  0.62577761  0.13093627  1
  Zn  Zn73  1  0.13227543  0.13061914  0.00948038  1
  Zn  Zn74  1  0.54346728  0.42455935  0.40781434  1
  Zn  Zn75  1  0.37558497  0.23789555  0.61910754  1
  Zn  Zn76  1  0.76370574  0.38357611  0.11601022  1
  Zn  Zn77  1  0.75305602  0.36271656  0.62522905  1
  Zn  Zn78  1  0.63037065  0.85689442  0.78329609  1
  Zn  Zn79  1  0.87730137  0.74581321  0.62527681  1
  Zn  Zn80  1  0.75837980  0.24010277  0.51050001  1
  Zn  Zn81  1  0.49579695  0.38113761  0.87192824  1
  Zn  Zn82  1  0.18312531  0.18287669  0.19534998  1
  Zn  Zn83  1  0.16784415  0.17754156  0.69919731  1
  Zn  Zn84  1  0.18617072  0.68992974  0.18320025  1
  Zn  Zn85  1  0.17311040  0.67277456  0.67128419  1
  Zn  Zn86  1  0.69064839  0.17361624  0.17723884  1
  Zn  Zn87  1  0.68608378  0.18104298  0.68881039  1
  Zn  Zn88  1  0.68373544  0.69944882  0.18442485  1
  Zn  Zn89  1  0.68027434  0.68779000  0.68956118  1
  Zn  Zn90  1  0.27485670  0.32712514  0.33442224  1
  Zn  Zn91  1  0.31280335  0.31970012  0.80760015  1
  Zn  Zn92  1  0.32029840  0.82278319  0.31438093  1
  Zn  Zn93  1  0.30674686  0.80568227  0.81220351  1
  Zn  Zn94  1  0.81072445  0.31507806  0.31918754  1
  Zn  Zn95  1  0.81003723  0.30632521  0.80843549  1
  Zn  Zn96  1  0.80875941  0.80842125  0.32262029  1
  Zn  Zn97  1  0.82015405  0.81480397  0.80917194  1
  Zn  Zn98  1  0.17659940  0.40542120  0.47184559  1
  Zn  Zn99  1  0.19444070  0.43883306  0.94627847  1
  Zn  Zn100  1  0.18339035  0.93387530  0.43139827  1
  Zn  Zn101  1  0.18466916  0.93923347  0.93674573  1
  Zn  Zn102  1  0.70549268  0.44571019  0.44709098  1
  Zn  Zn103  1  0.69009450  0.42694657  0.93495126  1
  Zn  Zn104  1  0.69046237  0.92540681  0.44112712  1
  Zn  Zn105  1  0.69368168  0.94278427  0.93381544  1
  Zn  Zn106  1  0.32454519  0.08334747  0.05714893  1
  Zn  Zn107  1  0.31007036  0.05650701  0.55795216  1
  Zn  Zn108  1  0.30799393  0.57174417  0.05775335  1
  Zn  Zn109  1  0.31821975  0.55812873  0.55213438  1
  Zn  Zn110  1  0.81727516  0.06844797  0.06380369  1
  Zn  Zn111  1  0.80005169  0.06145409  0.56372773  1
  Zn  Zn112  1  0.81608694  0.56400754  0.06539522  1
  Zn  Zn113  1  0.82155434  0.56122678  0.56323253  1
  Zn  Zn114  1  0.44023030  0.43831979  0.18944201  1
  Zn  Zn115  1  0.39285286  0.45277472  0.68838983  1
  Zn  Zn116  1  0.45603313  0.92584200  0.16884104  1
  Zn  Zn117  1  0.43352269  0.92559662  0.69247047  1
  Zn  Zn118  1  0.93725808  0.43626930  0.19259684  1
  Zn  Zn119  1  0.93942263  0.44246362  0.67845352  1
  Zn  Zn120  1  0.94259524  0.93419649  0.18974988  1
  Zn  Zn121  1  0.93536145  0.93739433  0.69176999  1
  Zn  Zn122  1  0.07119839  0.06504675  0.32223896  1
  Zn  Zn123  1  0.05116464  0.06618860  0.81000451  1
  Zn  Zn124  1  0.06552064  0.55374239  0.32179138  1
  Zn  Zn125  1  0.07093132  0.54021950  0.81090076  1
  Zn  Zn126  1  0.56709285  0.06224594  0.30969942  1
  Zn  Zn127  1  0.56475193  0.05911388  0.81144576  1
  Zn  Zn128  1  0.56730126  0.57127415  0.30074631  1
  Zn  Zn129  1  0.54079418  0.60297219  0.84189309  1
  Zn  Zn130  1  0.43995568  0.18102996  0.43077609  1
  Zn  Zn131  1  0.43796914  0.18641179  0.92965607  1
  Zn  Zn132  1  0.43381931  0.70279519  0.43661397  1
  Zn  Zn133  1  0.42507272  0.68949893  0.93514295  1
  Zn  Zn134  1  0.94347776  0.18378430  0.43880474  1
  Zn  Zn135  1  0.94268379  0.19313777  0.93803415  1
  Zn  Zn136  1  0.92901608  0.68988760  0.43815090  1
  Zn  Zn137  1  0.93375242  0.68223200  0.93686672  1
  Zn  Zn138  1  0.06867921  0.30439865  0.07251454  1
  Zn  Zn139  1  0.05989817  0.32723312  0.56624361  1
  Zn  Zn140  1  0.05965384  0.82014210  0.06895535  1
  Zn  Zn141  1  0.07227304  0.81952784  0.55059227  1
  Zn  Zn142  1  0.56505076  0.31451564  0.06211078  1
  Zn  Zn143  1  0.55503913  0.44419058  0.57256676  1
  Zn  Zn144  1  0.57810655  0.83641249  -0.00453514  1
  Zn  Zn145  1  0.56680878  0.80009921  0.57126761  1
  O  O146  1  0.10571196  0.13368982  0.12235153  1
  O  O147  1  0.12550287  0.10892894  0.61728021  1
  O  O148  1  0.11535320  0.61848190  0.11696640  1
  O  O149  1  0.15326002  0.57809074  0.60940147  1
  O  O150  1  0.61189067  0.11009762  0.12296475  1
  O  O151  1  0.63099101  0.10383299  0.61602498  1
  O  O152  1  0.61109913  0.62281403  0.12732417  1
  O  O153  1  0.61077767  0.61086188  0.63099808  1
  O  O154  1  0.37042491  0.39264788  0.36261459  1
  O  O155  1  0.38079400  0.36182602  0.90077413  1
  O  O156  1  0.39576236  0.86964505  0.38717220  1
  O  O157  1  0.36460331  0.88675919  0.88407150  1
  O  O158  1  0.86133056  0.39000040  0.38825332  1
  O  O159  1  0.86678336  0.38752813  0.87457587  1
  O  O160  1  0.89510824  0.87125324  0.36757490  1
  O  O161  1  0.88531579  0.88521350  0.88287266  1
  O  O162  1  0.24884552  0.01263658  0.38526084  1
  O  O163  1  0.25245635  0.00485217  0.86641955  1
  O  O164  1  0.26562345  0.51920615  0.35963588  1
  O  O165  1  0.23504085  0.51878407  0.87754215  1
  O  O166  1  0.74343797  0.00418717  0.36426844  1
  O  O167  1  0.76891674  0.00084038  0.87759414  1
  O  O168  1  0.75125257  0.50309064  0.35798051  1
  O  O169  1  0.76166874  0.50701181  0.87890312  1
  O  O170  1  0.24162533  0.50843030  0.12989631  1
  O  O171  1  0.28546378  0.49823384  0.64283680  1
  O  O172  1  0.28643272  1.00046811  0.15859201  1
  O  O173  1  0.24011179  0.99178441  0.63350702  1
  O  O174  1  0.74477584  0.50126616  0.13152908  1
  O  O175  1  0.75160794  0.50308280  0.64484328  1
  O  O176  1  0.74252377  1.00951700  0.13529920  1
  O  O177  1  0.74322071  0.98315367  0.62725879  1
  O  O178  1  0.00511705  0.37123129  0.25556697  1
  O  O179  1  -0.01237618  0.36440703  0.74779515  1
  O  O180  1  0.00818651  0.86493752  0.25644722  1
  O  O181  1  -0.00346582  0.87599231  0.76638290  1
  O  O182  1  0.51486906  0.36174547  0.24124966  1
  O  O183  1  0.51106736  0.36317253  0.75321441  1
  O  O184  1  0.49603112  0.87033405  0.25599539  1
  O  O185  1  0.50233008  0.85958030  0.75769462  1
  O  O186  1  0.50610442  0.13631548  0.24087726  1
  O  O187  1  0.48960576  0.13324384  0.75857752  1
  O  O188  1  0.49037775  0.62740624  0.22891302  1
  O  O189  1  0.48833081  0.62343547  0.74285957  1
  O  O190  1  1.00155212  0.12145216  0.24301248  1
  O  O191  1  0.98494994  0.14087349  0.75698550  1
  O  O192  1  1.00802853  0.63702787  0.24373361  1
  O  O193  1  0.99048169  0.60776800  0.75875596  1
  O  O194  1  0.38129205  0.25174126  0.01056184  1
  O  O195  1  0.38107226  0.25173549  0.50099659  1
  O  O196  1  0.36304597  0.76083110  0.00212177  1
  O  O197  1  0.35732966  0.76619520  0.49877947  1
  O  O198  1  0.86719225  0.25265093  0.00143768  1
  O  O199  1  0.87761503  0.26194099  0.49284968  1
  O  O200  1  0.87435398  0.75763970  0.00987543  1
  O  O201  1  0.85854866  0.74272431  0.50853222  1
  O  O202  1  0.11637716  0.23739599  0.51346194  1
  O  O203  1  0.11813603  0.24597909  0.98450082  1
  O  O204  1  0.14557784  0.75115980  0.49634625  1
  O  O205  1  0.13184651  0.74549898  1.01051678  1
  O  O206  1  0.62323055  0.24510640  0.48368227  1
  O  O207  1  0.62167014  0.24819504  0.98723358  1
  O  O208  1  0.63605826  0.74808024  0.49540695  1
  O  O209  1  0.64815483  0.74784864  1.01146455  1
  O  O210  1  0.50855531  0.23992620  0.13378068  1
  O  O211  1  0.50466043  0.24288654  0.64272039  1
  O  O212  1  0.48941089  0.73992393  0.10872684  1
  O  O213  1  0.50728196  0.73402118  0.64612117  1
  O  O214  1  0.99354727  0.24385269  0.14017518  1
  O  O215  1  1.01002155  0.25390633  0.63945678  1
  O  O216  1  0.99288868  0.74487211  0.13618514  1
  O  O217  1  1.01836589  0.74557663  0.62699549  1
  O  O218  1  -0.00271496  0.24330130  0.35950657  1
  O  O219  1  0.00569489  0.26386657  0.87442712  1
  O  O220  1  -0.00374258  0.75317966  0.36246781  1
  O  O221  1  -0.00363258  0.76368661  0.88575139  1
  O  O222  1  0.51695826  0.24014642  0.35719289  1
  O  O223  1  0.51107270  0.25241868  0.87020304  1
  O  O224  1  0.51315040  0.76130382  0.38055327  1
  O  O225  1  0.50513193  0.71924980  0.86303409  1
  O  O226  1  0.23783576  0.13005154  0.50892184  1
  O  O227  1  0.24861793  0.12224301  0.98387472  1
  O  O228  1  0.26009669  0.63507769  0.48290364  1
  O  O229  1  0.23781120  0.63635164  0.99059836  1
  O  O230  1  0.73515317  0.12234137  0.48802184  1
  O  O231  1  0.74816449  0.14530359  1.01068877  1
  O  O232  1  0.74591575  0.62982213  0.50826945  1
  O  O233  1  0.76322656  0.63561898  0.99130066  1
  O  O234  1  0.26446357  0.37569655  0.01482724  1
  O  O235  1  0.28841860  0.39355259  0.49740543  1
  O  O236  1  0.25204687  0.86540381  -0.00046028  1
  O  O237  1  0.25342387  0.86662905  0.50541723  1
  O  O238  1  0.73788595  0.35244208  0.00952667  1
  O  O239  1  0.75989748  0.36652305  0.50385787  1
  O  O240  1  0.76445398  0.86051266  -0.00730646  1
  O  O241  1  0.74928795  0.86538931  0.52054225  1
  O  O242  1  0.13567498  0.50906526  0.23917009  1
  O  O243  1  0.13716579  0.48165630  0.74074006  1
  O  O244  1  0.12057114  0.99248025  0.24939123  1
  O  O245  1  0.12985733  1.00736733  0.73818429  1
  O  O246  1  0.63435355  0.49300137  0.24011192  1
  O  O247  1  0.63825087  0.48855882  0.76455804  1
  O  O248  1  0.63057848  0.99378341  0.23619826  1
  O  O249  1  0.62534334  0.99201857  0.74429500  1
  O  O250  1  0.33786142  -0.00791836  0.21157050  1
  O  O251  1  0.36562657  0.00304427  0.75795809  1
  O  O252  1  0.36644771  0.51586285  0.24478870  1
  O  O253  1  0.33605320  0.42592872  0.77933601  1
  O  O254  1  0.86267607  -0.00088182  0.24150560  1
  O  O255  1  0.88688944  0.01596701  0.76455820  1
  O  O256  1  0.85827566  0.49528118  0.25422618  1
  O  O257  1  0.86484337  0.50260066  0.76248025  1
  O  O258  1  0.17151354  0.34072789  0.38082533  1
  O  O259  1  0.13257270  0.36805680  0.87966613  1
  O  O260  1  0.10763134  0.87770511  0.36290648  1
  O  O261  1  0.11118322  0.87684537  0.87824665  1
  O  O262  1  0.62785603  0.35791136  0.35791540  1
  O  O263  1  0.62155208  0.36369435  0.86520210  1
  O  O264  1  0.61176514  0.86722367  0.38098488  1
  O  O265  1  0.61495364  0.87699912  0.89404715  1
  O  O266  1  0.39417816  0.12462060  0.13291800  1
  O  O267  1  0.36305995  0.12321665  0.64070530  1
  O  O268  1  0.38113222  0.63500465  0.12740975  1
  O  O269  1  0.40489571  0.63555421  0.58656878  1
  O  O270  1  0.89220510  0.14138636  0.12011407  1
  O  O271  1  0.87470268  0.11823982  0.63233517  1
  O  O272  1  0.88821351  0.63768909  0.12216218  1
  O  O273  1  0.87599359  0.62050896  0.64566904  1
  O  O274  1  0.24668611  0.26223500  0.13414039  1
  O  O275  1  0.24611186  0.26315722  0.65431447  1
  O  O276  1  0.25937031  0.74089789  0.10827058  1
  O  O277  1  0.24072425  0.75840932  0.61900422  1
  O  O278  1  0.76770664  0.24597032  0.12557556  1
  O  O279  1  0.74392751  0.24918990  0.62237509  1
  O  O280  1  0.76692358  0.74154423  0.11465805  1
  O  O281  1  0.74563630  0.75171236  0.61752002  1
  O  O282  1  0.26647135  0.22631836  0.38222920  1
  O  O283  1  0.24180010  0.23934676  0.86325304  1
  O  O284  1  0.25578446  0.74155946  0.37866478  1
  O  O285  1  0.24476782  0.74614387  0.89089183  1
  O  O286  1  0.73740266  0.23557081  0.37091932  1
  O  O287  1  0.74022003  0.25244015  0.88540932  1
  O  O288  1  0.73913291  0.75455130  0.39337154  1
  O  O289  1  0.76007761  0.73738621  0.88634144  1
  O  O290  1  0.00179624  0.11290119  0.00259587  1
  O  O291  1  0.01303128  0.10842605  0.49414673  1
  O  O292  1  0.00316706  0.61786611  0.01152452  1
  O  O293  1  -0.00176178  0.61342189  0.48727468  1
  O  O294  1  0.48843632  0.11556154  0.00993230  1
  O  O295  1  0.51782603  0.12466444  0.49573945  1
  O  O296  1  0.48942216  0.61401147  0.01097871  1
  O  O297  1  0.46821201  0.63242000  0.53017893  1
  O  O298  1  0.48257210  0.38174641  0.49395182  1
  O  O299  1  0.48588656  0.38626389  1.01163811  1
  O  O300  1  0.48596512  0.86648876  0.51588373  1
  O  O301  1  0.48252774  0.89973321  1.00294876  1
  O  O302  1  0.98544634  0.38430953  0.49519512  1
  O  O303  1  1.00693131  0.38760259  1.01525888  1
  O  O304  1  1.00400170  0.88514253  0.48705625  1
  O  O305  1  0.99385221  0.88755205  0.99887557  1
  O  O306  1  0.48695192  0.49879455  0.34145864  1
  O  O307  1  0.50561059  0.50265322  0.89818695  1
  O  O308  1  0.50677288  0.98451973  0.36732847  1
  O  O309  1  0.48511617  1.01328679  0.88674579  1
  O  O310  1  0.97832500  0.49870495  0.36545510  1
  O  O311  1  0.98848535  0.49701768  0.88656701  1
  O  O312  1  0.99808688  0.99398047  0.38580865  1
  O  O313  1  0.99412146  0.99506131  0.88960216  1
  O  O314  1  -0.00965838  0.01236253  0.11517564  1
  O  O315  1  0.01161206  -0.01416430  0.61391230  1
  O  O316  1  0.00518180  0.50708046  0.12492938  1
  O  O317  1  0.00363772  0.50018119  0.60147725  1
  O  O318  1  0.50778857  0.01130418  0.11464686  1
  O  O319  1  0.51068080  -0.00773621  0.63511291  1
  O  O320  1  0.50588539  0.50921264  0.11710889  1
  O  O321  1  0.48334280  0.50566737  0.63977375  1
  O  O322  1  0.25742820  0.39235019  0.23439227  1
  O  O323  1  0.23935323  0.32544587  0.70080783  1
  O  O324  1  0.23474637  0.87404595  0.26322316  1
  O  O325  1  0.25145517  0.88022453  0.73839923  1
  O  O326  1  0.73961822  0.37970164  0.24369593  1
  O  O327  1  0.74249685  0.38463570  0.75153770  1
  O  O328  1  0.75393327  0.88657474  0.25450684  1
  O  O329  1  0.74052857  0.85815836  0.73806602  1
  O  O330  1  0.24182838  0.11596539  0.26067642  1
  O  O331  1  0.25347504  0.11445847  0.76010161  1
  O  O332  1  0.25816187  0.62640608  0.25381538  1
  O  O333  1  0.22494105  0.64458366  0.76887270  1
  O  O334  1  0.74437811  0.11334573  0.26296543  1
  O  O335  1  0.77117625  0.13247312  0.75272576  1
  O  O336  1  0.74484270  0.61469250  0.24178185  1
  O  O337  1  0.75337168  0.61309653  0.76414998  1
  O  O338  1  0.36070257  0.12539502  0.37512535  1
  O  O339  1  0.36068601  0.11758925  0.86753146  1
  O  O340  1  0.37688864  0.62837480  0.35794345  1
  O  O341  1  0.35271579  0.62503364  0.87354875  1
  O  O342  1  0.85595727  0.12525132  0.38359569  1
  O  O343  1  0.87835294  0.11363136  0.88382398  1
  O  O344  1  0.86835851  0.61333697  0.37061234  1
  O  O345  1  0.86917086  0.61328243  0.86666576  1
  O  O346  1  0.14333522  0.38837196  0.11637183  1
  O  O347  1  0.14620554  0.40369063  0.58932795  1
  O  O348  1  0.12369282  0.87378362  0.14393489  1
  O  O349  1  0.14003153  0.88725605  0.61902044  1
  O  O350  1  0.62679437  0.38390928  0.13444828  1
  O  O351  1  0.62627666  0.38125350  0.64521675  1
  O  O352  1  0.62037149  0.90145242  0.09949040  1
  O  O353  1  0.63018832  0.88403833  0.62644456  1
  O  O354  1  0.11245048  0.25466991  0.24755910  1
  O  O355  1  0.10702651  0.24550833  0.76863420  1
  O  O356  1  0.11529331  0.75370843  0.24995837  1
  O  O357  1  0.06446703  0.73001758  0.68879055  1
  O  O358  1  0.63104977  0.25777662  0.24361765  1
  O  O359  1  0.61790030  0.25394359  0.75824146  1
  O  O360  1  0.63683610  0.75378465  0.26993445  1
  O  O361  1  0.60973909  0.74392314  0.75697432  1
  O  O362  1  0.39161020  0.25918251  0.25361703  1
  O  O363  1  0.38893996  0.24137768  0.75378827  1
  O  O364  1  0.36754026  0.74628328  0.23526553  1
  O  O365  1  0.38754107  0.75367869  0.75463850  1
  O  O366  1  0.88170833  0.25344356  0.24518113  1
  O  O367  1  0.88403904  0.24213542  0.75122832  1
  O  O368  1  0.87919373  0.75615111  0.23798511  1
  O  O369  1  0.87994639  0.73141479  0.75196518  1
  O  O370  1  0.38569327  0.51106234  0.46917148  1
  O  O371  1  0.38082910  0.49716097  1.00503491  1
  O  O372  1  0.37392439  0.98236488  0.50334504  1
  O  O373  1  0.36812053  0.99589833  0.99203319  1
  O  O374  1  0.88082989  0.49979498  0.48435894  1
  O  O375  1  0.88212263  0.50141488  0.99171760  1
  O  O376  1  0.88917935  1.00561342  0.50889902  1
  O  O377  1  0.88048435  0.99331965  0.99559642  1
  O  O378  1  0.11248599  0.00210788  0.00353089  1
  O  O379  1  0.12192948  0.00492076  0.51136085  1
  O  O380  1  0.11661036  0.50880353  0.00984067  1
  O  O381  1  0.10099947  0.49339933  0.46102110  1
  O  O382  1  0.61241018  0.01315970  -0.00604933  1
  O  O383  1  0.62372817  0.00227677  0.50556202  1
  O  O384  1  0.62113290  0.49088606  0.01365807  1
  O  O385  1  0.60902631  0.48503527  0.48162790  1
  O  O386  1  0.36519549  0.37710833  0.12083005  1
  O  O387  1  0.38629056  0.35774201  0.61720582  1
  O  O388  1  0.37609027  0.86481614  0.11279732  1
  O  O389  1  0.35637237  0.87773940  0.61771126  1
  O  O390  1  0.87946748  0.35896332  0.12608308  1
  O  O391  1  0.86894313  0.38957123  0.60311109  1
  O  O392  1  0.88337434  0.86215013  0.11568772  1
  O  O393  1  0.86237430  0.86694952  0.63799103  1
  O  O394  1  0.13794686  0.12698435  0.39192656  1
  O  O395  1  0.13592319  0.12410844  0.87456130  1
  O  O396  1  0.14359407  0.62586127  0.36695309  1
  O  O397  1  0.11611729  0.62156221  0.88975775  1
  O  O398  1  0.63095365  0.12857526  0.38317387  1
  O  O399  1  0.62511325  0.13836534  0.86855992  1
  O  O400  1  0.61472242  0.63901361  0.37655148  1
  O  O401  1  0.64667280  0.61603666  0.88339863  1
