# generated using pymatgen
data_V73Zn73O256
_symmetry_space_group_name_H-M   'P 1'
_cell_length_a   16.92205225
_cell_length_b   16.89457429
_cell_length_c   16.89330193
_cell_angle_alpha   89.69345004
_cell_angle_beta   89.94184065
_cell_angle_gamma   90.02718298
_symmetry_Int_Tables_number   1
_chemical_formula_structural   V73Zn73O256
_chemical_formula_sum   'V73 Zn73 O256'
_cell_volume   4829.56859481
_cell_formula_units_Z   1
loop_
 _symmetry_equiv_pos_site_id
 _symmetry_equiv_pos_as_xyz
  1  'x, y, z'
loop_
 _atom_site_type_symbol
 _atom_site_label
 _atom_site_symmetry_multiplicity
 _atom_site_fract_x
 _atom_site_fract_y
 _atom_site_fract_z
 _atom_site_occupancy
  V  V0  1  0.61672313  0.25990830  0.86312897  1
  V  V1  1  0.74345585  0.12418559  0.87318089  1
  V  V2  1  0.86383519  0.11683137  0.25802102  1
  V  V3  1  0.75117475  0.88805546  0.61986572  1
  V  V4  1  0.37460090  0.49681293  0.86840611  1
  V  V5  1  0.51116864  0.50091987  0.00614911  1
  V  V6  1  0.13735288  0.49727266  0.63531895  1
  V  V7  1  0.25363371  0.37350271  0.62716949  1
  V  V8  1  0.12856221  -0.00097172  0.62845379  1
  V  V9  1  0.13876397  0.87407828  0.76030282  1
  V  V10  1  0.38027431  0.12265423  0.24974101  1
  V  V11  1  0.88115576  0.87267486  0.48709310  1
  V  V12  1  0.49922204  0.87811495  0.36491258  1
  V  V13  1  0.48951414  -0.01163230  -0.01115937  1
  V  V14  1  -0.00284578  0.26773476  0.25304711  1
  V  V15  1  0.11691908  0.63059964  0.00163789  1
  V  V16  1  0.64151555  0.88590319  0.24791040  1
  V  V17  1  -0.00010612  0.13531564  0.13006907  1
  V  V18  1  0.75740307  0.61918616  0.36726819  1
  V  V19  1  0.63829443  0.24863356  0.37225070  1
  V  V20  1  0.13194750  0.12641844  0.49536397  1
  V  V21  1  0.37031410  0.74044158  0.63405311  1
  V  V22  1  0.11610991  0.87687787  0.24977679  1
  V  V23  1  0.50208403  0.00325255  0.49403049  1
  V  V24  1  0.73492448  0.38980472  0.62855843  1
  V  V25  1  -0.00167856  -0.00412583  0.48497961  1
  V  V26  1  0.12397865  0.61821599  0.50079068  1
  V  V27  1  0.25281822  -0.00086077  0.24739079  1
  V  V28  1  -0.00559013  0.63284155  0.14338663  1
  V  V29  1  0.01052146  0.25827285  0.75412335  1
  V  V30  1  0.12557996  0.48942594  0.13746341  1
  V  V31  1  0.12752561  0.25925138  0.36724747  1
  V  V32  1  0.86251244  0.24545503  0.61617234  1
  V  V33  1  0.49933885  0.26253042  0.74260577  1
  V  V34  1  0.25555665  0.12401278  0.37308583  1
  V  V35  1  0.51704138  0.26554390  0.23302735  1
  V  V36  1  0.89525660  0.49752947  0.38084013  1
  V  V37  1  0.11161065  0.75451468  0.37133082  1
  V  V38  1  0.62245015  0.12439345  -0.00078331  1
  V  V39  1  0.72927908  -0.00775195  0.75121745  1
  V  V40  1  0.00363683  0.12384088  0.62535454  1
  V  V41  1  0.75144754  0.74591130  0.50846889  1
  V  V42  1  0.50573866  0.11496478  0.62557806  1
  V  V43  1  0.36446849  0.25517402  0.11950096  1
  V  V44  1  0.00132591  -0.00406161  0.01084227  1
  V  V45  1  0.51568520  0.62384697  0.13749735  1
  V  V46  1  0.37239985  0.24178610  0.61980128  1
  V  V47  1  0.62250550  0.74430817  0.37831593  1
  V  V48  1  0.24938689  0.62226508  0.87058140  1
  V  V49  1  0.37731265  0.88093622  0.49630466  1
  V  V50  1  0.73858082  0.75199635  0.00547439  1
  V  V51  1  -0.01135448  0.49133100  -0.00509626  1
  V  V52  1  0.26236527  0.62329095  0.36539249  1
  V  V53  1  0.25535169  0.87338082  0.12605636  1
  V  V54  1  -0.00823515  0.87227298  0.87924512  1
  V  V55  1  0.36422101  0.37945539  0.00181727  1
  V  V56  1  0.50578514  0.38000479  0.37460231  1
  V  V57  1  0.87870797  0.11378051  0.75122274  1
  V  V58  1  0.76728252  0.26866068  -0.00769467  1
  V  V59  1  0.50414673  0.62685381  0.63267390  1
  V  V60  1  0.25028477  0.74991361  0.49470904  1
  V  V61  1  0.37336328  0.73393875  0.14240434  1
  V  V62  1  0.64008500  0.12371323  0.49251094  1
  V  V63  1  0.37275958  0.37623071  0.49212271  1
  V  V64  1  0.12989853  0.13211859  -0.00209376  1
  V  V65  1  0.28068512  0.11221603  0.83758882  1
  V  V66  1  0.25129480  0.75198761  -0.00298562  1
  V  V67  1  0.87600683  0.75876762  0.13087569  1
  V  V68  1  0.50341094  0.11807170  0.12055290  1
  V  V69  1  -0.00354637  0.62454600  0.62966853  1
  V  V70  1  0.25049941  0.87985361  0.61942144  1
  V  V71  1  0.00128833  0.75035900  0.75437765  1
  V  V72  1  0.25972042  0.48713202  0.25159003  1
  Zn  Zn73  1  0.63039675  0.51955284  0.61536945  1
  Zn  Zn74  1  0.73435600  0.63936574  0.87224391  1
  Zn  Zn75  1  0.87499212  0.37141638  0.49425178  1
  Zn  Zn76  1  0.86938941  -0.00967827  0.87990140  1
  Zn  Zn77  1  0.76935733  0.90224204  0.12935223  1
  Zn  Zn78  1  0.84476943  0.64504961  0.74193838  1
  Zn  Zn79  1  0.64137397  0.41855502  0.19473854  1
  Zn  Zn80  1  0.20139494  0.42871786  0.80375209  1
  Zn  Zn81  1  0.50468398  0.50844414  0.49446056  1
  Zn  Zn82  1  0.18225300  0.18653490  0.18474478  1
  Zn  Zn83  1  0.19351677  0.18704670  0.69042572  1
  Zn  Zn84  1  0.18192981  0.68779746  0.18777427  1
  Zn  Zn85  1  0.18719497  0.69153457  0.68753944  1
  Zn  Zn86  1  0.69313876  0.20146182  0.17414817  1
  Zn  Zn87  1  0.68154206  0.17663663  0.68632863  1
  Zn  Zn88  1  0.69209654  0.69569322  0.19446199  1
  Zn  Zn89  1  0.65878250  0.72949219  0.69315773  1
  Zn  Zn90  1  0.31771427  0.30557852  0.30800479  1
  Zn  Zn91  1  0.14603904  0.25596099  0.87610233  1
  Zn  Zn92  1  0.31155703  0.81185141  0.31407503  1
  Zn  Zn93  1  0.36057853  0.87056216  0.77112185  1
  Zn  Zn94  1  0.82189861  0.32153337  0.30437159  1
  Zn  Zn95  1  0.80964987  0.29997880  0.79587572  1
  Zn  Zn96  1  0.81489448  0.80797132  0.31173634  1
  Zn  Zn97  1  0.79981254  0.79789015  0.80406645  1
  Zn  Zn98  1  0.19208830  0.43983853  0.43875982  1
  Zn  Zn99  1  0.17615178  0.43143674  0.96397426  1
  Zn  Zn100  1  0.18674565  0.94167923  0.43192261  1
  Zn  Zn101  1  0.19129959  0.94928162  0.94336472  1
  Zn  Zn102  1  0.68926868  0.43608079  0.44888867  1
  Zn  Zn103  1  0.68414262  0.44167365  0.92106659  1
  Zn  Zn104  1  0.68778858  0.93821130  0.43538828  1
  Zn  Zn105  1  0.70780987  0.95763620  0.98203865  1
  Zn  Zn106  1  0.31360939  0.06078856  0.06242286  1
  Zn  Zn107  1  0.31637652  0.06235161  0.56062801  1
  Zn  Zn108  1  0.30669815  0.56034107  0.06569660  1
  Zn  Zn109  1  0.31813632  0.56085477  0.55413776  1
  Zn  Zn110  1  0.82184330  0.07670514  0.06279840  1
  Zn  Zn111  1  0.81909265  0.05725187  0.56041905  1
  Zn  Zn112  1  0.80578330  0.56580347  0.06980938  1
  Zn  Zn113  1  0.81460681  0.55627829  0.56378594  1
  Zn  Zn114  1  0.43959020  0.44256672  0.18520370  1
  Zn  Zn115  1  0.43731399  0.43930086  0.68153905  1
  Zn  Zn116  1  0.43578715  0.93544325  0.18023167  1
  Zn  Zn117  1  0.54036512  0.91277030  0.71392910  1
  Zn  Zn118  1  0.94769674  0.46695796  0.20871023  1
  Zn  Zn119  1  0.96453641  0.41495621  0.63690423  1
  Zn  Zn120  1  0.93525004  0.94139810  0.19468363  1
  Zn  Zn121  1  0.93933455  0.93143810  0.68283378  1
  Zn  Zn122  1  0.06742072  0.06351761  0.30685922  1
  Zn  Zn123  1  0.06694223  0.05852826  0.81679125  1
  Zn  Zn124  1  0.07049617  0.56330672  0.31842869  1
  Zn  Zn125  1  0.06194010  0.56034539  0.81678785  1
  Zn  Zn126  1  0.56800583  0.06665096  0.30941008  1
  Zn  Zn127  1  0.45087721  0.04155725  0.80237319  1
  Zn  Zn128  1  0.56821075  0.56094331  0.30896132  1
  Zn  Zn129  1  0.54163373  0.58308490  0.81787783  1
  Zn  Zn130  1  0.44525113  0.19531062  0.43148039  1
  Zn  Zn131  1  0.43305360  0.18987859  0.93256986  1
  Zn  Zn132  1  0.44097176  0.68883622  0.44304410  1
  Zn  Zn133  1  0.42619106  0.67629238  0.95669069  1
  Zn  Zn134  1  0.94000884  0.18467018  0.43146063  1
  Zn  Zn135  1  0.94237907  0.18431328  0.93440886  1
  Zn  Zn136  1  0.93371947  0.68479150  0.44433006  1
  Zn  Zn137  1  0.89031993  0.65524071  0.95025561  1
  Zn  Zn138  1  0.06000127  0.31316758  0.06017238  1
  Zn  Zn139  1  0.06593356  0.31132511  0.55070813  1
  Zn  Zn140  1  0.06311448  0.81156119  0.06661453  1
  Zn  Zn141  1  0.06250997  0.80989575  0.56392209  1
  Zn  Zn142  1  0.55402892  0.30929691  0.05054367  1
  Zn  Zn143  1  0.56595891  0.30816492  0.55543380  1
  Zn  Zn144  1  0.55833375  0.80802031  0.07057411  1
  Zn  Zn145  1  0.56514397  0.81616920  0.56711652  1
  O  O146  1  0.10949929  0.12561022  0.11798044  1
  O  O147  1  0.12370753  0.11773517  0.61551066  1
  O  O148  1  0.11428373  0.62203166  0.12026254  1
  O  O149  1  0.12967627  0.61591523  0.61926308  1
  O  O150  1  0.61368627  0.14098266  0.10924968  1
  O  O151  1  0.61299732  0.13157802  0.60382041  1
  O  O152  1  0.61423875  0.63646979  0.13410607  1
  O  O153  1  0.60694266  0.64024257  0.63292352  1
  O  O154  1  0.38462328  0.36162634  0.38702827  1
  O  O155  1  0.37083813  0.39159762  0.89454175  1
  O  O156  1  0.38999534  0.86311844  0.38504124  1
  O  O157  1  0.39707869  0.83211804  0.88619240  1
  O  O158  1  0.87219957  0.38970625  0.37891810  1
  O  O159  1  0.87000473  0.40584342  0.84694299  1
  O  O160  1  0.87828875  0.87109511  0.38705249  1
  O  O161  1  0.89103051  0.87057776  0.86966957  1
  O  O162  1  0.25107841  0.01174857  0.36314716  1
  O  O163  1  0.24923445  0.02224277  0.87882054  1
  O  O164  1  0.24405787  0.51356677  0.36448002  1
  O  O165  1  0.25711702  0.50796466  0.87744881  1
  O  O166  1  0.75790811  0.00030497  0.37540389  1
  O  O167  1  0.74925089  0.00206303  0.86610736  1
  O  O168  1  0.74303200  0.52047819  0.38710426  1
  O  O169  1  0.69682870  0.52404894  0.83694717  1
  O  O170  1  0.23479972  0.50692831  0.14099321  1
  O  O171  1  0.24328612  0.49403969  0.61955651  1
  O  O172  1  0.25525060  0.98777425  0.13647117  1
  O  O173  1  0.24157717  0.98958709  0.61172842  1
  O  O174  1  0.75049758  0.47093869  0.12228775  1
  O  O175  1  0.74406310  0.49668051  0.63524465  1
  O  O176  1  0.74351763  1.00256900  0.08507306  1
  O  O177  1  0.75752477  1.00199291  0.64521355  1
  O  O178  1  -0.00593846  0.36631736  0.24373235  1
  O  O179  1  -0.00212769  0.35591500  0.73261931  1
  O  O180  1  0.01785283  0.88362842  0.24913396  1
  O  O181  1  0.01351809  0.87043071  0.75479356  1
  O  O182  1  0.48738175  0.37101168  0.26491298  1
  O  O183  1  0.50410344  0.36064464  0.73664173  1
  O  O184  1  0.49774011  0.87702406  0.26402027  1
  O  O185  1  0.58258958  0.81430062  0.68225769  1
  O  O186  1  0.49597302  0.13124556  0.24101877  1
  O  O187  1  0.50431932  0.11901868  0.72650064  1
  O  O188  1  0.49682531  0.61650592  0.23673847  1
  O  O189  1  0.48243496  0.63134225  0.73277441  1
  O  O190  1  0.99731617  0.12298144  0.23877680  1
  O  O191  1  0.99666870  0.12366974  0.74207640  1
  O  O192  1  1.00865282  0.62585027  0.24170794  1
  O  O193  1  1.01529677  0.64015721  0.74645193  1
  O  O194  1  0.38146036  0.26246334  0.00878311  1
  O  O195  1  0.38665487  0.25960263  0.51141626  1
  O  O196  1  0.35393888  0.74484678  0.01780102  1
  O  O197  1  0.35996188  0.75747008  0.50141064  1
  O  O198  1  0.86638420  0.25306341  -0.01445980  1
  O  O199  1  0.88366594  0.24042965  0.51448297  1
  O  O200  1  0.87433534  0.74216798  0.02104948  1
  O  O201  1  0.86675866  0.76330674  0.50174846  1
  O  O202  1  0.11936933  0.23382671  0.48618712  1
  O  O203  1  0.11772057  0.23807245  0.99876838  1
  O  O204  1  0.13391718  0.74624048  0.49235432  1
  O  O205  1  0.13289291  0.73681920  1.00930151  1
  O  O206  1  0.62385719  0.23615484  0.48349513  1
  O  O207  1  0.61545773  0.24298840  0.97559229  1
  O  O208  1  0.64283968  0.76522784  0.48973804  1
  O  O209  1  0.63844284  0.74693953  1.01758379  1
  O  O210  1  0.48568953  0.23478943  0.12471721  1
  O  O211  1  0.50010527  0.23949594  0.62715060  1
  O  O212  1  0.48152602  0.73399542  0.12009609  1
  O  O213  1  0.47332354  0.73764901  0.60845100  1
  O  O214  1  1.00785236  0.24321586  0.14057696  1
  O  O215  1  1.00090473  0.23261092  0.62994606  1
  O  O216  1  0.99400860  0.73985450  0.12547046  1
  O  O217  1  1.01318448  0.73666991  0.63851628  1
  O  O218  1  0.01508604  0.24616167  0.36343052  1
  O  O219  1  -0.00516616  0.24912368  0.85455478  1
  O  O220  1  0.01376778  0.74589393  0.38450184  1
  O  O221  1  0.01220243  0.76641664  0.86191132  1
  O  O222  1  0.51106903  0.25907802  0.35761451  1
  O  O223  1  0.50618121  0.24385893  0.85394666  1
  O  O224  1  0.51525681  0.76090893  0.38856125  1
  O  O225  1  0.44842383  0.77629980  0.88314376  1
  O  O226  1  0.24198225  0.11576174  0.48806607  1
  O  O227  1  0.22817992  0.11836190  1.01444907  1
  O  O228  1  0.24351328  0.63139695  0.48912785  1
  O  O229  1  0.23690176  0.63212774  1.00297951  1
  O  O230  1  0.73800254  0.11401594  0.50209485  1
  O  O231  1  0.74337307  0.13981093  0.98716344  1
  O  O232  1  0.75548147  0.64480403  0.51268631  1
  O  O233  1  0.75645586  0.63656823  0.99510862  1
  O  O234  1  0.26553450  0.38002510  0.01443488  1
  O  O235  1  0.26622237  0.37581889  0.50429247  1
  O  O236  1  0.23463375  0.86157648  0.01099784  1
  O  O237  1  0.25483952  0.87049032  0.49830551  1
  O  O238  1  0.75418011  0.36799792  -0.03031811  1
  O  O239  1  0.75842913  0.37584150  0.52186574  1
  O  O240  1  0.75062274  0.85959466  0.01785030  1
  O  O241  1  0.76817673  0.87596898  0.49999353  1
  O  O242  1  0.12856024  0.49957062  0.24267540  1
  O  O243  1  0.13344712  0.50127097  0.73926713  1
  O  O244  1  0.13812780  0.98564135  0.25591162  1
  O  O245  1  0.12024972  0.98876040  0.73590627  1
  O  O246  1  0.64619744  0.50553147  0.25558060  1
  O  O247  1  0.63497572  0.51814773  0.78357719  1
  O  O248  1  0.62567825  0.98549703  0.25733527  1
  O  O249  1  0.63139924  0.98817519  0.74845918  1
  O  O250  1  0.37001621  0.01362990  0.24499636  1
  O  O251  1  0.43735344  -0.05403047  0.74419078  1
  O  O252  1  0.35786971  0.50111512  0.24161619  1
  O  O253  1  0.38132071  0.49000501  0.76960377  1
  O  O254  1  0.86906036  0.01590961  0.24228506  1
  O  O255  1  0.87996570  0.00719621  0.75445206  1
  O  O256  1  0.87246439  0.50565682  0.27815621  1
  O  O257  1  0.87121884  0.46513244  0.80275808  1
  O  O258  1  0.13372442  0.35672624  0.38551058  1
  O  O259  1  0.14353788  0.36906508  0.87881025  1
  O  O260  1  0.13029932  0.86243601  0.36771660  1
  O  O261  1  0.13036437  0.88390771  0.86078864  1
  O  O262  1  0.61346052  0.36227709  0.38122501  1
  O  O263  1  0.62234717  0.35802336  0.86497615  1
  O  O264  1  0.61457377  0.87125602  0.36973720  1
  O  O265  1  0.60186032  0.80532387  0.87204137  1
  O  O266  1  0.38033350  0.13345359  0.13092039  1
  O  O267  1  0.38968624  0.13461754  0.61162952  1
  O  O268  1  0.36815576  0.63250574  0.13141722  1
  O  O269  1  0.35391111  0.63883996  0.62970207  1
  O  O270  1  0.89383355  0.13165146  0.13099077  1
  O  O271  1  0.88664723  0.12425256  0.63018926  1
  O  O272  1  0.89138378  0.62455262  0.13169758  1
  O  O273  1  0.89292964  0.61308213  0.63959841  1
  O  O274  1  0.26598015  0.24540827  0.13166666  1
  O  O275  1  0.26673242  0.25133646  0.62244629  1
  O  O276  1  0.25550474  0.75329815  0.12450223  1
  O  O277  1  0.24902856  0.75952689  0.61244944  1
  O  O278  1  0.74296563  0.26080343  0.09007236  1
  O  O279  1  0.76354709  0.22976896  0.62422292  1
  O  O280  1  0.76505061  0.74496134  0.12139174  1
  O  O281  1  0.74482915  0.77423102  0.61247123  1
  O  O282  1  0.23791360  0.23593649  0.36240898  1
  O  O283  1  0.24961650  0.20235080  0.86898077  1
  O  O284  1  0.24240072  0.74151370  0.38023603  1
  O  O285  1  0.25256282  0.73628283  0.89567922  1
  O  O286  1  0.73534735  0.26603316  0.36142313  1
  O  O287  1  0.73869018  0.24368196  0.87088176  1
  O  O288  1  0.74739182  0.74164840  0.38947443  1
  O  O289  1  0.75639374  0.76103780  0.90247104  1
  O  O290  1  0.00424434  0.12069850  0.01301147  1
  O  O291  1  0.00964791  0.11209442  0.50421307  1
  O  O292  1  0.01176947  0.62255925  0.00647276  1
  O  O293  1  0.01000024  0.63604272  0.52180139  1
  O  O294  1  0.50327709  0.12170907  0.00303939  1
  O  O295  1  0.50156729  0.11679753  0.49762439  1
  O  O296  1  0.49416506  0.61136840  0.01817631  1
  O  O297  1  0.47705390  0.61718534  0.52182648  1
  O  O298  1  0.49340596  0.37140914  0.48662721  1
  O  O299  1  0.48825018  0.39383202  1.00617933  1
  O  O300  1  0.49542845  0.88367695  0.49646346  1
  O  O301  1  0.50642510  0.89199058  1.01611675  1
  O  O302  1  0.98530421  0.38241398  0.52991787  1
  O  O303  1  0.99322464  0.39212722  1.01418808  1
  O  O304  1  0.99375557  0.88498815  0.50656622  1
  O  O305  1  1.01165697  0.88379181  0.98983287  1
  O  O306  1  0.50400955  0.48312212  0.37182072  1
  O  O307  1  0.48088502  0.51663718  0.89334338  1
  O  O308  1  0.50127190  0.98595367  0.37956619  1
  O  O309  1  0.50394298  0.98963980  0.88961009  1
  O  O310  1  0.99608813  0.50614608  0.38149845  1
  O  O311  1  1.00854764  0.50070092  0.89545355  1
  O  O312  1  1.01170307  0.99954755  0.38706393  1
  O  O313  1  1.00120044  0.98247558  0.87702931  1
  O  O314  1  -0.00136671  0.00421874  0.11395979  1
  O  O315  1  0.01061486  0.00740306  0.61774925  1
  O  O316  1  0.00901419  0.51335947  0.12400492  1
  O  O317  1  0.02104878  0.51805132  0.63627919  1
  O  O318  1  0.49693964  0.01452969  0.12185502  1
  O  O319  1  0.50632204  0.01135043  0.60863140  1
  O  O320  1  0.50651926  0.50952008  0.11939887  1
  O  O321  1  0.50819338  0.51435808  0.63195511  1
  O  O322  1  0.25206295  0.38764071  0.26093289  1
  O  O323  1  0.26006293  0.37065277  0.72687694  1
  O  O324  1  0.24809564  0.88278432  0.24756654  1
  O  O325  1  0.24461990  0.87846842  0.73729057  1
  O  O326  1  0.76035888  0.37309150  0.21376664  1
  O  O327  1  0.74582695  0.36042587  0.72679463  1
  O  O328  1  0.74619041  0.87854452  0.24590911  1
  O  O329  1  0.75499871  0.88624909  0.73705786  1
  O  O330  1  0.25699518  0.11764331  0.25167619  1
  O  O331  1  0.26053690  0.10767002  0.73665939  1
  O  O332  1  0.24395126  0.62398898  0.26367871  1
  O  O333  1  0.23865894  0.63471151  0.77283576  1
  O  O334  1  0.76893072  0.14278664  0.23568586  1
  O  O335  1  0.75328282  0.10935796  0.75447431  1
  O  O336  1  0.75234111  0.63035981  0.26887871  1
  O  O337  1  0.74206849  0.69640801  0.76044528  1
  O  O338  1  0.36797420  0.13969372  0.36065990  1
  O  O339  1  0.38545561  0.11857041  0.85568956  1
  O  O340  1  0.36051307  0.63222011  0.37824436  1
  O  O341  1  0.35733025  0.61229595  0.88639691  1
  O  O342  1  0.87805328  0.12630132  0.35879094  1
  O  O343  1  0.86255518  0.12562030  0.86380907  1
  O  O344  1  0.86389062  0.61799422  0.38597667  1
  O  O345  1  0.85343483  0.61633475  0.85236729  1
  O  O346  1  0.12169513  0.39115415  0.12286740  1
  O  O347  1  0.13662755  0.39034028  0.61314417  1
  O  O348  1  0.13741763  0.86248903  0.14401219  1
  O  O349  1  0.13410210  0.88155996  0.62592666  1
  O  O350  1  0.58661082  0.33165221  0.15731718  1
  O  O351  1  0.63367987  0.37482748  0.61824368  1
  O  O352  1  0.61824945  0.86497629  0.15216098  1
  O  O353  1  0.65717187  0.90484578  0.58972054  1
  O  O354  1  0.11610042  0.24877122  0.25935610  1
  O  O355  1  0.11472457  0.24270215  0.75094880  1
  O  O356  1  0.12669097  0.75936253  0.26455651  1
  O  O357  1  0.12330304  0.77011744  0.74571739  1
  O  O358  1  0.61974579  0.23340014  0.26251261  1
  O  O359  1  0.61329092  0.23917041  0.75387492  1
  O  O360  1  0.63633412  0.76446320  0.27425323  1
  O  O361  1  0.59133750  0.74394521  0.83184474  1
  O  O362  1  0.38808653  0.24426553  0.23627123  1
  O  O363  1  0.39398841  0.24752758  0.72620544  1
  O  O364  1  0.37071587  0.74723972  0.24180749  1
  O  O365  1  0.36638550  0.76168255  0.73158836  1
  O  O366  1  0.89578376  0.24322235  0.25622525  1
  O  O367  1  0.88565888  0.23211172  0.73613217  1
  O  O368  1  0.87220511  0.74887082  0.23405427  1
  O  O369  1  0.90013632  0.75813574  0.74754349  1
  O  O370  1  0.38378670  0.48052019  0.50325054  1
  O  O371  1  0.37737121  0.49097791  1.00672973  1
  O  O372  1  0.38379548  0.98869683  0.50035347  1
  O  O373  1  0.38898796  1.00375053  1.00174816  1
  O  O374  1  0.87347779  0.49989205  0.48833167  1
  O  O375  1  0.89064201  0.51721111  1.00373784  1
  O  O376  1  0.89237384  0.99558656  0.49464391  1
  O  O377  1  0.89743012  1.01129663  0.99109244  1
  O  O378  1  0.10767484  0.01301919  -0.00367397  1
  O  O379  1  0.11759464  0.00428015  0.50612685  1
  O  O380  1  0.11842342  0.51206949  0.01965293  1
  O  O381  1  0.13060081  0.51379947  0.50645814  1
  O  O382  1  0.61107820  0.02015226  -0.00741086  1
  O  O383  1  0.61408510  0.01590542  0.48566257  1
  O  O384  1  0.61012221  0.49515581  -0.00820742  1
  O  O385  1  0.61722450  0.50334113  0.50303705  1
  O  O386  1  0.38154679  0.36097494  0.12153454  1
  O  O387  1  0.37393441  0.36475325  0.61322077  1
  O  O388  1  0.36194696  0.86117906  0.13062549  1
  O  O389  1  0.36107824  0.86266230  0.60909086  1
  O  O390  1  0.80213193  0.41882537  0.15822670  1
  O  O391  1  0.86177927  0.35115749  0.63038450  1
  O  O392  1  0.88266594  0.86451909  0.12817201  1
  O  O393  1  0.86433507  0.88902651  0.60753588  1
  O  O394  1  0.13505807  0.12845638  0.37850532  1
  O  O395  1  0.11198614  0.12981556  0.89209445  1
  O  O396  1  0.13167398  0.63803472  0.38401650  1
  O  O397  1  0.13608907  0.61503564  0.89451235  1
  O  O398  1  0.62628875  0.13566034  0.38177263  1
  O  O399  1  0.63771851  0.13262152  0.87770370  1
  O  O400  1  0.63030691  0.64097017  0.37720969  1
  O  O401  1  0.60643400  0.66550765  0.87370285  1
