# generated using pymatgen
data_V73Zn73O256
_symmetry_space_group_name_H-M   'P 1'
_cell_length_a   16.89493939
_cell_length_b   16.86829492
_cell_length_c   16.93231363
_cell_angle_alpha   90.12548165
_cell_angle_beta   89.98271673
_cell_angle_gamma   90.15626783
_symmetry_Int_Tables_number   1
_chemical_formula_structural   V73Zn73O256
_chemical_formula_sum   'V73 Zn73 O256'
_cell_volume   4825.49035631
_cell_formula_units_Z   1
loop_
 _symmetry_equiv_pos_site_id
 _symmetry_equiv_pos_as_xyz
  1  'x, y, z'
loop_
 _atom_site_type_symbol
 _atom_site_label
 _atom_site_symmetry_multiplicity
 _atom_site_fract_x
 _atom_site_fract_y
 _atom_site_fract_z
 _atom_site_occupancy
  V  V0  1  0.72564863  0.38469830  0.63309792  1
  V  V1  1  0.62308266  0.24844762  0.87287462  1
  V  V2  1  0.37133423  0.49793040  0.37321618  1
  V  V3  1  0.50069488  0.11927366  0.63071390  1
  V  V4  1  0.13121741  0.11755945  0.49227497  1
  V  V5  1  0.63287354  0.62507442  0.50904591  1
  V  V6  1  0.63345836  -0.00915158  0.13060816  1
  V  V7  1  0.37221027  0.86356602  0.50090563  1
  V  V8  1  0.00111996  0.75379272  0.28104580  1
  V  V9  1  0.63628329  0.86187162  0.74920697  1
  V  V10  1  0.48785436  0.00188136  0.49630419  1
  V  V11  1  0.75514375  0.38462600  0.13150415  1
  V  V12  1  0.63454204  0.75331360  0.37629083  1
  V  V13  1  0.24065820  0.89693581  0.13087843  1
  V  V14  1  0.88136226  0.62356507  0.23876174  1
  V  V15  1  0.74522244  0.12821516  0.88816622  1
  V  V16  1  0.28649780  0.11340037  0.37243492  1
  V  V17  1  0.37297166  0.62089321  0.25044693  1
  V  V18  1  0.38894497  0.12209871  0.21053509  1
  V  V19  1  0.87253273  0.12977935  0.74733263  1
  V  V20  1  0.24366035  0.62965737  0.37294870  1
  V  V21  1  0.89192103  0.62827935  0.74326688  1
  V  V22  1  0.35718801  0.51041946  0.85975059  1
  V  V23  1  0.36550317  0.37792933  -0.00414634  1
  V  V24  1  0.87734823  0.37179715  0.51832835  1
  V  V25  1  0.87493861  0.77121733  0.62746818  1
  V  V26  1  0.00174664  0.24881540  0.75172111  1
  V  V27  1  0.85968017  0.49791667  0.86334041  1
  V  V28  1  -0.00039281  0.38510358  0.87575499  1
  V  V29  1  0.47084895  0.75055447  0.74279553  1
  V  V30  1  0.49401123  0.87252463  0.37587652  1
  V  V31  1  0.11872054  0.88776756  0.25969399  1
  V  V32  1  0.24857269  0.38220569  0.62317070  1
  V  V33  1  0.12946927  0.38696402  0.74235605  1
  V  V34  1  0.01163396  0.85485580  0.87681825  1
  V  V35  1  0.51224692  0.36647981  0.36599137  1
  V  V36  1  0.37499667  0.24321250  0.63178970  1
  V  V37  1  0.37731867  0.37268983  0.49817662  1
  V  V38  1  0.25555519  0.24450356  0.49810164  1
  V  V39  1  0.87007000  0.87595721  0.47263894  1
  V  V40  1  0.75311339  0.61197436  0.37312533  1
  V  V41  1  -0.00090686  0.12687539  0.62164134  1
  V  V42  1  0.50277292  0.75398500  0.25121239  1
  V  V43  1  0.50503101  0.62816861  0.11917736  1
  V  V44  1  0.73689945  0.23873315  0.50140343  1
  V  V45  1  0.75986130  0.27151444  -0.00280944  1
  V  V46  1  0.55678817  0.42702046  0.81598089  1
  V  V47  1  0.62787204  0.49978458  0.13938869  1
  V  V48  1  0.15846644  0.73500363  0.88471532  1
  V  V49  1  0.12378797  0.11930538  0.02379630  1
  V  V50  1  0.75426341  0.77060855  0.03904059  1
  V  V51  1  0.11483668  0.60471375  0.51066737  1
  V  V52  1  0.25738436  0.37929577  0.15109968  1
  V  V53  1  0.12299342  0.25170757  0.36538250  1
  V  V54  1  0.51196646  0.24897498  0.21124920  1
  V  V55  1  0.74313204  0.00254509  0.74810114  1
  V  V56  1  0.35990727  0.75027664  0.12260805  1
  V  V57  1  0.88952960  0.49143571  0.38574478  1
  V  V58  1  0.10733675  0.61446450  0.01034050  1
  V  V59  1  0.12955564  -0.00148163  0.64735990  1
  V  V60  1  0.72677648  0.64771526  0.86470388  1
  V  V61  1  0.63294228  -0.00463707  0.61450071  1
  V  V62  1  0.47809521  0.63265342  0.61871552  1
  V  V63  1  0.13416785  0.24784947  0.88251124  1
  V  V64  1  0.75243802  -0.01598123  0.26014337  1
  V  V65  1  0.87735642  -0.00197319  0.88437627  1
  V  V66  1  0.50343843  0.49989242  0.50370069  1
  V  V67  1  0.50176538  0.50017973  -0.00243747  1
  V  V68  1  0.49720382  0.86994746  0.87746206  1
  V  V69  1  0.50876868  0.01064451  0.00351253  1
  V  V70  1  0.24678273  0.87421773  0.63869655  1
  V  V71  1  0.50176521  0.24495497  0.75386795  1
  V  V72  1  0.22891747  0.75443839  0.49821393  1
  Zn  Zn73  1  0.12569430  0.49551652  0.14152825  1
  Zn  Zn74  1  -0.00069575  0.00140850  0.01696199  1
  Zn  Zn75  1  0.70703091  0.14103898  0.34362917  1
  Zn  Zn76  1  0.35615463  0.87021540  -0.01368547  1
  Zn  Zn77  1  0.25941414  0.24560557  0.01152292  1
  Zn  Zn78  1  0.87044311  0.15240778  0.22097700  1
  Zn  Zn79  1  0.25384537  0.10945095  0.85803864  1
  Zn  Zn80  1  0.00266095  -0.01428439  0.50838818  1
  Zn  Zn81  1  0.93081905  0.44416975  0.03941839  1
  Zn  Zn82  1  0.21850376  0.19448077  0.19036688  1
  Zn  Zn83  1  0.18454329  0.19307998  0.68936903  1
  Zn  Zn84  1  0.17263941  0.68572570  0.18798810  1
  Zn  Zn85  1  0.18008168  0.69462816  0.69625866  1
  Zn  Zn86  1  0.68880804  0.17626710  0.16538615  1
  Zn  Zn87  1  0.68600167  0.19050328  0.68206231  1
  Zn  Zn88  1  0.68984161  0.68932603  0.19037412  1
  Zn  Zn89  1  0.70343338  0.67881645  0.68321859  1
  Zn  Zn90  1  0.33257875  0.29274476  0.31319970  1
  Zn  Zn91  1  0.31549790  0.32371205  0.81311121  1
  Zn  Zn92  1  0.30802295  0.81553552  0.30931139  1
  Zn  Zn93  1  0.30887504  0.92935654  0.81856231  1
  Zn  Zn94  1  0.78857883  0.31577155  0.31494296  1
  Zn  Zn95  1  0.81193773  0.31604377  0.80578567  1
  Zn  Zn96  1  0.81107758  0.80980451  0.29140513  1
  Zn  Zn97  1  0.82182515  0.81133193  0.81300749  1
  Zn  Zn98  1  0.18741841  0.43418012  0.42865131  1
  Zn  Zn99  1  0.18629381  0.44649347  0.93450979  1
  Zn  Zn100  1  0.19016732  0.94341160  0.43492692  1
  Zn  Zn101  1  0.17785633  0.93201535  0.94585070  1
  Zn  Zn102  1  0.68958945  0.43425748  0.44495864  1
  Zn  Zn103  1  0.70137916  0.47117943  0.94982019  1
  Zn  Zn104  1  0.68993540  0.94183644  0.42634324  1
  Zn  Zn105  1  0.68727899  0.92522330  0.93588622  1
  Zn  Zn106  1  0.32298936  0.05661755  -0.00463663  1
  Zn  Zn107  1  0.31252522  0.06200405  0.68131262  1
  Zn  Zn108  1  0.30548235  0.55432743  0.06148477  1
  Zn  Zn109  1  0.26981407  0.59351216  0.60538248  1
  Zn  Zn110  1  0.83929141  0.02668571  0.09620330  1
  Zn  Zn111  1  0.81841712  0.05390145  0.55202770  1
  Zn  Zn112  1  0.80755306  0.58584067  0.04244764  1
  Zn  Zn113  1  0.81227178  0.55675800  0.56894620  1
  Zn  Zn114  1  0.43886743  0.43361990  0.18524024  1
  Zn  Zn115  1  0.43556453  0.43962184  0.68078042  1
  Zn  Zn116  1  0.43803261  0.93657812  0.17803072  1
  Zn  Zn117  1  0.44100274  0.92613306  0.68099018  1
  Zn  Zn118  1  0.97355417  0.45887168  0.21547876  1
  Zn  Zn119  1  0.93982577  0.44197593  0.68364303  1
  Zn  Zn120  1  0.96357094  0.97191683  0.22503011  1
  Zn  Zn121  1  0.94388226  0.93919164  0.70144311  1
  Zn  Zn122  1  0.08038040  0.10742418  0.23159953  1
  Zn  Zn123  1  0.05990235  0.06539942  0.81936398  1
  Zn  Zn124  1  0.06024806  0.56606748  0.32199376  1
  Zn  Zn125  1  0.07165092  0.57320947  0.81537537  1
  Zn  Zn126  1  0.53512889  0.05700878  0.28804267  1
  Zn  Zn127  1  0.43836847  0.05941777  0.82492807  1
  Zn  Zn128  1  0.56042592  0.56394970  0.31646709  1
  Zn  Zn129  1  0.54366812  0.59043192  0.81292194  1
  Zn  Zn130  1  0.55343817  0.18063675  0.43744619  1
  Zn  Zn131  1  0.44082060  0.19203342  0.94516000  1
  Zn  Zn132  1  0.43478597  0.68783628  0.43898025  1
  Zn  Zn133  1  0.42621423  0.69244162  0.93439847  1
  Zn  Zn134  1  0.91313525  0.24505210  0.39291861  1
  Zn  Zn135  1  0.94025050  0.18913358  0.94477405  1
  Zn  Zn136  1  0.93377980  0.69042655  0.45659113  1
  Zn  Zn137  1  0.92256148  0.67700290  0.94373554  1
  Zn  Zn138  1  0.07091241  0.34135381  0.06484668  1
  Zn  Zn139  1  0.06433242  0.31051365  0.55808644  1
  Zn  Zn140  1  0.08078609  0.82211706  0.04685026  1
  Zn  Zn141  1  0.04957873  0.81336516  0.56782365  1
  Zn  Zn142  1  0.57280252  0.32606087  0.04715999  1
  Zn  Zn143  1  0.56207542  0.31101280  0.56459978  1
  Zn  Zn144  1  0.57658398  0.80341166  0.06144525  1
  Zn  Zn145  1  0.56821505  0.81107445  0.56183253  1
  O  O146  1  0.13188139  0.13327438  0.12587187  1
  O  O147  1  0.12309630  0.11311472  0.62221960  1
  O  O148  1  0.11741194  0.61541169  0.11939750  1
  O  O149  1  0.13686837  0.62524768  0.60864302  1
  O  O150  1  0.63969546  0.09333074  0.10447008  1
  O  O151  1  0.61050275  0.10762084  0.63322436  1
  O  O152  1  0.61392288  0.61745998  0.13363767  1
  O  O153  1  0.62449370  0.62941475  0.60939981  1
  O  O154  1  0.38229420  0.37914688  0.38250965  1
  O  O155  1  0.37364015  0.39308849  0.88539635  1
  O  O156  1  0.38514816  0.86729655  0.38295572  1
  O  O157  1  0.39064566  0.86618581  0.87358333  1
  O  O158  1  0.86748160  0.39002168  0.37655178  1
  O  O159  1  0.89219766  0.38431017  0.85758440  1
  O  O160  1  0.87636447  0.86339226  0.37439780  1
  O  O161  1  0.88113299  0.89482873  0.86918949  1
  O  O162  1  0.25802904  0.01675804  0.38139723  1
  O  O163  1  0.25673340  -0.00430962  0.89503803  1
  O  O164  1  0.26387397  0.51453834  0.38377737  1
  O  O165  1  0.25688898  0.50381892  0.86608112  1
  O  O166  1  0.73045001  0.02333958  0.35927917  1
  O  O167  1  0.75082172  0.01392662  0.86681853  1
  O  O168  1  0.74812818  0.51072208  0.37275722  1
  O  O169  1  0.76404649  0.47322715  0.85163849  1
  O  O170  1  0.24959293  0.48802714  0.13738786  1
  O  O171  1  0.25875867  0.47967228  0.61117822  1
  O  O172  1  0.25105392  0.99259462  0.13619200  1
  O  O173  1  0.23722792  0.98934668  0.62619323  1
  O  O174  1  0.73311283  0.50209951  0.11362009  1
  O  O175  1  0.74280158  0.48495338  0.62238497  1
  O  O176  1  0.74517443  0.98621234  0.14557257  1
  O  O177  1  0.73803064  1.00834582  0.62817756  1
  O  O178  1  -0.01738119  0.30421213  0.21694758  1
  O  O179  1  0.01125426  0.36556251  0.75238465  1
  O  O180  1  0.00639080  0.86295206  0.25459037  1
  O  O181  1  0.00881608  0.89219291  0.78155960  1
  O  O182  1  0.49331509  0.36184142  0.25893103  1
  O  O183  1  0.50040380  0.36643911  0.75102285  1
  O  O184  1  0.49104506  0.86175726  0.26044693  1
  O  O185  1  0.50884868  0.86026351  0.75003840  1
  O  O186  1  0.50044342  0.14053219  0.20377370  1
  O  O187  1  0.48916200  0.13322879  0.74279593  1
  O  O188  1  0.49101809  0.63343021  0.24517709  1
  O  O189  1  0.48730409  0.63765660  0.72780380  1
  O  O190  1  0.96995324  0.09097155  0.24675491  1
  O  O191  1  0.99399032  0.13004555  0.74502525  1
  O  O192  1  0.98920783  0.63952213  0.26126650  1
  O  O193  1  0.99138365  0.62656929  0.75497578  1
  O  O194  1  0.37649769  0.27385479  -0.00951737  1
  O  O195  1  0.36926154  0.25945892  0.51074802  1
  O  O196  1  0.38023877  0.75544558  0.02065760  1
  O  O197  1  0.36675002  0.75938006  0.50013573  1
  O  O198  1  0.85900525  0.25927069  -0.01351471  1
  O  O199  1  0.85798246  0.26729484  0.49118232  1
  O  O200  1  0.83352961  0.70176066  0.01524433  1
  O  O201  1  0.87350099  0.77020282  0.51084689  1
  O  O202  1  0.13807588  0.24121603  0.49409869  1
  O  O203  1  0.12549326  0.25482070  0.98872359  1
  O  O204  1  0.12939685  0.75222863  0.49584672  1
  O  O205  1  0.12234861  0.73037619  0.99604163  1
  O  O206  1  0.62753543  0.24030498  0.50336317  1
  O  O207  1  0.63546373  0.25992945  0.97875468  1
  O  O208  1  0.61771320  0.73406797  0.48680592  1
  O  O209  1  0.66038190  0.73550165  1.01998666  1
  O  O210  1  0.49890334  0.27267379  0.11547278  1
  O  O211  1  0.49481455  0.23966536  0.63183536  1
  O  O212  1  0.49800410  0.74444431  0.13441457  1
  O  O213  1  0.50055896  0.74081232  0.62709689  1
  O  O214  1  1.00090670  0.26732141  0.15536181  1
  O  O215  1  1.01393690  0.23377395  0.63746660  1
  O  O216  1  0.96382459  0.78192882  0.10269635  1
  O  O217  1  0.97742937  0.74580076  0.62255618  1
  O  O218  1  0.02505474  0.25217068  0.38184717  1
  O  O219  1  0.00939906  0.25473100  0.86540778  1
  O  O220  1  0.00208496  0.74929677  0.37859512  1
  O  O221  1  -0.02179898  0.76030587  0.88326309  1
  O  O222  1  0.50020633  0.26879400  0.38433216  1
  O  O223  1  0.51004479  0.24394461  0.86593735  1
  O  O224  1  0.50409059  0.75233740  0.36925491  1
  O  O225  1  0.48973103  0.74883502  0.84979917  1
  O  O226  1  0.24110427  0.13031142  0.49557450  1
  O  O227  1  0.23062846  0.13247763  0.99619949  1
  O  O228  1  0.24214830  0.64128696  0.49559555  1
  O  O229  1  0.22961939  0.62032198  1.01232490  1
  O  O230  1  0.75782682  0.13963905  0.50801279  1
  O  O231  1  0.74973612  0.14359134  0.98542671  1
  O  O232  1  0.73715290  0.61783137  0.49180150  1
  O  O233  1  0.73147546  0.58757973  0.95282110  1
  O  O234  1  0.26017659  0.37942951  -0.00186647  1
  O  O235  1  0.25790899  0.36327713  0.50098662  1
  O  O236  1  0.24702997  0.87703605  0.02494339  1
  O  O237  1  0.25325913  0.86456087  0.49405091  1
  O  O238  1  0.74632548  0.37487592  -0.00160047  1
  O  O239  1  0.74945967  0.36646560  0.51168338  1
  O  O240  1  0.76082698  0.86512267  -0.00105815  1
  O  O241  1  0.76847942  0.88877897  0.48930112  1
  O  O242  1  0.08090883  0.48553134  0.24899964  1
  O  O243  1  0.12174787  0.48520849  0.75051991  1
  O  O244  1  0.10320254  0.98813132  0.24579475  1
  O  O245  1  0.12804523  1.00561067  0.74609336  1
  O  O246  1  0.62029648  0.50248850  0.23887563  1
  O  O247  1  0.60323886  0.49468710  0.76141986  1
  O  O248  1  0.62145020  0.99831040  0.23412053  1
  O  O249  1  0.63736313  0.98983204  0.73756366  1
  O  O250  1  0.41822139  0.02659820  0.24835070  1
  O  O251  1  0.37841390  -0.00596515  0.74857512  1
  O  O252  1  0.38542741  0.51218655  0.25973894  1
  O  O253  1  0.38058316  0.49375796  0.76184720  1
  O  O254  1  0.85243414  -0.01959337  0.26059113  1
  O  O255  1  0.86439369  0.01238352  0.75817661  1
  O  O256  1  0.88780733  0.51627286  0.27118554  1
  O  O257  1  0.88551294  0.50930732  0.75791755  1
  O  O258  1  0.14897933  0.34959993  0.36494916  1
  O  O259  1  0.11797806  0.36870039  0.86258989  1
  O  O260  1  0.13102806  0.88085517  0.35933345  1
  O  O261  1  0.12229303  0.84695013  0.88723272  1
  O  O262  1  0.60974269  0.38638627  0.37512271  1
  O  O263  1  0.62371962  0.37042360  0.86767996  1
  O  O264  1  0.61250387  0.85692453  0.38841038  1
  O  O265  1  0.61521469  0.87175530  0.85375194  1
  O  O266  1  0.36200058  0.11708221  0.11656212  1
  O  O267  1  0.38470502  0.13506771  0.62133548  1
  O  O268  1  0.38258375  0.63262025  0.13380895  1
  O  O269  1  0.38210600  0.63232255  0.60216513  1
  O  O270  1  0.87411565  0.13373467  0.10994768  1
  O  O271  1  0.89310638  0.11523676  0.63200401  1
  O  O272  1  0.87383541  0.60749276  0.14248921  1
  O  O273  1  0.87561924  0.61532925  0.64178480  1
  O  O274  1  0.26602304  0.27006960  0.12357033  1
  O  O275  1  0.25742819  0.25513737  0.61565749  1
  O  O276  1  0.26162694  0.73724974  0.13108057  1
  O  O277  1  0.23453165  0.76747060  0.61008214  1
  O  O278  1  0.74117627  0.26990138  0.10452703  1
  O  O279  1  0.74034584  0.26081130  0.61011664  1
  O  O280  1  0.75695978  0.76772981  0.14382632  1
  O  O281  1  0.77472855  0.74037319  0.62207123  1
  O  O282  1  0.25526282  0.23042221  0.38352792  1
  O  O283  1  0.23671015  0.25908152  0.87505155  1
  O  O284  1  0.25506398  0.73884958  0.38657100  1
  O  O285  1  0.25441253  0.74589216  0.88806459  1
  O  O286  1  0.73656359  0.24612812  0.39079282  1
  O  O287  1  0.74530595  0.24726286  0.87587768  1
  O  O288  1  0.73596546  0.74218042  0.37173113  1
  O  O289  1  0.75674354  0.74455389  0.87957836  1
  O  O290  1  0.02039157  0.13313254  0.00401141  1
  O  O291  1  0.01561469  0.12763533  0.51899419  1
  O  O292  1  0.00600938  0.61996045  -0.00156342  1
  O  O293  1  0.01759798  0.62455268  0.49516812  1
  O  O294  1  0.50469533  0.11006081  -0.00460332  1
  O  O295  1  0.49901476  0.10703810  0.51209391  1
  O  O296  1  0.48949553  0.61734262  0.01252068  1
  O  O297  1  0.50707344  0.62131603  0.50514364  1
  O  O298  1  0.49498155  0.38176508  0.49493073  1
  O  O299  1  0.48750564  0.39504466  1.00205332  1
  O  O300  1  0.49119522  0.87612238  0.49810556  1
  O  O301  1  0.51184228  0.84621412  0.97447375  1
  O  O302  1  0.97854635  0.36574569  0.51045335  1
  O  O303  1  0.99720325  0.36351017  0.97655255  1
  O  O304  1  0.98676872  0.87491118  0.49665321  1
  O  O305  1  1.01126662  0.88987938  0.97930440  1
  O  O306  1  0.48995056  0.49461711  0.38221559  1
  O  O307  1  0.50332033  0.49937535  0.88233106  1
  O  O308  1  0.50916572  0.98303360  0.39152322  1
  O  O309  1  0.50144794  0.97826113  0.88549156  1
  O  O310  1  0.98765539  0.49947530  0.39075882  1
  O  O311  1  1.00543518  0.48585307  0.87061538  1
  O  O312  1  0.95421995  1.07572986  0.36826305  1
  O  O313  1  0.98068428  1.01861710  0.88692005  1
  O  O314  1  -0.05601931  -0.02187254  0.11261382  1
  O  O315  1  0.01464996  0.00994529  0.63274304  1
  O  O316  1  0.01429395  0.44129479  0.11238230  1
  O  O317  1  0.01937349  0.48618221  0.62052637  1
  O  O318  1  0.51461841  -0.01001248  0.10991018  1
  O  O319  1  0.50574921  0.00022147  0.61520879  1
  O  O320  1  0.50612813  0.50805315  0.11832626  1
  O  O321  1  0.49194447  0.51645022  0.61218181  1
  O  O322  1  0.27641500  0.37029910  0.24946759  1
  O  O323  1  0.23708785  0.36995614  0.73900101  1
  O  O324  1  0.23156821  0.86667146  0.24214599  1
  O  O325  1  0.24958751  0.86858884  0.73639024  1
  O  O326  1  0.74620170  0.37581581  0.23024189  1
  O  O327  1  0.74423774  0.36130234  0.73040383  1
  O  O328  1  0.72970442  0.88520668  0.27672668  1
  O  O329  1  0.74220029  0.88527219  0.75836718  1
  O  O330  1  0.28555346  0.12689893  0.26214308  1
  O  O331  1  0.25777219  0.13377605  0.74807132  1
  O  O332  1  0.25613818  0.63349704  0.26675538  1
  O  O333  1  0.26512541  0.62285431  0.71411973  1
  O  O334  1  0.75772998  0.12297377  0.24128687  1
  O  O335  1  0.75744255  0.12203588  0.74816368  1
  O  O336  1  0.76809431  0.63101522  0.26595971  1
  O  O337  1  0.75673227  0.62202661  0.76516817  1
  O  O338  1  0.38091337  0.11906538  0.39038816  1
  O  O339  1  0.36827937  0.11711787  0.89671992  1
  O  O340  1  0.36949442  0.61883711  0.37002683  1
  O  O341  1  0.38335014  0.60857496  0.87389210  1
  O  O342  1  0.89473167  0.11224224  0.39270586  1
  O  O343  1  0.86238304  0.12420682  0.86577222  1
  O  O344  1  0.86065634  0.61532317  0.39182072  1
  O  O345  1  0.86803620  0.61130272  0.85994036  1
  O  O346  1  0.15305586  0.36998237  0.13642539  1
  O  O347  1  0.13327486  0.36562078  0.63462177  1
  O  O348  1  0.13369854  0.87376320  0.13451490  1
  O  O349  1  0.13061400  0.89061359  0.62206079  1
  O  O350  1  0.63114888  0.39508983  0.11939511  1
  O  O351  1  0.62339854  0.38169619  0.62549121  1
  O  O352  1  0.62639691  0.88576215  0.11829844  1
  O  O353  1  0.61909228  0.88771039  0.63498647  1
  O  O354  1  0.13184443  0.21085150  0.26755129  1
  O  O355  1  0.11765595  0.25664655  0.76099600  1
  O  O356  1  0.10264403  0.75273390  0.24826274  1
  O  O357  1  0.12783463  0.73161421  0.78462757  1
  O  O358  1  0.61190493  0.24619619  0.22656107  1
  O  O359  1  0.61108187  0.24590063  0.75522816  1
  O  O360  1  0.61355258  0.74009141  0.26693234  1
  O  O361  1  0.63566331  0.76377947  0.73151658  1
  O  O362  1  0.40153898  0.22920838  0.24879547  1
  O  O363  1  0.38496001  0.26266553  0.73852418  1
  O  O364  1  0.38173708  0.73936962  0.24457086  1
  O  O365  1  0.37698047  0.76073990  0.73449331  1
  O  O366  1  0.87584686  0.24607284  0.28570330  1
  O  O367  1  0.88712385  0.23882570  0.75422545  1
  O  O368  1  0.88985197  0.73766864  0.25293607  1
  O  O369  1  0.87496937  0.73806229  0.74137721  1
  O  O370  1  0.38522076  0.48591010  0.49019860  1
  O  O371  1  0.38202553  0.49892924  0.98820513  1
  O  O372  1  0.38933463  0.98562580  0.50070622  1
  O  O373  1  0.40284318  0.97562458  1.00996029  1
  O  O374  1  0.86434958  0.48480618  0.49306020  1
  O  O375  1  0.86929819  0.50668960  0.97244707  1
  O  O376  1  0.88803358  0.98667391  0.49712001  1
  O  O377  1  0.85522945  1.00840066  0.98055329  1
  O  O378  1  0.12073209  0.01673746  0.00800245  1
  O  O379  1  0.12020449  0.00991707  0.50413592  1
  O  O380  1  0.12420955  0.50717212  0.00630215  1
  O  O381  1  0.13094183  0.50588161  0.49519737  1
  O  O382  1  0.61177291  -0.01436104  -0.00362481  1
  O  O383  1  0.61884818  -0.01050910  0.51288001  1
  O  O384  1  0.60436554  0.50133013  0.00567851  1
  O  O385  1  0.61236674  0.51473287  0.49085992  1
  O  O386  1  0.36639567  0.39154148  0.10710685  1
  O  O387  1  0.37132690  0.36607886  0.61561881  1
  O  O388  1  0.35751397  0.85935300  0.14129587  1
  O  O389  1  0.35403245  0.88149849  0.61357230  1
  O  O390  1  0.85376806  0.39649904  0.11763375  1
  O  O391  1  0.86353150  0.37686702  0.61958720  1
  O  O392  1  0.91138176  0.83343486  0.10369642  1
  O  O393  1  0.87407072  0.87291955  0.64011424  1
  O  O394  1  0.12297293  0.12523702  0.39331549  1
  O  O395  1  0.12813253  0.14136569  0.87579877  1
  O  O396  1  0.14108750  0.61999936  0.38492176  1
  O  O397  1  0.13219916  0.62494810  0.89550428  1
  O  O398  1  0.59613411  0.12295931  0.35525137  1
  O  O399  1  0.64263382  0.13861337  0.86806736  1
  O  O400  1  0.63529601  0.63040651  0.37992847  1
  O  O401  1  0.62608915  0.65163919  0.85490253  1
