# generated using pymatgen
data_V73Zn73O256
_symmetry_space_group_name_H-M   'P 1'
_cell_length_a   16.84899658
_cell_length_b   16.84299382
_cell_length_c   16.84342813
_cell_angle_alpha   89.99210912
_cell_angle_beta   89.92888337
_cell_angle_gamma   90.01843568
_symmetry_Int_Tables_number   1
_chemical_formula_structural   V73Zn73O256
_chemical_formula_sum   'V73 Zn73 O256'
_cell_volume   4779.95114618
_cell_formula_units_Z   1
loop_
 _symmetry_equiv_pos_site_id
 _symmetry_equiv_pos_as_xyz
  1  'x, y, z'
loop_
 _atom_site_type_symbol
 _atom_site_label
 _atom_site_symmetry_multiplicity
 _atom_site_fract_x
 _atom_site_fract_y
 _atom_site_fract_z
 _atom_site_occupancy
  V  V0  1  0.87067629  0.01006089  0.86312864  1
  V  V1  1  0.12704104  0.49749889  0.63449317  1
  V  V2  1  0.62824867  0.51653294  0.12906859  1
  V  V3  1  0.50125059  0.87443123  0.37627531  1
  V  V4  1  0.62908355  0.25398919  0.36802422  1
  V  V5  1  0.50036607  0.88933014  0.88471017  1
  V  V6  1  0.25472185  0.74920600  0.49206651  1
  V  V7  1  0.47773111  0.22650005  0.74096687  1
  V  V8  1  0.00041605  0.27842800  0.75003318  1
  V  V9  1  0.62124616  0.00448697  0.10837807  1
  V  V10  1  0.50424570  0.00371562  0.51488729  1
  V  V11  1  0.50186134  0.62417803  0.62528547  1
  V  V12  1  0.09966826  0.25217742  0.37420352  1
  V  V13  1  0.13780416  0.74411589  0.86172130  1
  V  V14  1  0.11225685  0.37112334  0.25373663  1
  V  V15  1  0.49986198  0.23620015  0.25217860  1
  V  V16  1  0.63681617  0.63918809  0.48488672  1
  V  V17  1  0.50644548  0.49651817  -0.00226630  1
  V  V18  1  0.75518589  0.73645115  0.00601157  1
  V  V19  1  -0.00318451  0.62730784  0.12647079  1
  V  V20  1  0.63083188  0.88561622  0.25326505  1
  V  V21  1  0.11203168  0.24324495  0.87481767  1
  V  V22  1  0.63067955  0.50102532  0.63215998  1
  V  V23  1  0.25167126  0.61854361  0.37805633  1
  V  V24  1  0.87995881  0.36659823  0.00352933  1
  V  V25  1  0.75940378  0.11318752  0.36103637  1
  V  V26  1  0.24823853  0.23200245  -0.00181822  1
  V  V27  1  0.12725648  0.49724262  0.13221484  1
  V  V28  1  0.11740064  0.87566752  0.73583104  1
  V  V29  1  0.62329141  0.73348886  0.88848797  1
  V  V30  1  0.37473948  0.47471565  0.88647808  1
  V  V31  1  0.74353325  0.88228420  0.63568504  1
  V  V32  1  0.37071767  0.36504539  0.50628531  1
  V  V33  1  0.74952535  0.25143648  0.49931911  1
  V  V34  1  0.25839288  0.37717988  0.12885486  1
  V  V35  1  0.74888937  0.38104224  0.63305898  1
  V  V36  1  0.86422244  0.85124565  0.50527836  1
  V  V37  1  0.87412150  0.25008762  0.63431303  1
  V  V38  1  0.88388075  0.37473328  0.49578677  1
  V  V39  1  0.00392163  0.49509887  0.50172237  1
  V  V40  1  0.86168319  0.50735962  0.87031957  1
  V  V41  1  0.37743747  0.87943444  0.50137444  1
  V  V42  1  0.73774532  0.24211470  -0.00764952  1
  V  V43  1  0.49883293  0.75509465  0.24225155  1
  V  V44  1  0.37687023  0.24469845  0.12705747  1
  V  V45  1  0.12222299  0.11844295  0.50016249  1
  V  V46  1  0.61651109  0.37014448  0.77094973  1
  V  V47  1  0.50692596  0.37489300  0.36668213  1
  V  V48  1  0.37753013  0.74858439  0.62555598  1
  V  V49  1  0.25770289  0.13916384  0.37438984  1
  V  V50  1  0.13748925  0.62718625  -0.01370245  1
  V  V51  1  -0.00446228  0.86212081  0.88197023  1
  V  V52  1  -0.00410204  0.11334793  0.63509450  1
  V  V53  1  0.50412032  0.50172607  0.50006778  1
  V  V54  1  0.00465396  0.02203191  -0.00492961  1
  V  V55  1  0.37729803  0.50015849  0.37084671  1
  V  V56  1  0.75449483  0.88085217  0.11746174  1
  V  V57  1  0.24181645  -0.00607896  0.24948628  1
  V  V58  1  0.24746764  0.87843932  0.62546351  1
  V  V59  1  0.75132288  0.50618802  0.25707546  1
  V  V60  1  0.37122074  0.62882134  0.24462470  1
  V  V61  1  0.88082472  0.51134851  0.37189801  1
  V  V62  1  0.62657938  0.11816794  0.50812758  1
  V  V63  1  0.50613709  0.75322184  0.75520402  1
  V  V64  1  -0.02075738  0.00096582  0.48052671  1
  V  V65  1  0.50152915  0.12301590  0.10131406  1
  V  V66  1  0.37332118  0.61867659  0.76775551  1
  V  V67  1  0.36359784  0.86597873  0.00264409  1
  V  V68  1  0.00494344  0.49514289  -0.01348452  1
  V  V69  1  0.35865145  0.01326890  0.87580505  1
  V  V70  1  0.11888255  0.62983001  0.50582868  1
  V  V71  1  0.74584963  0.36877022  0.13130840  1
  V  V72  1  0.38063730  0.00664935  0.36727776  1
  Zn  Zn73  1  0.50305607  0.63568581  0.12167061  1
  Zn  Zn74  1  0.62481108  0.90249537  0.75020201  1
  Zn  Zn75  1  0.23321341  0.49579507  0.76640050  1
  Zn  Zn76  1  0.24858592  0.01114743  0.74622366  1
  Zn  Zn77  1  0.06753063  0.80426730  0.31775143  1
  Zn  Zn78  1  0.25145949  0.36582034  0.63164940  1
  Zn  Zn79  1  0.88598245  0.75612323  0.12494365  1
  Zn  Zn80  1  0.13095532  -0.00253386  0.10554326  1
  Zn  Zn81  1  0.24653190  0.84952686  0.11587967  1
  Zn  Zn82  1  0.19196370  0.18862677  0.19622359  1
  Zn  Zn83  1  0.17787274  0.19571893  0.68309923  1
  Zn  Zn84  1  0.17171492  0.68704302  0.17630048  1
  Zn  Zn85  1  0.19308746  0.68452569  0.68613634  1
  Zn  Zn86  1  0.68689446  0.18489213  0.18206483  1
  Zn  Zn87  1  0.64759487  0.21332482  0.67188989  1
  Zn  Zn88  1  0.70322925  0.70209376  0.21455130  1
  Zn  Zn89  1  0.68213324  0.70358984  0.67633985  1
  Zn  Zn90  1  0.31579421  0.31849507  0.30860547  1
  Zn  Zn91  1  0.29655061  0.30770651  0.81492129  1
  Zn  Zn92  1  0.26746592  0.78237614  0.26991835  1
  Zn  Zn93  1  0.31567024  0.81483477  0.81161194  1
  Zn  Zn94  1  0.81646099  0.31812573  0.31402074  1
  Zn  Zn95  1  0.80988360  0.32104760  0.81808244  1
  Zn  Zn96  1  0.82415109  0.81518870  0.31374050  1
  Zn  Zn97  1  0.79898869  0.82280619  0.82356626  1
  Zn  Zn98  1  0.18678470  0.43678815  0.43635534  1
  Zn  Zn99  1  0.19257750  0.42315110  0.93942949  1
  Zn  Zn100  1  0.18894472  0.94001466  0.42562627  1
  Zn  Zn101  1  0.18389158  0.93522883  0.93120014  1
  Zn  Zn102  1  0.69026455  0.44112360  0.44153360  1
  Zn  Zn103  1  0.69433840  0.44408000  0.94878482  1
  Zn  Zn104  1  0.69708500  0.93557069  0.43944932  1
  Zn  Zn105  1  0.68675802  0.93306835  0.93636417  1
  Zn  Zn106  1  0.32042149  0.05303404  0.06304282  1
  Zn  Zn107  1  0.30962642  0.06505570  0.55977424  1
  Zn  Zn108  1  0.31531601  0.56240505  0.05860212  1
  Zn  Zn109  1  0.31388491  0.55565841  0.56614009  1
  Zn  Zn110  1  0.81293975  0.04979824  0.04344398  1
  Zn  Zn111  1  0.80774435  0.06431189  0.56961174  1
  Zn  Zn112  1  0.81708758  0.55845568  0.06408281  1
  Zn  Zn113  1  0.81398914  0.56906520  0.55865181  1
  Zn  Zn114  1  0.44280634  0.43707511  0.18574072  1
  Zn  Zn115  1  0.40506202  0.39815464  0.72003267  1
  Zn  Zn116  1  0.43422413  0.94182829  0.18377638  1
  Zn  Zn117  1  0.43339022  0.94089151  0.69518450  1
  Zn  Zn118  1  0.93816869  0.44268225  0.18288417  1
  Zn  Zn119  1  0.93080225  0.45565426  0.68125560  1
  Zn  Zn120  1  0.95159474  0.93370492  0.17154471  1
  Zn  Zn121  1  0.93322885  0.93066712  0.68363916  1
  Zn  Zn122  1  0.06538509  0.06084464  0.31161950  1
  Zn  Zn123  1  0.06869592  0.05732474  0.81769644  1
  Zn  Zn124  1  0.04318653  0.61170630  0.33377410  1
  Zn  Zn125  1  0.03473776  0.57441543  0.80458656  1
  Zn  Zn126  1  0.57305332  0.06162327  0.31846544  1
  Zn  Zn127  1  0.52686679  0.09786830  0.83189989  1
  Zn  Zn128  1  0.56530703  0.56505764  0.30809366  1
  Zn  Zn129  1  0.56045267  0.55665507  0.81323699  1
  Zn  Zn130  1  0.44296412  0.18797886  0.44332907  1
  Zn  Zn131  1  0.43045560  0.20820839  0.93143305  1
  Zn  Zn132  1  0.44217280  0.68996965  0.43480349  1
  Zn  Zn133  1  0.44207889  0.68631386  0.94743780  1
  Zn  Zn134  1  0.93297756  0.18460201  0.44064396  1
  Zn  Zn135  1  0.92511043  0.18699715  0.92920742  1
  Zn  Zn136  1  0.92630188  0.69780156  0.43164133  1
  Zn  Zn137  1  0.94058447  0.68560193  0.93842914  1
  Zn  Zn138  1  0.08445054  0.32377741  0.04442300  1
  Zn  Zn139  1  0.08490395  0.30292255  0.57410698  1
  Zn  Zn140  1  0.07369212  0.81285296  0.05925673  1
  Zn  Zn141  1  0.07494797  0.83503082  0.50833721  1
  Zn  Zn142  1  0.56781009  0.31614258  0.06481090  1
  Zn  Zn143  1  0.55564580  0.31685428  0.56317266  1
  Zn  Zn144  1  0.56134750  0.81681447  0.06275076  1
  Zn  Zn145  1  0.56983260  0.81684777  0.56448772  1
  O  O146  1  0.10125156  0.11977839  0.15830085  1
  O  O147  1  0.10747680  0.12895219  0.60774143  1
  O  O148  1  0.12349316  0.61340886  0.10479714  1
  O  O149  1  0.13497591  0.61646106  0.61042712  1
  O  O150  1  0.61426632  0.11433850  0.12547482  1
  O  O151  1  0.64376705  0.12195313  0.60702813  1
  O  O152  1  0.63063195  0.61819289  0.14130307  1
  O  O153  1  0.61756447  0.62078428  0.62385743  1
  O  O154  1  0.38590012  0.38184742  0.38124415  1
  O  O155  1  0.38341818  0.37655554  0.87976823  1
  O  O156  1  0.38727626  0.89165292  0.38568020  1
  O  O157  1  0.38506527  0.87723498  0.88154160  1
  O  O158  1  0.87643400  0.38085504  0.39025617  1
  O  O159  1  0.86763178  0.38849212  0.89847921  1
  O  O160  1  0.86866429  0.86688476  0.40241898  1
  O  O161  1  0.89428451  0.86745769  0.86558892  1
  O  O162  1  0.26193002  0.00798356  0.36935670  1
  O  O163  1  0.25377552  0.00539159  0.87006687  1
  O  O164  1  0.26648373  0.50567380  0.38205783  1
  O  O165  1  0.26886350  0.48884595  0.88068161  1
  O  O166  1  0.74949821  0.01357509  0.37350469  1
  O  O167  1  0.77365340  -0.01820259  0.88636350  1
  O  O168  1  0.76138654  0.49019204  0.36455967  1
  O  O169  1  0.76394366  0.51752381  0.89308012  1
  O  O170  1  0.24423182  0.48259584  0.11422046  1
  O  O171  1  0.23561949  0.49431141  0.62420557  1
  O  O172  1  0.24358273  1.02012400  0.14490317  1
  O  O173  1  0.25265300  0.98172948  0.62128394  1
  O  O174  1  0.74347129  0.49486515  0.13182392  1
  O  O175  1  0.74191638  0.49237603  0.61580616  1
  O  O176  1  0.73518761  0.99119407  0.11442065  1
  O  O177  1  0.75100275  0.98647175  0.62382286  1
  O  O178  1  0.01294290  0.37716967  0.24465127  1
  O  O179  1  -0.00052303  0.37606782  0.74678363  1
  O  O180  1  -0.02186296  0.84784393  0.24320156  1
  O  O181  1  0.01451700  0.87354083  0.75004009  1
  O  O182  1  0.49840714  0.36554023  0.26207979  1
  O  O183  1  0.51511948  0.37208314  0.75457135  1
  O  O184  1  0.49909271  0.87171372  0.25516793  1
  O  O185  1  0.49952178  0.86599696  0.76088654  1
  O  O186  1  0.50424659  0.13468554  0.25437195  1
  O  O187  1  0.47134496  0.12639101  0.72972999  1
  O  O188  1  0.49615878  0.64125043  0.25133385  1
  O  O189  1  0.49344372  0.63117604  0.74495320  1
  O  O190  1  1.04066544  0.12068863  0.21104572  1
  O  O191  1  1.00666358  0.11857123  0.73468933  1
  O  O192  1  1.01931536  0.61889889  0.22373037  1
  O  O193  1  0.98468394  0.64874251  0.71933927  1
  O  O194  1  0.36559531  0.24981445  0.01703443  1
  O  O195  1  0.38488556  0.26503539  0.50253556  1
  O  O196  1  0.38014060  0.76569717  -0.00076757  1
  O  O197  1  0.37415111  0.75713581  0.50569087  1
  O  O198  1  0.88040411  0.26460730  0.00404659  1
  O  O199  1  0.86952599  0.25724414  0.51068692  1
  O  O200  1  0.85982713  0.74507618  0.00020020  1
  O  O201  1  0.87841584  0.75087750  0.51639539  1
  O  O202  1  0.10732219  0.23705561  0.48039856  1
  O  O203  1  0.13004817  0.23819406  0.98694039  1
  O  O204  1  0.13731273  0.73531639  0.50794499  1
  O  O205  1  0.12865327  0.73195876  0.98565476  1
  O  O206  1  0.63232600  0.24263150  0.49396879  1
  O  O207  1  0.63697072  0.25248882  1.00015138  1
  O  O208  1  0.61636304  0.73774474  0.49833362  1
  O  O209  1  0.62328755  0.74689485  0.99405130  1
  O  O210  1  0.50027075  0.23916630  0.13075717  1
  O  O211  1  0.53085571  0.24623707  0.64771717  1
  O  O212  1  0.49442570  0.75538089  0.13732797  1
  O  O213  1  0.49888753  0.74363439  0.63466301  1
  O  O214  1  0.91783390  0.24684400  0.18184587  1
  O  O215  1  0.99325466  0.24864255  0.63822480  1
  O  O216  1  1.00382267  0.73162967  0.10356846  1
  O  O217  1  0.93683266  0.64609655  0.65727476  1
  O  O218  1  0.00096735  0.24648624  0.36580284  1
  O  O219  1  0.00337087  0.25137751  0.86320837  1
  O  O220  1  0.01137213  0.71661340  0.36640704  1
  O  O221  1  0.01031282  0.75610025  0.87515624  1
  O  O222  1  0.50831490  0.25506137  0.37055780  1
  O  O223  1  0.50537431  0.21997738  0.84716874  1
  O  O224  1  0.49571681  0.76811918  0.36666153  1
  O  O225  1  0.50927590  0.75641887  0.87400275  1
  O  O226  1  0.23103140  0.11850971  0.48733210  1
  O  O227  1  0.24761216  0.13401606  1.01854361  1
  O  O228  1  0.25321276  0.63098419  0.49604214  1
  O  O229  1  0.23607435  0.61256047  0.99285595  1
  O  O230  1  0.74517523  0.13601193  0.49076974  1
  O  O231  1  0.76150832  0.14581615  1.01814532  1
  O  O232  1  0.73621748  0.62804768  0.50448472  1
  O  O233  1  0.74584635  0.63748455  1.01524666  1
  O  O234  1  0.23652139  0.35141827  0.02273883  1
  O  O235  1  0.26904824  0.38036975  0.49560326  1
  O  O236  1  0.25919249  0.86999459  -0.00783589  1
  O  O237  1  0.25673789  0.86716250  0.50426229  1
  O  O238  1  0.75943053  0.36625097  0.01181788  1
  O  O239  1  0.75753194  0.36711551  0.50763231  1
  O  O240  1  0.73609574  0.86134966  0.01582790  1
  O  O241  1  0.75657430  0.87233141  0.51088661  1
  O  O242  1  0.12841785  0.48656141  0.23616989  1
  O  O243  1  0.11928052  0.52219140  0.73834003  1
  O  O244  1  0.14131852  0.98741801  0.26454425  1
  O  O245  1  0.13282084  0.97979528  0.75265586  1
  O  O246  1  0.64117479  0.49888027  0.24560680  1
  O  O247  1  0.62162458  0.49299175  0.73783570  1
  O  O248  1  0.61630369  0.98989357  0.23766518  1
  O  O249  1  0.61533105  1.02446417  0.75144034  1
  O  O250  1  0.37780202  0.00861914  0.26387030  1
  O  O251  1  0.36565327  -0.00846873  0.76836444  1
  O  O252  1  0.39146002  0.51178505  0.26350947  1
  O  O253  1  0.39220100  0.51047245  0.77507297  1
  O  O254  1  0.88833010  0.03800671  0.21664322  1
  O  O255  1  0.88148972  -0.00783556  0.76358163  1
  O  O256  1  0.87410592  0.49413013  0.26585531  1
  O  O257  1  0.86912985  0.47751382  0.77355357  1
  O  O258  1  0.12604989  0.36466365  0.36631127  1
  O  O259  1  0.15121059  0.34107320  0.86855350  1
  O  O260  1  0.11148676  0.86538463  0.40399730  1
  O  O261  1  0.11935117  0.85920295  0.86091618  1
  O  O262  1  0.61763166  0.36592792  0.38547104  1
  O  O263  1  0.63204202  0.39444975  0.86714232  1
  O  O264  1  0.61800713  0.88768985  0.36095077  1
  O  O265  1  0.60977780  0.87478239  0.87112156  1
  O  O266  1  0.39390722  0.12931026  0.12163329  1
  O  O267  1  0.32393385  0.13728217  0.65024217  1
  O  O268  1  0.37697984  0.61148196  0.14309893  1
  O  O269  1  0.38881860  0.62578139  0.62952301  1
  O  O270  1  0.87318840  0.08632526  0.16084471  1
  O  O271  1  0.88485653  0.14038910  0.62187055  1
  O  O272  1  0.89280681  0.62362837  0.12297743  1
  O  O273  1  0.88064187  0.58511668  0.65604323  1
  O  O274  1  0.25884317  0.25083962  0.12580359  1
  O  O275  1  0.19751147  0.27192795  0.60428333  1
  O  O276  1  0.26590605  0.74444915  0.15157086  1
  O  O277  1  0.25927614  0.75369719  0.61367436  1
  O  O278  1  0.74634046  0.26459148  0.12280548  1
  O  O279  1  0.75394464  0.25770041  0.61791601  1
  O  O280  1  0.75400112  0.76087940  0.12148511  1
  O  O281  1  0.74932290  0.77300503  0.62468260  1
  O  O282  1  0.25323875  0.24044133  0.37191597  1
  O  O283  1  0.26594501  0.23672704  0.89728634  1
  O  O284  1  0.26259254  0.73777581  0.38771637  1
  O  O285  1  0.23724405  0.74819454  0.86800675  1
  O  O286  1  0.74517071  0.25478393  0.38321657  1
  O  O287  1  0.76081715  0.25143084  0.89396642  1
  O  O288  1  0.74952039  0.73497116  0.31389067  1
  O  O289  1  0.73293872  0.75624199  0.89425688  1
  O  O290  1  -0.00013776  0.12258980  -0.00786272  1
  O  O291  1  0.00223459  0.11692538  0.50351923  1
  O  O292  1  0.01349749  0.60787616  0.00143690  1
  O  O293  1  0.01682418  0.61886354  0.50025857  1
  O  O294  1  0.50322706  0.13407469  0.00375955  1
  O  O295  1  0.51793498  0.12035439  0.49867314  1
  O  O296  1  0.49314790  0.60792173  0.01206778  1
  O  O297  1  0.50745858  0.62002638  0.50618842  1
  O  O298  1  0.49523714  0.38388728  0.49018392  1
  O  O299  1  0.50080814  0.39629932  1.01893911  1
  O  O300  1  0.49948959  0.88397830  0.49448965  1
  O  O301  1  0.49326713  0.87679147  0.98806687  1
  O  O302  1  0.99413889  0.38225222  0.50824796  1
  O  O303  1  0.99239822  0.38347509  1.01075020  1
  O  O304  1  0.97800362  0.89446477  0.51193144  1
  O  O305  1  1.00627383  0.87252026  0.98279737  1
  O  O306  1  0.50045892  0.49385847  0.38064507  1
  O  O307  1  0.49639508  0.50004818  0.89211654  1
  O  O308  1  0.49704820  0.99720803  0.38411110  1
  O  O309  1  0.49168799  0.99123920  0.87136221  1
  O  O310  1  0.99028262  0.51065066  0.38608793  1
  O  O311  1  1.00978523  0.49012986  0.88571204  1
  O  O312  1  0.99068178  1.00862260  0.37963618  1
  O  O313  1  0.99593549  0.98927195  0.87878263  1
  O  O314  1  0.00864930  -0.00267630  0.10008913  1
  O  O315  1  -0.00997776  0.01323272  0.61587641  1
  O  O316  1  0.01029339  0.50640829  0.11355858  1
  O  O317  1  0.01061278  0.50473885  0.61179598  1
  O  O318  1  0.50581336  0.01436690  0.12161753  1
  O  O319  1  0.49587995  -0.00533018  0.61404158  1
  O  O320  1  0.51882715  0.50479680  0.13195166  1
  O  O321  1  0.51092922  0.50969974  0.61458508  1
  O  O322  1  0.24021171  0.36948873  0.23584140  1
  O  O323  1  0.28153010  0.39207820  0.74087894  1
  O  O324  1  0.27137073  0.89639306  0.24585892  1
  O  O325  1  0.24025684  0.86598003  0.73714133  1
  O  O326  1  0.76338589  0.38252036  0.23638493  1
  O  O327  1  0.74176283  0.37491998  0.73738586  1
  O  O328  1  0.73402217  0.87702799  0.23575428  1
  O  O329  1  0.74273301  0.87821341  0.74423914  1
  O  O330  1  0.24715441  0.11686940  0.27040827  1
  O  O331  1  0.26667426  0.12644932  0.70973584  1
  O  O332  1  0.26670907  0.62306985  0.26477787  1
  O  O333  1  0.27161386  0.61502605  0.74310830  1
  O  O334  1  0.74453416  0.12998092  0.26160894  1
  O  O335  1  0.67605636  0.06158542  0.79371285  1
  O  O336  1  0.76406855  0.60255225  0.24093147  1
  O  O337  1  0.77927412  0.66075229  0.75321207  1
  O  O338  1  0.36369390  0.12191325  0.38895471  1
  O  O339  1  0.38011232  0.11085810  0.88295669  1
  O  O340  1  0.37425723  0.61737433  0.37137841  1
  O  O341  1  0.37633697  0.63096755  0.86744693  1
  O  O342  1  0.85803792  0.13620645  0.37259024  1
  O  O343  1  0.87217890  0.11205088  0.86511234  1
  O  O344  1  0.86663899  0.60903856  0.38422943  1
  O  O345  1  0.90451751  0.60300907  0.86741708  1
  O  O346  1  0.12996552  0.37511969  0.13625307  1
  O  O347  1  0.11611420  0.39724620  0.63405812  1
  O  O348  1  0.13827295  0.88215279  0.11638785  1
  O  O349  1  0.12984800  0.86352026  0.62978521  1
  O  O350  1  0.64171420  0.38773446  0.12558545  1
  O  O351  1  0.63302823  0.38434831  0.62507075  1
  O  O352  1  0.62315286  0.88889417  0.13166028  1
  O  O353  1  0.63168984  0.88004105  0.63314916  1
  O  O354  1  0.12404280  0.26072011  0.26094893  1
  O  O355  1  0.10384080  0.25391717  0.75292592  1
  O  O356  1  0.15324141  0.75324488  0.26338093  1
  O  O357  1  0.12597960  0.75116724  0.75453248  1
  O  O358  1  0.61837165  0.24919808  0.26139296  1
  O  O359  1  0.63778564  0.26846681  0.76803560  1
  O  O360  1  0.60653720  0.76994256  0.24414959  1
  O  O361  1  0.61471372  0.74629177  0.76479767  1
  O  O362  1  0.38615848  0.25266691  0.23855230  1
  O  O363  1  0.38415227  0.26864172  0.74079474  1
  O  O364  1  0.38523519  0.73602918  0.25817714  1
  O  O365  1  0.38523986  0.73868651  0.74770908  1
  O  O366  1  0.88497809  0.23363791  0.24720092  1
  O  O367  1  0.88421447  0.26243735  0.74357554  1
  O  O368  1  0.91269055  0.79034507  0.23929629  1
  O  O369  1  0.83288895  0.71239868  0.76440700  1
  O  O370  1  0.38996068  0.49950528  0.49039304  1
  O  O371  1  0.38527558  0.49802473  0.99174960  1
  O  O372  1  0.38491596  1.00120548  0.49581318  1
  O  O373  1  0.36903040  0.98661228  0.98273314  1
  O  O374  1  0.88219688  0.49410533  0.49410999  1
  O  O375  1  0.89205808  0.49828096  0.99360644  1
  O  O376  1  0.88018894  1.01338692  0.49379444  1
  O  O377  1  0.89559374  0.99965733  0.98445024  1
  O  O378  1  0.11223590  0.00578654  -0.01511270  1
  O  O379  1  0.10906423  0.01529932  0.48885885  1
  O  O380  1  0.11904739  0.49460688  0.00354606  1
  O  O381  1  0.12090076  0.50466248  0.50734758  1
  O  O382  1  0.61989221  -0.00275092  0.00926892  1
  O  O383  1  0.62060524  0.01223181  0.49212043  1
  O  O384  1  0.61897258  0.50491901  0.01718732  1
  O  O385  1  0.61880850  0.50935112  0.50638842  1
  O  O386  1  0.36411389  0.36922091  0.13119940  1
  O  O387  1  0.38043060  0.38770588  0.60626836  1
  O  O388  1  0.36919853  0.88903716  0.10620640  1
  O  O389  1  0.36964152  0.86809230  0.62146215  1
  O  O390  1  0.86231252  0.39076651  0.11129293  1
  O  O391  1  0.86754773  0.37150070  0.61764756  1
  O  O392  1  0.85644814  0.88467217  0.12239776  1
  O  O393  1  0.86188201  0.87629810  0.61614452  1
  O  O394  1  0.12940025  0.13883728  0.37737819  1
  O  O395  1  0.13655873  0.14534439  0.85288207  1
  O  O396  1  0.14371182  0.60964414  0.39401789  1
  O  O397  1  0.11627564  0.63193862  0.87544738  1
  O  O398  1  0.63801757  0.13626136  0.38361155  1
  O  O399  1  0.64627458  0.10644541  0.85215750  1
  O  O400  1  0.62486431  0.62253298  0.38591647  1
  O  O401  1  0.61986168  0.63457872  0.87740429  1
