# generated using pymatgen
data_V73Zn73O256
_symmetry_space_group_name_H-M   'P 1'
_cell_length_a   16.85822410
_cell_length_b   16.85436471
_cell_length_c   16.86325848
_cell_angle_alpha   89.96247497
_cell_angle_beta   89.88578353
_cell_angle_gamma   89.89707453
_symmetry_Int_Tables_number   1
_chemical_formula_structural   V73Zn73O256
_chemical_formula_sum   'V73 Zn73 O256'
_cell_volume   4791.41790241
_cell_formula_units_Z   1
loop_
 _symmetry_equiv_pos_site_id
 _symmetry_equiv_pos_as_xyz
  1  'x, y, z'
loop_
 _atom_site_type_symbol
 _atom_site_label
 _atom_site_symmetry_multiplicity
 _atom_site_fract_x
 _atom_site_fract_y
 _atom_site_fract_z
 _atom_site_occupancy
  V  V0  1  0.87227976  0.25155431  0.62657145  1
  V  V1  1  0.37692323  0.12523401  0.74633636  1
  V  V2  1  0.48737206  0.12753916  0.13218010  1
  V  V3  1  0.24247037  0.12973680  0.87524476  1
  V  V4  1  0.26625922  0.74946167  0.50212845  1
  V  V5  1  0.61683954  0.37698590  0.76056278  1
  V  V6  1  0.25496662  0.52238120  0.74336682  1
  V  V7  1  0.88554116  0.37162715  -0.00073797  1
  V  V8  1  0.25312958  0.26022550  0.48289297  1
  V  V9  1  0.12247080  0.63112457  0.48843865  1
  V  V10  1  0.74978778  0.11856357  0.86940371  1
  V  V11  1  0.89639928  0.49550205  0.88441302  1
  V  V12  1  0.25520923  0.38600361  0.13742936  1
  V  V13  1  0.87256592  0.61424554  0.26599775  1
  V  V14  1  0.49670954  0.24900043  0.74471415  1
  V  V15  1  0.47628809  0.74292037  0.74369795  1
  V  V16  1  0.62462928  0.50726718  0.62216200  1
  V  V17  1  0.75724948  0.87345711  0.12260319  1
  V  V18  1  0.75128111  0.37539013  0.63204112  1
  V  V19  1  0.26344878  0.62550160  0.35977251  1
  V  V20  1  0.76187984  0.00047823  0.26478163  1
  V  V21  1  0.13096647  0.87405006  0.25825132  1
  V  V22  1  0.75168375  0.75257954  -0.00952495  1
  V  V23  1  0.37778482  0.48537153  0.37275265  1
  V  V24  1  0.75781053  0.14424492  0.38350000  1
  V  V25  1  0.61947878  0.86712720  0.74385245  1
  V  V26  1  0.00808483  0.26673579  0.75369444  1
  V  V27  1  0.37543551  0.76253535  0.11286901  1
  V  V28  1  0.26675494  0.11209820  0.36109609  1
  V  V29  1  0.60564925  0.00074790  0.61409264  1
  V  V30  1  0.38143387  0.36250233  -0.00369145  1
  V  V31  1  -0.00355117  -0.00203600  0.49196096  1
  V  V32  1  0.51268344  0.27020513  0.24998166  1
  V  V33  1  0.87848081  0.74020015  0.12566099  1
  V  V34  1  0.48481885  -0.01469608  -0.01279383  1
  V  V35  1  0.72990706  0.50182967  0.25348444  1
  V  V36  1  0.74515929  0.50769457  0.77529792  1
  V  V37  1  0.24836330  -0.00560365  0.74632672  1
  V  V38  1  0.87668263  0.23216698  0.12506443  1
  V  V39  1  0.23141421  0.24498528  0.01042795  1
  V  V40  1  0.75480631  -0.00792626  0.73274056  1
  V  V41  1  0.62630515  0.87315512  0.25335450  1
  V  V42  1  0.87055377  0.86001253  0.51883957  1
  V  V43  1  0.12803352  0.13169041  0.48694181  1
  V  V44  1  0.87447956  -0.01268588  0.88475653  1
  V  V45  1  0.50007858  0.62427562  0.12762473  1
  V  V46  1  0.12843866  0.62161735  0.00670236  1
  V  V47  1  -0.00595958  0.86146061  0.37371899  1
  V  V48  1  0.49267066  0.89159359  0.37950398  1
  V  V49  1  0.63580654  0.74498787  0.38230224  1
  V  V50  1  0.13210679  -0.00751221  0.62462218  1
  V  V51  1  0.48845298  0.74960817  0.25650688  1
  V  V52  1  0.11594816  0.49300384  0.62538256  1
  V  V53  1  0.62227814  0.11857042  -0.00072512  1
  V  V54  1  0.48898241  0.50597600  -0.01047322  1
  V  V55  1  0.89047349  0.62654261  0.75542549  1
  V  V56  1  0.00898160  0.25413417  0.28744484  1
  V  V57  1  0.12606979  0.01630864  0.13297407  1
  V  V58  1  0.87522232  0.37863702  0.49730770  1
  V  V59  1  0.61765560  0.24707955  0.87127403  1
  V  V60  1  0.25268577  0.36753318  0.64057142  1
  V  V61  1  0.51333481  0.37908795  0.40642661  1
  V  V62  1  -0.00200719  0.49457529  0.48095736  1
  V  V63  1  0.61873986  0.14301239  0.49926755  1
  V  V64  1  0.00348930  0.12632557  0.62791271  1
  V  V65  1  0.74726038  0.25127363  -0.00405122  1
  V  V66  1  0.62626918  0.62649070  -0.00713459  1
  V  V67  1  0.62461665  0.00015303  0.12456749  1
  V  V68  1  0.37364256  0.89054780  0.50920157  1
  V  V69  1  0.48776779  0.62437722  0.61844466  1
  V  V70  1  0.01609523  0.00707840  0.00524353  1
  V  V71  1  0.02543927  0.87419855  0.87275916  1
  V  V72  1  0.25127719  0.88207993  0.11959484  1
  Zn  Zn73  1  0.11426361  0.26156178  0.88149099  1
  Zn  Zn74  1  0.73565033  0.38312224  0.13231080  1
  Zn  Zn75  1  0.38783448  0.25553343  0.60778443  1
  Zn  Zn76  1  0.87685299  0.12540085  0.75020976  1
  Zn  Zn77  1  0.60679750  0.76169258  0.87790275  1
  Zn  Zn78  1  0.63372809  0.62806261  0.49626842  1
  Zn  Zn79  1  0.36351931  0.51755548  0.86812991  1
  Zn  Zn80  1  -0.00033738  0.75878320  0.74952376  1
  Zn  Zn81  1  0.00216652  0.74151558  0.24493951  1
  Zn  Zn82  1  0.18342032  0.20829538  0.19998752  1
  Zn  Zn83  1  0.18723416  0.18837659  0.68279939  1
  Zn  Zn84  1  0.19149047  0.70024370  0.19000767  1
  Zn  Zn85  1  0.16446860  0.69045507  0.66782617  1
  Zn  Zn86  1  0.70888173  0.19962143  0.20579953  1
  Zn  Zn87  1  0.68408881  0.18301437  0.68233280  1
  Zn  Zn88  1  0.68828567  0.68366455  0.18663662  1
  Zn  Zn89  1  0.69972912  0.68369869  0.68747746  1
  Zn  Zn90  1  0.33274400  0.29589300  0.30733993  1
  Zn  Zn91  1  0.31730660  0.31449905  0.82368632  1
  Zn  Zn92  1  0.30831946  0.81602227  0.32191108  1
  Zn  Zn93  1  0.30638262  0.80059560  0.79695258  1
  Zn  Zn94  1  0.82157286  0.31973273  0.30190235  1
  Zn  Zn95  1  0.81450053  0.31485631  0.81494384  1
  Zn  Zn96  1  0.81779432  0.81254944  0.31428746  1
  Zn  Zn97  1  0.81126832  0.81295669  0.80403972  1
  Zn  Zn98  1  0.19105511  0.44805661  0.42741160  1
  Zn  Zn99  1  0.20338987  0.42933702  0.92964741  1
  Zn  Zn100  1  0.18880526  0.93766685  0.43763268  1
  Zn  Zn101  1  0.23331174  0.91232726  0.91230578  1
  Zn  Zn102  1  0.70189426  0.44034706  0.43592257  1
  Zn  Zn103  1  0.67226849  0.42712747  0.96218470  1
  Zn  Zn104  1  0.68920002  0.92743968  0.44616726  1
  Zn  Zn105  1  0.68301092  0.93222786  0.93225939  1
  Zn  Zn106  1  0.30829016  0.06129605  0.06257845  1
  Zn  Zn107  1  0.31596365  0.07436485  0.56139134  1
  Zn  Zn108  1  0.31980412  0.56524952  0.08320586  1
  Zn  Zn109  1  0.30791730  0.55412018  0.55259842  1
  Zn  Zn110  1  0.80821678  0.05697552  0.06031433  1
  Zn  Zn111  1  0.81535669  0.06595279  0.55179797  1
  Zn  Zn112  1  0.81036720  0.55997366  0.06595656  1
  Zn  Zn113  1  0.81799299  0.55903056  0.57531023  1
  Zn  Zn114  1  0.42962265  0.43855374  0.18738480  1
  Zn  Zn115  1  0.43420301  0.43914143  0.68249162  1
  Zn  Zn116  1  0.43759276  0.94667269  0.18974668  1
  Zn  Zn117  1  0.43395462  0.93543959  0.68938277  1
  Zn  Zn118  1  0.92036675  0.42358508  0.19720909  1
  Zn  Zn119  1  0.93387418  0.44388680  0.69214839  1
  Zn  Zn120  1  0.93984019  0.93847086  0.18698236  1
  Zn  Zn121  1  0.94495975  0.93971783  0.69062927  1
  Zn  Zn122  1  0.05163545  0.06758260  0.30568953  1
  Zn  Zn123  1  0.06524143  0.06243065  0.81420554  1
  Zn  Zn124  1  0.05551702  0.56779359  0.31414242  1
  Zn  Zn125  1  0.07309504  0.55377191  0.81455564  1
  Zn  Zn126  1  0.57413986  0.07179325  0.31497822  1
  Zn  Zn127  1  0.56131603  0.05547626  0.80644778  1
  Zn  Zn128  1  0.55699520  0.55969135  0.31706809  1
  Zn  Zn129  1  0.55891764  0.57289443  0.81240508  1
  Zn  Zn130  1  0.44029333  0.19403107  0.42428192  1
  Zn  Zn131  1  0.43673750  0.17007019  0.93197947  1
  Zn  Zn132  1  0.44144386  0.68092634  0.43994965  1
  Zn  Zn133  1  0.42845441  0.69548138  0.93160063  1
  Zn  Zn134  1  0.93573008  0.19045912  0.43715612  1
  Zn  Zn135  1  0.93683525  0.18377314  0.93621977  1
  Zn  Zn136  1  0.93456228  0.68369081  0.44171651  1
  Zn  Zn137  1  0.93111394  0.69442167  0.92851175  1
  Zn  Zn138  1  0.04981946  0.34071696  0.10390860  1
  Zn  Zn139  1  0.06398550  0.31346946  0.55966376  1
  Zn  Zn140  1  0.06105128  0.82747307  0.06204337  1
  Zn  Zn141  1  0.05807208  0.80791668  0.56857516  1
  Zn  Zn142  1  0.55934222  0.31468331  0.06970242  1
  Zn  Zn143  1  0.57111305  0.31501163  0.56935438  1
  Zn  Zn144  1  0.56407775  0.81304089  0.06486567  1
  Zn  Zn145  1  0.55863732  0.81414489  0.56358530  1
  O  O146  1  0.12683019  0.11395583  0.14232489  1
  O  O147  1  0.11713297  0.12235480  0.61223472  1
  O  O148  1  0.13127438  0.62194329  0.11265460  1
  O  O149  1  0.13657686  0.59837107  0.59453327  1
  O  O150  1  0.62652682  0.11209225  0.11266999  1
  O  O151  1  0.63019691  0.11042221  0.61172163  1
  O  O152  1  0.60672822  0.64210816  0.11171879  1
  O  O153  1  0.62315742  0.61155930  0.63464918  1
  O  O154  1  0.38514135  0.38069514  0.37343804  1
  O  O155  1  0.36216392  0.39474249  0.89517775  1
  O  O156  1  0.38841485  0.87806302  0.37826373  1
  O  O157  1  0.32394629  0.84974190  0.89147280  1
  O  O158  1  0.85757558  0.37445181  0.40159573  1
  O  O159  1  0.87781750  0.38465438  0.88274114  1
  O  O160  1  0.89006403  0.87075665  0.38816092  1
  O  O161  1  0.87299306  0.88737336  0.87079469  1
  O  O162  1  0.24452825  0.01397249  0.37519186  1
  O  O163  1  0.24234007  0.01594716  0.85596888  1
  O  O164  1  0.26429451  0.51199277  0.36920904  1
  O  O165  1  0.23820750  0.50414678  0.84748423  1
  O  O166  1  0.75029811  -0.01651843  0.36378416  1
  O  O167  1  0.75796274  0.00115407  0.86918122  1
  O  O168  1  0.74297531  0.50705918  0.35701917  1
  O  O169  1  0.73883803  0.49479261  0.87425167  1
  O  O170  1  0.26056168  0.48856539  0.13918121  1
  O  O171  1  0.24658729  0.48469952  0.62936935  1
  O  O172  1  0.23687252  0.99533990  0.12828872  1
  O  O173  1  0.23894326  1.01446779  0.63162184  1
  O  O174  1  0.75376911  0.50069662  0.14050096  1
  O  O175  1  0.74151929  0.49437530  0.64604838  1
  O  O176  1  0.74190330  0.99250399  0.13093818  1
  O  O177  1  0.75414100  1.00358848  0.63317894  1
  O  O178  1  -0.06124151  0.33337958  0.26929052  1
  O  O179  1  -0.00149461  0.36593340  0.74842420  1
  O  O180  1  -0.00022620  0.87419772  0.26493853  1
  O  O181  1  0.00241183  0.87872239  0.76723466  1
  O  O182  1  0.51418861  0.36885093  0.22518517  1
  O  O183  1  0.51001007  0.36962636  0.74852295  1
  O  O184  1  0.50731543  0.86901893  0.25851843  1
  O  O185  1  0.50912840  0.85769978  0.73781414  1
  O  O186  1  0.50620736  0.10748091  0.23040754  1
  O  O187  1  0.48498962  0.12959737  0.75346703  1
  O  O188  1  0.50629834  0.64182146  0.23877452  1
  O  O189  1  0.49834487  0.63519746  0.73682834  1
  O  O190  1  0.98746143  0.15366803  0.27128053  1
  O  O191  1  0.99852070  0.12288302  0.73596073  1
  O  O192  1  0.98454680  0.62793853  0.25219089  1
  O  O193  1  0.99383962  0.62646918  0.76892592  1
  O  O194  1  0.39040036  0.26252669  -0.01246624  1
  O  O195  1  0.35701995  0.24289144  0.49725811  1
  O  O196  1  0.38699636  0.76566540  0.01489985  1
  O  O197  1  0.36927692  0.75214084  0.50030733  1
  O  O198  1  0.86686159  0.25049365  0.00152647  1
  O  O199  1  0.88239224  0.26616512  0.51787779  1
  O  O200  1  0.85903810  0.74203185  0.00840953  1
  O  O201  1  0.89231604  0.76079117  0.51021184  1
  O  O202  1  0.13329248  0.23745386  0.50157806  1
  O  O203  1  0.13231722  0.24679935  1.00502017  1
  O  O204  1  0.12064946  0.73219051  0.49463402  1
  O  O205  1  0.12370482  0.72742676  1.01173638  1
  O  O206  1  0.63746164  0.24105534  0.51432213  1
  O  O207  1  0.62754661  0.23528921  0.98618736  1
  O  O208  1  0.62188736  0.75573920  0.48511223  1
  O  O209  1  0.63150907  0.74724019  0.99639340  1
  O  O210  1  0.50758489  0.23273956  0.12720115  1
  O  O211  1  0.50183466  0.25213524  0.64003343  1
  O  O212  1  0.49102090  0.75700185  0.13848241  1
  O  O213  1  0.50639067  0.73541695  0.63291588  1
  O  O214  1  0.97556015  0.25303047  0.13325271  1
  O  O215  1  0.99494871  0.24549406  0.63325196  1
  O  O216  1  0.98022701  0.76592187  0.12039068  1
  O  O217  1  1.06135275  0.74110087  0.65757819  1
  O  O218  1  0.01345628  0.25824352  0.39067923  1
  O  O219  1  -0.00222263  0.24000721  0.85622973  1
  O  O220  1  0.00311482  0.76025863  0.37539513  1
  O  O221  1  0.00098674  0.76966619  0.87771596  1
  O  O222  1  0.50262395  0.27645619  0.36531481  1
  O  O223  1  0.51264755  0.23763305  0.86484581  1
  O  O224  1  0.50495064  0.75417420  0.36340294  1
  O  O225  1  0.49316224  0.74613646  0.84951468  1
  O  O226  1  0.23894448  0.13120963  0.49062100  1
  O  O227  1  0.25749715  0.13368871  0.98490539  1
  O  O228  1  0.24393356  0.63268352  0.48763731  1
  O  O229  1  0.23417522  0.62467178  1.00620997  1
  O  O230  1  0.74050599  0.12270935  0.49057861  1
  O  O231  1  0.74081867  0.12528904  0.98611049  1
  O  O232  1  0.74997384  0.64646430  0.53360729  1
  O  O233  1  0.73336638  0.63662353  1.00780250  1
  O  O234  1  0.26233133  0.35804403  0.00664210  1
  O  O235  1  0.23962763  0.36156712  0.48627464  1
  O  O236  1  0.23877440  0.87882346  0.02247238  1
  O  O237  1  0.26447952  0.86194547  0.48482238  1
  O  O238  1  0.76424649  0.35365598  -0.02536048  1
  O  O239  1  0.76313194  0.38950388  0.52288853  1
  O  O240  1  0.73950463  0.86223087  0.00927562  1
  O  O241  1  0.77157164  0.87469570  0.50479869  1
  O  O242  1  0.11911246  0.47087079  0.26685463  1
  O  O243  1  0.13424636  0.50672463  0.72991781  1
  O  O244  1  0.10807402  0.98849385  0.23925981  1
  O  O245  1  0.13469370  1.00740657  0.73496472  1
  O  O246  1  0.62974038  0.51293014  0.24315874  1
  O  O247  1  0.63123598  0.49616029  0.75452663  1
  O  O248  1  0.63211529  0.98882164  0.24275081  1
  O  O249  1  0.63380073  0.99287650  0.73661585  1
  O  O250  1  0.36756840  -0.00063079  0.25699075  1
  O  O251  1  0.36241575  0.01523806  0.73828687  1
  O  O252  1  0.38928706  0.50484607  0.26898355  1
  O  O253  1  0.35939863  0.50001283  0.74686354  1
  O  O254  1  0.86032997  -0.00336103  0.24588275  1
  O  O255  1  0.86348746  0.00102789  0.75533955  1
  O  O256  1  0.87433785  0.51242808  0.25314935  1
  O  O257  1  0.86376126  0.49961128  0.77150051  1
  O  O258  1  0.13259336  0.41631742  0.31734842  1
  O  O259  1  0.11893981  0.37419757  0.88734702  1
  O  O260  1  0.11460839  0.88178600  0.36410858  1
  O  O261  1  0.12454461  0.88559805  0.87452679  1
  O  O262  1  0.61347462  0.38064566  0.39864464  1
  O  O263  1  0.62753091  0.36012954  0.86906321  1
  O  O264  1  0.61352658  0.86619605  0.37083980  1
  O  O265  1  0.62413981  0.87680779  0.85096904  1
  O  O266  1  0.38885226  0.11933822  0.12077471  1
  O  O267  1  0.36422386  0.14201478  0.64126115  1
  O  O268  1  0.38849987  0.64906865  0.12206512  1
  O  O269  1  0.38962379  0.61311062  0.61441833  1
  O  O270  1  0.87475846  0.13196998  0.10926304  1
  O  O271  1  0.88445038  0.13446050  0.62112929  1
  O  O272  1  0.87700155  0.63753026  0.12491534  1
  O  O273  1  0.88402155  0.60429186  0.65703596  1
  O  O274  1  0.25407176  0.23491050  0.10900380  1
  O  O275  1  0.24423267  0.26310671  0.61110838  1
  O  O276  1  0.26625642  0.76517171  0.13140664  1
  O  O277  1  0.24111610  0.74688555  0.59946532  1
  O  O278  1  0.74243580  0.24210458  0.09928364  1
  O  O279  1  0.75916396  0.26253772  0.64068515  1
  O  O280  1  0.75697714  0.75638558  0.11865110  1
  O  O281  1  0.75417674  0.70949396  0.58739897  1
  O  O282  1  0.25381127  0.23983514  0.38109661  1
  O  O283  1  0.24637425  0.24364899  0.88601318  1
  O  O284  1  0.25221018  0.73608313  0.38478769  1
  O  O285  1  0.20530011  0.74160494  0.83814690  1
  O  O286  1  0.75546300  0.24270311  0.37016454  1
  O  O287  1  0.74153391  0.23494918  0.87143057  1
  O  O288  1  0.73448730  0.75633410  0.36963987  1
  O  O289  1  0.75117863  0.75747173  0.88959950  1
  O  O290  1  -0.00060286  0.10543267  -0.01101655  1
  O  O291  1  0.00804159  0.11569368  0.50512485  1
  O  O292  1  0.02315329  0.61819643  0.01026936  1
  O  O293  1  0.01201202  0.60833574  0.48820673  1
  O  O294  1  0.50825258  0.11381702  0.00762275  1
  O  O295  1  0.51760150  0.13937188  0.49049862  1
  O  O296  1  0.50353764  0.62754532  0.00745920  1
  O  O297  1  0.51328364  0.63038830  0.51572157  1
  O  O298  1  0.49434921  0.36901601  0.50517058  1
  O  O299  1  0.49002134  0.39609377  1.00310328  1
  O  O300  1  0.48720816  0.87239364  0.48808951  1
  O  O301  1  0.50783738  0.88674441  0.99903062  1
  O  O302  1  0.98727605  0.38421384  0.50611100  1
  O  O303  1  0.98346033  0.35789363  1.00251917  1
  O  O304  1  1.00560502  0.88311982  0.49256897  1
  O  O305  1  1.00730682  0.89267891  0.98370337  1
  O  O306  1  0.49639332  0.48561826  0.37974281  1
  O  O307  1  0.48958660  0.51410638  0.88617695  1
  O  O308  1  0.50874241  0.98875273  0.37124171  1
  O  O309  1  0.50090593  1.00475182  0.88779142  1
  O  O310  1  0.99639464  0.48982886  0.38264295  1
  O  O311  1  0.99540190  0.49390105  0.87690822  1
  O  O312  1  1.00349560  0.99570850  0.38952958  1
  O  O313  1  0.99144065  0.99378425  0.87789381  1
  O  O314  1  0.00888797  -0.00643090  0.11328312  1
  O  O315  1  0.01317481  0.00741049  0.61796456  1
  O  O316  1  0.01430029  0.44400084  0.14112986  1
  O  O317  1  0.01388118  0.49373058  0.62385838  1
  O  O318  1  0.51008065  0.00291353  0.11296511  1
  O  O319  1  0.50725025  0.00429192  0.62902316  1
  O  O320  1  0.49131770  0.52236465  0.11758574  1
  O  O321  1  0.51536037  0.50890505  0.63365377  1
  O  O322  1  0.26960219  0.35378415  0.23310821  1
  O  O323  1  0.24726047  0.36562224  0.74060982  1
  O  O324  1  0.23493661  0.87454145  0.25127033  1
  O  O325  1  0.25546695  0.89561389  0.74461139  1
  O  O326  1  0.74835092  0.39266724  0.24822618  1
  O  O327  1  0.74048801  0.38526581  0.75103987  1
  O  O328  1  0.74380352  0.88043088  0.24371267  1
  O  O329  1  0.74253405  0.88684802  0.74495452  1
  O  O330  1  0.24439511  0.13681163  0.26533139  1
  O  O331  1  0.25690281  0.12928742  0.75690898  1
  O  O332  1  0.24607566  0.63356669  0.26091731  1
  O  O333  1  0.24611033  0.61983026  0.72486402  1
  O  O334  1  0.74004097  0.10618556  0.27223745  1
  O  O335  1  0.74585349  0.11024745  0.75523297  1
  O  O336  1  0.76227124  0.61744479  0.24302494  1
  O  O337  1  0.75643556  0.61097223  0.76026632  1
  O  O338  1  0.36649809  0.12225087  0.37633307  1
  O  O339  1  0.35969076  0.12777686  0.85844551  1
  O  O340  1  0.36817230  0.62416247  0.37110221  1
  O  O341  1  0.35024484  0.63006835  0.88896754  1
  O  O342  1  0.85806514  0.12286909  0.39076332  1
  O  O343  1  0.86340050  0.11240295  0.87102164  1
  O  O344  1  0.86926853  0.63105887  0.36568127  1
  O  O345  1  0.87827923  0.60509041  0.87604202  1
  O  O346  1  0.15783769  0.36585966  0.11833186  1
  O  O347  1  0.13805633  0.38535435  0.61558619  1
  O  O348  1  0.13459930  0.88250949  0.13674924  1
  O  O349  1  0.12893933  0.89477536  0.61319490  1
  O  O350  1  0.64395750  0.38332724  0.06774240  1
  O  O351  1  0.63198799  0.38749371  0.63950084  1
  O  O352  1  0.63259568  0.88040548  0.13458711  1
  O  O353  1  0.62158452  0.88841344  0.63175285  1
  O  O354  1  0.10174310  0.27127635  0.24704002  1
  O  O355  1  0.10980785  0.24915532  0.74515712  1
  O  O356  1  0.11527522  0.76911189  0.24035500  1
  O  O357  1  0.14696400  0.72935207  0.79226384  1
  O  O358  1  0.61029163  0.23357454  0.24827370  1
  O  O359  1  0.61889206  0.25514447  0.75321664  1
  O  O360  1  0.61922081  0.75995563  0.25557371  1
  O  O361  1  0.63856079  0.76414768  0.74278347  1
  O  O362  1  0.41374029  0.23839705  0.25119226  1
  O  O363  1  0.38561078  0.24648182  0.75649734  1
  O  O364  1  0.38740418  0.75910893  0.24944017  1
  O  O365  1  0.37760676  0.74674388  0.73196891  1
  O  O366  1  0.82613536  0.23685973  0.21708515  1
  O  O367  1  0.88500240  0.24777320  0.74217973  1
  O  O368  1  0.87252576  0.74160443  0.23752458  1
  O  O369  1  0.87727698  0.73170434  0.76001836  1
  O  O370  1  0.37456715  0.50408048  0.47667803  1
  O  O371  1  0.38404315  0.50967539  1.00191241  1
  O  O372  1  0.36607596  0.99018869  0.50300861  1
  O  O373  1  0.38513109  0.99731715  1.00163353  1
  O  O374  1  0.88845059  0.49309367  0.51050668  1
  O  O375  1  0.87145946  0.48572553  0.99322063  1
  O  O376  1  0.89468816  0.99025758  0.50924346  1
  O  O377  1  0.87776305  0.99683863  0.98728730  1
  O  O378  1  0.11961558  0.00649039  0.01681030  1
  O  O379  1  0.12064771  0.01099014  0.50791897  1
  O  O380  1  0.13438681  0.51696632  0.00677795  1
  O  O381  1  0.10925410  0.49102728  0.49855339  1
  O  O382  1  0.62552650  0.00409027  0.00515893  1
  O  O383  1  0.62264810  -0.00491814  0.51235060  1
  O  O384  1  0.60750923  0.52139245  -0.00691807  1
  O  O385  1  0.64131565  0.50639045  0.52078129  1
  O  O386  1  0.37033854  0.37920798  0.10450855  1
  O  O387  1  0.35876223  0.37078097  0.62518502  1
  O  O388  1  0.36227111  0.87460441  0.13294078  1
  O  O389  1  0.37901808  0.87548453  0.60842877  1
  O  O390  1  0.85753624  0.36191031  0.10548203  1
  O  O391  1  0.86749886  0.37132357  0.62912199  1
  O  O392  1  0.86143614  0.86804984  0.12997199  1
  O  O393  1  0.88940030  0.87286340  0.61852563  1
  O  O394  1  0.12500122  0.12003533  0.38674988  1
  O  O395  1  0.13803705  0.13479362  0.86829405  1
  O  O396  1  0.13912496  0.60934401  0.38354465  1
  O  O397  1  0.12539087  0.62416511  0.90323949  1
  O  O398  1  0.63876300  0.12288316  0.39175143  1
  O  O399  1  0.63111660  0.12434083  0.87745980  1
  O  O400  1  0.61840378  0.64057059  0.37697455  1
  O  O401  1  0.61805173  0.63969940  0.88831640  1
