# generated using pymatgen
data_V73Zn73O256
_symmetry_space_group_name_H-M   'P 1'
_cell_length_a   16.93480231
_cell_length_b   16.90294213
_cell_length_c   16.86719053
_cell_angle_alpha   89.83317690
_cell_angle_beta   89.88139973
_cell_angle_gamma   89.90887010
_symmetry_Int_Tables_number   1
_chemical_formula_structural   V73Zn73O256
_chemical_formula_sum   'V73 Zn73 O256'
_cell_volume   4828.16240451
_cell_formula_units_Z   1
loop_
 _symmetry_equiv_pos_site_id
 _symmetry_equiv_pos_as_xyz
  1  'x, y, z'
loop_
 _atom_site_type_symbol
 _atom_site_label
 _atom_site_symmetry_multiplicity
 _atom_site_fract_x
 _atom_site_fract_y
 _atom_site_fract_z
 _atom_site_occupancy
  V  V0  1  0.12989511  0.87614347  0.26195663  1
  V  V1  1  -0.01737150  0.11884035  0.63436973  1
  V  V2  1  0.11346423  0.37091889  0.25241902  1
  V  V3  1  0.38015516  0.74764420  0.12854866  1
  V  V4  1  0.37855804  0.48602912  0.38212373  1
  V  V5  1  0.76120196  0.25014707  0.49318911  1
  V  V6  1  0.38290703  0.62331664  0.25010943  1
  V  V7  1  0.87589516  0.62535648  0.25194986  1
  V  V8  1  0.12799942  -0.00388313  0.62275707  1
  V  V9  1  0.00461023  0.48002338  -0.00923877  1
  V  V10  1  0.62026797  0.25350654  0.36945927  1
  V  V11  1  0.24590104  0.63248928  0.37952686  1
  V  V12  1  0.50144426  0.48321787  0.49869946  1
  V  V13  1  0.85665054  0.75953340  0.61133754  1
  V  V14  1  0.74318911  0.50285667  0.77378408  1
  V  V15  1  -0.01692052  0.86642751  0.37809615  1
  V  V16  1  0.09793915  0.49507043  0.62504365  1
  V  V17  1  0.11211700  0.62453536  0.50496697  1
  V  V18  1  0.37655452  0.63191390  0.74649161  1
  V  V19  1  0.88871348  0.23360012  0.13858901  1
  V  V20  1  0.38790106  0.12783946  0.24939698  1
  V  V21  1  0.49507901  0.76119398  0.75514423  1
  V  V22  1  0.61257143  0.12721722  0.50201114  1
  V  V23  1  -0.01953898  -0.00670948  0.49284455  1
  V  V24  1  0.37738021  0.88615666  -0.01845521  1
  V  V25  1  0.13372737  0.50398799  0.11860719  1
  V  V26  1  0.82302781  0.68858673  0.06602458  1
  V  V27  1  0.61396047  0.87948830  0.24354750  1
  V  V28  1  0.24501117  0.74774269  0.00223892  1
  V  V29  1  0.75529350  0.00029686  0.25855777  1
  V  V30  1  0.25263481  0.10730565  0.38171548  1
  V  V31  1  0.87902304  0.86895223  0.00315738  1
  V  V32  1  0.63503104  0.51115895  0.61687372  1
  V  V33  1  0.48932186  0.88651156  0.39063270  1
  V  V34  1  0.75922713  0.28636300  0.01071595  1
  V  V35  1  0.00370754  0.74643975  0.24716939  1
  V  V36  1  0.38355544  0.36802726  0.00593262  1
  V  V37  1  0.51629424  0.13138918  0.12193528  1
  V  V38  1  0.36312641  0.13387905  0.74789157  1
  V  V39  1  0.25558998  0.49624315  0.73346314  1
  V  V40  1  0.62541323  0.36826743  0.74775112  1
  V  V41  1  0.87808013  0.00706829  0.87886507  1
  V  V42  1  0.25684490  0.75730042  0.52218659  1
  V  V43  1  0.61557597  0.36813219  0.24350490  1
  V  V44  1  0.74467031  0.88035625  0.11743403  1
  V  V45  1  0.76332223  0.01262257  0.74506067  1
  V  V46  1  0.11252311  0.12668700  0.49687229  1
  V  V47  1  0.74276813  0.62786887  0.38184682  1
  V  V48  1  0.87179048  0.26526644  0.62841327  1
  V  V49  1  0.01146728  0.62988108  0.11208212  1
  V  V50  1  0.13130443  0.87532505  0.74089369  1
  V  V51  1  0.25297135  0.88405591  0.13167409  1
  V  V52  1  0.25435337  0.49338968  0.25704818  1
  V  V53  1  -0.00212764  0.74113094  0.73591766  1
  V  V54  1  -0.00447497  0.24723466  0.76235424  1
  V  V55  1  0.75636574  0.49609789  0.24127795  1
  V  V56  1  0.49841854  0.63649946  0.61266247  1
  V  V57  1  0.63636987  0.74349440  0.88366054  1
  V  V58  1  0.11054789  0.25191653  0.37076134  1
  V  V59  1  0.61922618  0.00468659  0.62494555  1
  V  V60  1  0.10546076  0.12206471  0.01166150  1
  V  V61  1  0.25804219  0.23668200  0.00177562  1
  V  V62  1  0.61724687  0.52069641  0.12720107  1
  V  V63  1  -0.06442079  0.43794264  0.43400357  1
  V  V64  1  0.50151640  0.52132637  0.00169740  1
  V  V65  1  0.64567180  0.87293737  0.74966922  1
  V  V66  1  0.24851127  0.26739351  0.50664976  1
  V  V67  1  0.62977994  0.09871458  -0.00904109  1
  V  V68  1  0.50633489  0.36213517  0.87474937  1
  V  V69  1  0.00336123  0.87429287  0.87456619  1
  V  V70  1  0.24662956  0.62052039  0.88093070  1
  V  V71  1  0.85537682  0.62587639  0.75018933  1
  V  V72  1  0.26194270  0.36863959  0.12826885  1
  Zn  Zn73  1  0.12917100  0.36542104  0.74771106  1
  Zn  Zn74  1  0.76180220  0.12203065  0.36988142  1
  Zn  Zn75  1  0.12825706  0.24723456  0.87869107  1
  Zn  Zn76  1  0.12203640  0.74577844  0.87598275  1
  Zn  Zn77  1  0.38070157  0.50252849  0.87577344  1
  Zn  Zn78  1  0.74954110  0.14870977  0.87697659  1
  Zn  Zn79  1  0.50183373  0.74608788  0.25071452  1
  Zn  Zn80  1  0.12852156  0.00851543  0.13217405  1
  Zn  Zn81  1  0.62259237  0.74850501  0.37716562  1
  Zn  Zn82  1  0.19729630  0.18377621  0.19414997  1
  Zn  Zn83  1  0.17381454  0.18462606  0.67945886  1
  Zn  Zn84  1  0.19055277  0.69021482  0.19224422  1
  Zn  Zn85  1  0.18217762  0.68113107  0.68558105  1
  Zn  Zn86  1  0.69809935  0.18677925  0.18006772  1
  Zn  Zn87  1  0.69417384  0.18520084  0.68309190  1
  Zn  Zn88  1  0.68664626  0.69267563  0.19197581  1
  Zn  Zn89  1  0.68295863  0.68952521  0.68401236  1
  Zn  Zn90  1  0.30935907  0.29859924  0.32809917  1
  Zn  Zn91  1  0.30948686  0.32114922  0.82425050  1
  Zn  Zn92  1  0.31671124  0.81415423  0.31670757  1
  Zn  Zn93  1  0.30729684  0.81069517  0.81004493  1
  Zn  Zn94  1  0.85627376  0.33328605  0.27428096  1
  Zn  Zn95  1  0.82163168  0.32171343  0.82213974  1
  Zn  Zn96  1  0.80949274  0.80729510  0.30436945  1
  Zn  Zn97  1  0.81818073  0.81000106  0.81341750  1
  Zn  Zn98  1  0.17413202  0.44227574  0.43888693  1
  Zn  Zn99  1  0.18825523  0.42859671  0.93401823  1
  Zn  Zn100  1  0.17705114  0.92997610  0.44657988  1
  Zn  Zn101  1  0.22888057  0.97744051  0.96097255  1
  Zn  Zn102  1  0.74763063  0.40969228  0.40231879  1
  Zn  Zn103  1  0.67239515  0.43705545  0.94032617  1
  Zn  Zn104  1  0.66631679  0.94004804  0.43109668  1
  Zn  Zn105  1  0.69562313  0.92565800  0.92984915  1
  Zn  Zn106  1  0.34408447  0.06321566  0.07682911  1
  Zn  Zn107  1  0.31170184  0.06962644  0.54629351  1
  Zn  Zn108  1  0.31886684  0.55980344  0.06484523  1
  Zn  Zn109  1  0.32085397  0.56870070  0.55648820  1
  Zn  Zn110  1  0.81470133  0.05891725  0.06051949  1
  Zn  Zn111  1  0.80584239  0.06366037  0.55489549  1
  Zn  Zn112  1  0.79852177  0.49795386  0.03832520  1
  Zn  Zn113  1  0.82854747  0.56921185  0.56403082  1
  Zn  Zn114  1  0.44304494  0.43684054  0.19131755  1
  Zn  Zn115  1  0.44846073  0.45041109  0.69208404  1
  Zn  Zn116  1  0.43229404  0.95560111  0.18786551  1
  Zn  Zn117  1  0.45387298  0.96333611  0.72842155  1
  Zn  Zn118  1  0.93999945  0.43829752  0.15914534  1
  Zn  Zn119  1  0.92666793  0.43138127  0.71815538  1
  Zn  Zn120  1  0.93269537  0.93015978  0.19252315  1
  Zn  Zn121  1  0.93653425  0.93071597  0.68582893  1
  Zn  Zn122  1  0.06116910  0.05508038  0.31527435  1
  Zn  Zn123  1  0.10319752  0.03766296  0.84205655  1
  Zn  Zn124  1  0.06245159  0.55957047  0.31228218  1
  Zn  Zn125  1  0.06719973  0.55989691  0.80819147  1
  Zn  Zn126  1  0.56859603  0.06339857  0.31051260  1
  Zn  Zn127  1  0.58114523  0.04599019  0.83042129  1
  Zn  Zn128  1  0.56747842  0.55655586  0.31966297  1
  Zn  Zn129  1  0.56302365  0.56941637  0.81507630  1
  Zn  Zn130  1  0.42700083  0.19341070  0.43023792  1
  Zn  Zn131  1  0.44621484  0.18364944  0.93879252  1
  Zn  Zn132  1  0.43251310  0.69846455  0.42999364  1
  Zn  Zn133  1  0.43259982  0.70046723  0.93248392  1
  Zn  Zn134  1  0.92996103  0.18817961  0.42824881  1
  Zn  Zn135  1  0.92809781  0.19451933  0.95407016  1
  Zn  Zn136  1  0.93007972  0.68687915  0.43324039  1
  Zn  Zn137  1  0.94289385  0.67917502  0.92555138  1
  Zn  Zn138  1  0.06936763  0.30350515  0.07352319  1
  Zn  Zn139  1  0.05526522  0.31553500  0.56311625  1
  Zn  Zn140  1  0.06861045  0.81704379  0.06462498  1
  Zn  Zn141  1  0.06336638  0.80661886  0.55599896  1
  Zn  Zn142  1  0.56902792  0.30523491  0.06084707  1
  Zn  Zn143  1  0.61861323  0.34733920  0.53728981  1
  Zn  Zn144  1  0.55476052  0.82100613  0.05667831  1
  Zn  Zn145  1  0.55830503  0.82477743  0.57236602  1
  O  O146  1  0.13783383  0.12513518  0.11862939  1
  O  O147  1  0.10472087  0.11245481  0.61722984  1
  O  O148  1  0.12387071  0.61406067  0.13447591  1
  O  O149  1  0.12361725  0.60984915  0.61485458  1
  O  O150  1  0.62032241  0.11844709  0.11370353  1
  O  O151  1  0.62897076  0.11910670  0.61432494  1
  O  O152  1  0.61585504  0.61901723  0.13421196  1
  O  O153  1  0.60915279  0.61769667  0.63134565  1
  O  O154  1  0.37234163  0.38765692  0.37070698  1
  O  O155  1  0.39046862  0.38137861  0.88417878  1
  O  O156  1  0.39056460  0.88045933  0.36626157  1
  O  O157  1  0.37233336  0.86980930  0.88231693  1
  O  O158  1  0.86196386  0.38437956  0.37533426  1
  O  O159  1  0.88797208  0.40895540  0.82474804  1
  O  O160  1  0.88486333  0.86972331  0.36898528  1
  O  O161  1  0.88564530  0.87525459  0.88257587  1
  O  O162  1  0.22768595  0.01049380  0.38288858  1
  O  O163  1  0.20939380  -0.00322178  0.85444707  1
  O  O164  1  0.25752430  0.50327211  0.37132788  1
  O  O165  1  0.25500275  0.51224115  0.87066241  1
  O  O166  1  0.74094811  -0.00758414  0.36198285  1
  O  O167  1  0.76787055  -0.00649863  0.86379372  1
  O  O168  1  0.74333508  0.51527298  0.34984720  1
  O  O169  1  0.74056601  0.50736631  0.87239556  1
  O  O170  1  0.25108248  0.49329046  0.13657824  1
  O  O171  1  0.26137621  0.50454328  0.63363924  1
  O  O172  1  0.25810359  0.98478662  0.13036306  1
  O  O173  1  0.22528645  1.00698429  0.61206473  1
  O  O174  1  0.72805950  0.50394024  0.13241020  1
  O  O175  1  0.73412071  0.51452777  0.61721168  1
  O  O176  1  0.75172949  0.98254663  0.12824886  1
  O  O177  1  0.74842698  1.00822585  0.64125209  1
  O  O178  1  0.01725108  0.38205818  0.24212476  1
  O  O179  1  0.00621687  0.34846438  0.74318672  1
  O  O180  1  0.00672719  0.86748653  0.25817910  1
  O  O181  1  0.00032481  0.86176962  0.75689580  1
  O  O182  1  0.51683036  0.37988014  0.25857608  1
  O  O183  1  0.51162239  0.38724631  0.76467663  1
  O  O184  1  0.51106088  0.88257864  0.23237397  1
  O  O185  1  0.50174770  0.86140487  0.73833230  1
  O  O186  1  0.50211844  0.12417034  0.23456868  1
  O  O187  1  0.46533140  0.13901419  0.73126792  1
  O  O188  1  0.48537999  0.62190229  0.26131193  1
  O  O189  1  0.49173194  0.63358951  0.74422627  1
  O  O190  1  0.99302733  0.08128642  0.21936711  1
  O  O191  1  0.99409558  0.12813929  0.73446952  1
  O  O192  1  0.99652333  0.62761084  0.24114111  1
  O  O193  1  1.00386730  0.63949725  0.75075012  1
  O  O194  1  0.37370472  0.26047874  -0.00293560  1
  O  O195  1  0.34802983  0.24982085  0.49468750  1
  O  O196  1  0.36564212  0.76278405  0.00736326  1
  O  O197  1  0.35467081  0.74485794  0.49817630  1
  O  O198  1  0.86888363  0.26359926  0.02010322  1
  O  O199  1  0.86664893  0.24963142  0.50725080  1
  O  O200  1  0.87567091  0.74881489  -0.00306694  1
  O  O201  1  0.87351291  0.74265057  0.51228586  1
  O  O202  1  0.11582970  0.24142067  0.49186060  1
  O  O203  1  0.14387129  0.23693775  1.00919522  1
  O  O204  1  0.13781749  0.73015673  0.50989471  1
  O  O205  1  0.14135183  0.75470355  0.99785763  1
  O  O206  1  0.63381647  0.23898302  0.49513995  1
  O  O207  1  0.65715803  0.26297200  1.00221658  1
  O  O208  1  0.65072924  0.78637307  0.49782034  1
  O  O209  1  0.61598910  0.76542497  0.98070728  1
  O  O210  1  0.49894062  0.23181236  0.11685414  1
  O  O211  1  0.44565588  0.30260640  0.61670772  1
  O  O212  1  0.48259703  0.75564711  0.12470221  1
  O  O213  1  0.51059532  0.74067043  0.63656174  1
  O  O214  1  0.99055096  0.24764690  0.13079623  1
  O  O215  1  0.98657875  0.23469171  0.62230212  1
  O  O216  1  1.01199920  0.74101983  0.13246047  1
  O  O217  1  0.99381870  0.75298527  0.63389371  1
  O  O218  1  0.01050084  0.24511993  0.37073498  1
  O  O219  1  -0.01301783  0.23851751  0.86265624  1
  O  O220  1  -0.00166067  0.76004478  0.36745974  1
  O  O221  1  0.00304578  0.75700138  0.86246953  1
  O  O222  1  0.52334206  0.25075794  0.38383693  1
  O  O223  1  0.50005369  0.26353624  0.87223821  1
  O  O224  1  0.50288112  0.76542275  0.36959845  1
  O  O225  1  0.50924496  0.75052018  0.85852882  1
  O  O226  1  0.22086612  0.12921335  0.49884742  1
  O  O227  1  0.27405156  0.13844038  1.01223785  1
  O  O228  1  0.24638307  0.62865223  0.49054942  1
  O  O229  1  0.26180727  0.63009815  0.98803888  1
  O  O230  1  0.74040219  0.13612635  0.49770634  1
  O  O231  1  0.73495908  0.11516286  0.99785162  1
  O  O232  1  0.75932788  0.61577039  0.47868353  1
  O  O233  1  0.77502122  0.61659020  1.01821065  1
  O  O234  1  0.26563576  0.37238450  0.01033411  1
  O  O235  1  0.23782972  0.36705225  0.49448825  1
  O  O236  1  0.25755682  0.86687546  0.01778177  1
  O  O237  1  0.23776780  0.85553970  0.50273936  1
  O  O238  1  0.75647674  0.39180051  0.00479627  1
  O  O239  1  0.73285846  0.35364096  0.50401550  1
  O  O240  1  0.76043128  0.87241480  0.01024836  1
  O  O241  1  0.70577858  0.84277445  0.49356108  1
  O  O242  1  0.13830189  0.48892334  0.24653794  1
  O  O243  1  0.14135900  0.50528587  0.73425154  1
  O  O244  1  0.12328340  0.98042275  0.24879668  1
  O  O245  1  0.11055537  0.98671664  0.73297590  1
  O  O246  1  0.62521921  0.49361135  0.23871842  1
  O  O247  1  0.63560608  0.50649001  0.74419862  1
  O  O248  1  0.63409634  0.98294232  0.24356101  1
  O  O249  1  0.64349196  0.99405510  0.74560753  1
  O  O250  1  0.38147136  0.02746980  0.26518564  1
  O  O251  1  0.35744645  0.02895725  0.74981227  1
  O  O252  1  0.37077996  0.50463229  0.25828454  1
  O  O253  1  0.36949322  0.51172892  0.75242242  1
  O  O254  1  0.85414890  -0.01212838  0.24917006  1
  O  O255  1  0.86866456  -0.00402506  0.75887242  1
  O  O256  1  0.86117376  0.50965712  0.22874083  1
  O  O257  1  0.84664743  0.51721833  0.73249213  1
  O  O258  1  0.12760787  0.37009749  0.35924168  1
  O  O259  1  0.13921984  0.36026482  0.86193894  1
  O  O260  1  0.11708664  0.87209237  0.36403404  1
  O  O261  1  0.10945163  0.87335848  0.85804710  1
  O  O262  1  0.63909906  0.35956617  0.36647565  1
  O  O263  1  0.61476746  0.37594881  0.86419479  1
  O  O264  1  0.61269627  0.86953988  0.35483233  1
  O  O265  1  0.62380351  0.87574394  0.85300062  1
  O  O266  1  0.35897703  0.15150950  0.15592079  1
  O  O267  1  0.35381567  0.13019954  0.64249672  1
  O  O268  1  0.36645453  0.63313506  0.13908286  1
  O  O269  1  0.38934591  0.62595866  0.63383643  1
  O  O270  1  0.87519987  0.13405914  0.11351855  1
  O  O271  1  0.88197257  0.12509009  0.61967332  1
  O  O272  1  0.88994300  0.63517599  0.12873966  1
  O  O273  1  0.87276085  0.64198759  0.64061848  1
  O  O274  1  0.25151629  0.26439932  0.12025442  1
  O  O275  1  0.22695982  0.25123899  0.60629975  1
  O  O276  1  0.25806169  0.75320069  0.11984123  1
  O  O277  1  0.25409242  0.74415862  0.62268707  1
  O  O278  1  0.76119994  0.25343666  0.11422038  1
  O  O279  1  0.76658198  0.24468442  0.61649733  1
  O  O280  1  0.75963602  0.75181377  0.12056412  1
  O  O281  1  0.75622436  0.75153847  0.62692874  1
  O  O282  1  0.22967665  0.23794850  0.39049110  1
  O  O283  1  0.25409560  0.25186287  0.89839006  1
  O  O284  1  0.24870734  0.73283001  0.37159478  1
  O  O285  1  0.24955059  0.73839449  0.88202141  1
  O  O286  1  0.74727356  0.24521328  0.38883917  1
  O  O287  1  0.77469131  0.25730187  0.90014162  1
  O  O288  1  0.74787601  0.73307074  0.36447624  1
  O  O289  1  0.73658921  0.75908973  0.87310091  1
  O  O290  1  0.00682731  0.12881776  0.01246515  1
  O  O291  1  -0.00084530  0.10950589  0.50082587  1
  O  O292  1  0.00469673  0.62500152  0.00942403  1
  O  O293  1  0.01494417  0.63196748  0.49062244  1
  O  O294  1  0.52297417  0.13134221  0.00255623  1
  O  O295  1  0.51411854  0.13262981  0.49391372  1
  O  O296  1  0.48883236  0.61902403  -0.00127958  1
  O  O297  1  0.49651334  0.63738304  0.51194552  1
  O  O298  1  0.51139060  0.38507456  0.50368928  1
  O  O299  1  0.50023654  0.37437083  0.98996500  1
  O  O300  1  0.49975497  0.87525974  0.49110157  1
  O  O301  1  0.47350327  0.88672388  1.00963133  1
  O  O302  1  0.99477949  0.37533144  0.48760497  1
  O  O303  1  1.02309694  0.38150176  1.00120206  1
  O  O304  1  1.00165271  0.87915733  0.48717439  1
  O  O305  1  0.99572940  0.86376565  0.98494951  1
  O  O306  1  0.49504047  0.50486682  0.39262899  1
  O  O307  1  0.50476177  0.49964109  0.89212164  1
  O  O308  1  0.51424523  0.98478503  0.37435944  1
  O  O309  1  0.48206663  1.00301463  0.83074043  1
  O  O310  1  0.99327139  0.49503233  0.37240359  1
  O  O311  1  1.01907610  0.50501645  0.89329985  1
  O  O312  1  0.99862308  0.98478604  0.38561639  1
  O  O313  1  0.99059334  0.98343795  0.86544278  1
  O  O314  1  -0.00143191  0.02770512  0.16208590  1
  O  O315  1  -0.00450625  0.00562186  0.61469740  1
  O  O316  1  0.01730182  0.50912347  0.11581843  1
  O  O317  1  0.00199555  0.49824425  0.64875322  1
  O  O318  1  0.45803481  0.03958954  0.10898515  1
  O  O319  1  0.52191844  0.00728779  0.64197168  1
  O  O320  1  0.50770208  0.50005886  0.11544305  1
  O  O321  1  0.50223090  0.51493620  0.61314087  1
  O  O322  1  0.25810720  0.38066397  0.24719156  1
  O  O323  1  0.25873563  0.39460399  0.75088684  1
  O  O324  1  0.23723002  0.86254306  0.24468636  1
  O  O325  1  0.22966179  0.86609801  0.74693155  1
  O  O326  1  0.74039078  0.39493242  0.25299496  1
  O  O327  1  0.73331874  0.39355473  0.75857497  1
  O  O328  1  0.74247469  0.87531793  0.23512465  1
  O  O329  1  0.74755097  0.88287352  0.74894060  1
  O  O330  1  0.26062219  0.13017129  0.27808078  1
  O  O331  1  0.25711815  0.13644138  0.75209805  1
  O  O332  1  0.25361604  0.61276226  0.26206028  1
  O  O333  1  0.25896189  0.61945854  0.75663594  1
  O  O334  1  0.73725573  0.10287833  0.24812951  1
  O  O335  1  0.74870124  0.11547788  0.76093640  1
  O  O336  1  0.75957645  0.61982740  0.24663639  1
  O  O337  1  0.74954278  0.62188931  0.75472029  1
  O  O338  1  0.34624495  0.09892949  0.42986109  1
  O  O339  1  0.37708811  0.13188341  0.85180598  1
  O  O340  1  0.36193723  0.61539049  0.37037160  1
  O  O341  1  0.36738099  0.62751716  0.86344822  1
  O  O342  1  0.87262595  0.10898758  0.38031677  1
  O  O343  1  0.87670398  0.10743871  0.88758213  1
  O  O344  1  0.86709898  0.62427725  0.35750016  1
  O  O345  1  0.88077945  0.62464113  0.84858602  1
  O  O346  1  0.14099373  0.38264836  0.13829765  1
  O  O347  1  0.11792820  0.39077325  0.62937990  1
  O  O348  1  0.13769995  0.87951155  0.13358750  1
  O  O349  1  0.11430832  0.88425322  0.63015221  1
  O  O350  1  0.62119982  0.37432560  0.14089016  1
  O  O351  1  0.61623219  0.40019628  0.64137165  1
  O  O352  1  0.63891735  0.86757423  0.12542346  1
  O  O353  1  0.62658894  0.89176430  0.63896751  1
  O  O354  1  0.13354753  0.26447114  0.25441712  1
  O  O355  1  0.10698606  0.23766300  0.75410977  1
  O  O356  1  0.11417215  0.75933122  0.24853292  1
  O  O357  1  0.11311745  0.75925717  0.74384151  1
  O  O358  1  0.63417145  0.25711367  0.25770690  1
  O  O359  1  0.63306604  0.27057497  0.73476863  1
  O  O360  1  0.61839278  0.76439047  0.24565196  1
  O  O361  1  0.62039492  0.76302727  0.75279224  1
  O  O362  1  0.38700944  0.21203309  0.31603495  1
  O  O363  1  0.35812977  0.23853574  0.75145272  1
  O  O364  1  0.37470942  0.73914278  0.24536693  1
  O  O365  1  0.38719884  0.74705463  0.75198905  1
  O  O366  1  0.86457183  0.22568732  0.24150620  1
  O  O367  1  0.88134314  0.24858836  0.73634501  1
  O  O368  1  0.89185095  0.74056955  0.24844602  1
  O  O369  1  0.88263060  0.74369784  0.74318589  1
  O  O370  1  0.39118012  0.49981627  0.49686157  1
  O  O371  1  0.39125396  0.49089429  1.00276972  1
  O  O372  1  0.38049266  0.96895701  0.56722917  1
  O  O373  1  0.34401648  0.98629509  0.98892223  1
  O  O374  1  0.88281583  0.49673512  0.49742594  1
  O  O375  1  0.90554545  0.48920960  1.01157717  1
  O  O376  1  0.88228632  0.99282846  0.50366510  1
  O  O377  1  0.87374019  0.98414344  0.98567916  1
  O  O378  1  0.13012933  0.01638221  0.01067501  1
  O  O379  1  0.10618419  0.00237457  0.50947285  1
  O  O380  1  0.13200932  0.49516983  0.01461914  1
  O  O381  1  0.11877435  0.50794973  0.51548209  1
  O  O382  1  0.62288105  -0.00108333  -0.01446835  1
  O  O383  1  0.63065062  0.01209210  0.51431714  1
  O  O384  1  0.61246575  0.50382178  0.01497804  1
  O  O385  1  0.61165200  0.50365076  0.51337816  1
  O  O386  1  0.37338716  0.37997275  0.11919307  1
  O  O387  1  0.39598038  0.35585219  0.63138265  1
  O  O388  1  0.36088569  0.86725943  0.13837191  1
  O  O389  1  0.37350010  0.92789569  0.63000407  1
  O  O390  1  0.87181931  0.35409425  0.15960077  1
  O  O391  1  0.87923738  0.36340779  0.62835906  1
  O  O392  1  0.87128810  0.87430318  0.11125960  1
  O  O393  1  0.87487707  0.85909381  0.62524392  1
  O  O394  1  0.12233131  0.12971404  0.37896571  1
  O  O395  1  0.12075684  0.13275372  0.90303647  1
  O  O396  1  0.13913984  0.61038812  0.38772569  1
  O  O397  1  0.14431291  0.62719024  0.86793326  1
  O  O398  1  0.63282246  0.13312930  0.38376630  1
  O  O399  1  0.63050465  0.12702921  0.88648516  1
  O  O400  1  0.63603845  0.62995108  0.37243531  1
  O  O401  1  0.62539952  0.64344684  0.87327401  1
