# generated using pymatgen
data_V73Zn73O256
_symmetry_space_group_name_H-M   'P 1'
_cell_length_a   16.87696685
_cell_length_b   16.89625629
_cell_length_c   16.88614947
_cell_angle_alpha   90.01823249
_cell_angle_beta   89.99415437
_cell_angle_gamma   90.05385775
_symmetry_Int_Tables_number   1
_chemical_formula_structural   V73Zn73O256
_chemical_formula_sum   'V73 Zn73 O256'
_cell_volume   4815.21073818
_cell_formula_units_Z   1
loop_
 _symmetry_equiv_pos_site_id
 _symmetry_equiv_pos_as_xyz
  1  'x, y, z'
loop_
 _atom_site_type_symbol
 _atom_site_label
 _atom_site_symmetry_multiplicity
 _atom_site_fract_x
 _atom_site_fract_y
 _atom_site_fract_z
 _atom_site_occupancy
  V  V0  1  0.75713616  -0.00672263  0.24119031  1
  V  V1  1  0.25175834  0.62606443  0.37357066  1
  V  V2  1  0.12396751  0.24323724  0.87908218  1
  V  V3  1  0.88911727  0.76521215  0.12872159  1
  V  V4  1  0.50030921  0.74321013  0.77148713  1
  V  V5  1  0.24429561  0.63918881  0.87445653  1
  V  V6  1  0.37730120  0.24855240  0.62903993  1
  V  V7  1  0.11516754  0.74933731  0.37047552  1
  V  V8  1  0.62688627  0.13312626  0.49550612  1
  V  V9  1  0.88702365  0.87156979  -0.02646120  1
  V  V10  1  0.87507433  0.03393348  0.87464625  1
  V  V11  1  0.74369567  0.13397501  0.37336477  1
  V  V12  1  0.60294853  0.89241191  0.76083874  1
  V  V13  1  0.62729008  0.51164471  0.12588238  1
  V  V14  1  0.25348907  0.24088852  0.00137898  1
  V  V15  1  0.76655487  0.01086738  0.74220834  1
  V  V16  1  0.49794815  0.37458287  0.37265557  1
  V  V17  1  0.12429974  0.61452552  0.51139155  1
  V  V18  1  0.24294500  0.49414650  0.74810028  1
  V  V19  1  0.36835857  0.62246391  0.74363265  1
  V  V20  1  0.11504395  0.63039569  0.00365370  1
  V  V21  1  0.14809387  -0.00773565  0.62741828  1
  V  V22  1  0.01591326  0.37339216  0.36576912  1
  V  V23  1  0.74732191  0.75386067  -0.00669543  1
  V  V24  1  0.50587115  -0.00447253  -0.00617000  1
  V  V25  1  0.61861609  0.86890693  0.24634246  1
  V  V26  1  0.25333556  0.76178958  0.50555005  1
  V  V27  1  -0.01244443  0.23996829  0.74942406  1
  V  V28  1  0.62328879  0.75775635  0.38472392  1
  V  V29  1  0.50350380  0.24117639  0.25470051  1
  V  V30  1  0.62658563  0.37985775  0.25528485  1
  V  V31  1  0.00063520  0.88065374  0.39265548  1
  V  V32  1  0.50417403  -0.02199330  0.49213008  1
  V  V33  1  0.23921187  0.23777105  0.49978318  1
  V  V34  1  0.12046999  0.36567072  0.75248181  1
  V  V35  1  0.88249971  0.24798803  0.13111753  1
  V  V36  1  0.50334069  0.11694738  0.62275438  1
  V  V37  1  0.49857412  0.12302250  0.12200913  1
  V  V38  1  0.73197779  0.23892736  -0.00641586  1
  V  V39  1  0.87803479  0.47883127  0.39875073  1
  V  V40  1  0.37531182  0.50141787  0.37562836  1
  V  V41  1  0.87970106  0.59912782  0.23865812  1
  V  V42  1  0.89097936  0.37926652  -0.00069967  1
  V  V43  1  0.26574388  0.12823417  0.85336297  1
  V  V44  1  0.83967446  0.25889019  0.57896476  1
  V  V45  1  0.11071719  0.50876138  0.12727227  1
  V  V46  1  0.00031115  0.77095326  0.75748322  1
  V  V47  1  0.24425906  0.37462979  0.62411018  1
  V  V48  1  0.12218465  0.88612278  0.23829673  1
  V  V49  1  0.88463248  0.13051248  0.24713792  1
  V  V50  1  0.37323753  0.37468535  0.00180305  1
  V  V51  1  0.74232227  0.61990190  0.87827161  1
  V  V52  1  0.87792637  -0.00221669  0.38706330  1
  V  V53  1  0.37072835  0.76479956  0.62866212  1
  V  V54  1  0.51730776  0.26184398  0.74410918  1
  V  V55  1  0.36948095  0.49896374  0.87603646  1
  V  V56  1  0.89533478  0.60537951  0.75419333  1
  V  V57  1  0.74610971  0.37360762  0.12546067  1
  V  V58  1  0.38632924  0.63328580  0.24237485  1
  V  V59  1  0.24129453  0.38407201  0.12924052  1
  V  V60  1  0.25042177  0.75633827  0.02229273  1
  V  V61  1  0.74016636  0.49357604  0.74327185  1
  V  V62  1  0.25626900  0.11548366  0.36044101  1
  V  V63  1  0.12492525  0.02000921  0.11863052  1
  V  V64  1  0.62987984  0.00354242  0.12188349  1
  V  V65  1  0.37660546  0.37675407  0.49917040  1
  V  V66  1  0.37686389  0.24927503  0.12990776  1
  V  V67  1  0.50388691  0.50724380  0.00349933  1
  V  V68  1  0.00545943  0.13320131  0.60062079  1
  V  V69  1  0.36722248  0.88277898  0.02026854  1
  V  V70  1  0.51203467  0.37456709  0.87116793  1
  V  V71  1  0.37092123  -0.00441431  0.86170380  1
  V  V72  1  0.12595529  0.24659386  0.35332892  1
  Zn  Zn73  1  0.54456082  0.69062921  0.17952091  1
  Zn  Zn74  1  0.37410590  0.00122178  0.38623965  1
  Zn  Zn75  1  0.61920750  0.62048485  0.50583016  1
  Zn  Zn76  1  0.51225570  0.61270380  0.62538453  1
  Zn  Zn77  1  0.76547500  0.65471946  0.39227176  1
  Zn  Zn78  1  0.72901438  0.86659572  0.62242156  1
  Zn  Zn79  1  0.01127341  0.49303111  0.51184574  1
  Zn  Zn80  1  0.00068238  0.01682498  -0.00159023  1
  Zn  Zn81  1  0.24544529  0.49765388  0.25171618  1
  Zn  Zn82  1  0.19970883  0.18455464  0.18698355  1
  Zn  Zn83  1  0.18230338  0.18170203  0.68016767  1
  Zn  Zn84  1  0.18270634  0.68610757  0.19253094  1
  Zn  Zn85  1  0.17547960  0.69106294  0.68760300  1
  Zn  Zn86  1  0.68824236  0.18620485  0.18784583  1
  Zn  Zn87  1  0.69002456  0.18912756  0.68055513  1
  Zn  Zn88  1  0.72156219  0.69181563  0.19107653  1
  Zn  Zn89  1  0.69684586  0.68950361  0.69641945  1
  Zn  Zn90  1  0.31000254  0.30890911  0.31139124  1
  Zn  Zn91  1  0.31854134  0.31163804  0.81229350  1
  Zn  Zn92  1  0.30420847  0.80899175  0.30131289  1
  Zn  Zn93  1  0.35817654  0.78651442  0.85554223  1
  Zn  Zn94  1  0.80676242  0.32621645  0.32790351  1
  Zn  Zn95  1  0.81025461  0.32119109  0.82165310  1
  Zn  Zn96  1  0.81666346  0.81673388  0.31259376  1
  Zn  Zn97  1  0.81228694  0.79442858  0.79577991  1
  Zn  Zn98  1  0.18943265  0.42988481  0.43582395  1
  Zn  Zn99  1  0.16685048  0.43713144  0.93998373  1
  Zn  Zn100  1  0.17979703  0.94326336  0.44632932  1
  Zn  Zn101  1  0.19931579  0.95353320  0.95015497  1
  Zn  Zn102  1  0.69505599  0.47948072  0.44005611  1
  Zn  Zn103  1  0.69710154  0.44114790  0.94287853  1
  Zn  Zn104  1  0.68655126  0.93892100  0.43997540  1
  Zn  Zn105  1  0.69995461  0.93284412  0.92532687  1
  Zn  Zn106  1  0.31213957  0.06232855  0.07531746  1
  Zn  Zn107  1  0.32096280  0.05571420  0.56256521  1
  Zn  Zn108  1  0.31488747  0.56824835  0.06065392  1
  Zn  Zn109  1  0.30716230  0.56077098  0.55993579  1
  Zn  Zn110  1  0.81882303  0.06402324  0.05560589  1
  Zn  Zn111  1  0.82391256  0.07431271  0.56501509  1
  Zn  Zn112  1  0.81961733  0.56611254  0.05894098  1
  Zn  Zn113  1  0.81281274  0.59749410  0.56266032  1
  Zn  Zn114  1  0.43839633  0.44457107  0.19063259  1
  Zn  Zn115  1  0.43919563  0.44035629  0.68418318  1
  Zn  Zn116  1  0.43993801  0.93486071  0.18895081  1
  Zn  Zn117  1  0.44818203  0.93538569  0.68809546  1
  Zn  Zn118  1  0.94934120  0.42200236  0.18428053  1
  Zn  Zn119  1  0.88521396  0.45810285  0.64878108  1
  Zn  Zn120  1  0.95111220  0.93261373  0.18635193  1
  Zn  Zn121  1  0.97754952  0.97659081  0.71182800  1
  Zn  Zn122  1  0.06693972  0.06187861  0.31650369  1
  Zn  Zn123  1  0.06900525  0.06787186  0.81581870  1
  Zn  Zn124  1  0.05507656  0.56228472  0.31062642  1
  Zn  Zn125  1  0.05165821  0.53703619  0.83206630  1
  Zn  Zn126  1  0.56272678  0.05314682  0.31396153  1
  Zn  Zn127  1  0.60200901  0.08653041  0.79906670  1
  Zn  Zn128  1  0.57020668  0.56693204  0.32910193  1
  Zn  Zn129  1  0.56357146  0.56148773  0.81308048  1
  Zn  Zn130  1  0.43260060  0.18487926  0.44058674  1
  Zn  Zn131  1  0.47710274  0.16037361  0.90716102  1
  Zn  Zn132  1  0.44398634  0.69842487  0.43556378  1
  Zn  Zn133  1  0.46564131  0.71512386  0.99077169  1
  Zn  Zn134  1  0.93598747  0.19930253  0.42713380  1
  Zn  Zn135  1  0.92909849  0.20867350  0.93896607  1
  Zn  Zn136  1  0.94121686  0.66731131  0.42944450  1
  Zn  Zn137  1  0.94122297  0.69585442  0.91790481  1
  Zn  Zn138  1  0.05776848  0.19474294  0.06068974  1
  Zn  Zn139  1  0.00746739  0.34730846  0.58773449  1
  Zn  Zn140  1  0.05707285  0.81589401  0.05344095  1
  Zn  Zn141  1  0.07985399  0.81164111  0.57876152  1
  Zn  Zn142  1  0.56020885  0.31821722  0.06400727  1
  Zn  Zn143  1  0.56383268  0.30879860  0.55060240  1
  Zn  Zn144  1  0.57245404  0.82575081  0.06116637  1
  Zn  Zn145  1  0.57192670  0.77894287  0.58300702  1
  O  O146  1  0.12272773  0.12574363  0.12697181  1
  O  O147  1  0.10834587  0.11838887  0.62300369  1
  O  O148  1  0.12557213  0.62299648  0.11522533  1
  O  O149  1  0.14192066  0.61329667  0.60901679  1
  O  O150  1  0.61291829  0.11346807  0.13145394  1
  O  O151  1  0.61490484  0.12868282  0.60625463  1
  O  O152  1  0.63453138  0.61212215  0.14403212  1
  O  O153  1  0.62073729  0.66432282  0.61716218  1
  O  O154  1  0.37518681  0.37943663  0.37964852  1
  O  O155  1  0.37881321  0.38239317  0.88370472  1
  O  O156  1  0.37677598  0.89504004  0.32819526  1
  O  O157  1  0.35955700  0.89513452  0.88857918  1
  O  O158  1  0.90619253  0.37111825  0.36503712  1
  O  O159  1  0.88718660  0.35446890  0.90009011  1
  O  O160  1  0.88891070  0.88741797  0.37411604  1
  O  O161  1  0.87350437  0.86753825  0.87342460  1
  O  O162  1  0.24644885  0.01438878  0.38505262  1
  O  O163  1  0.25970489  0.01885541  0.87533550  1
  O  O164  1  0.25691527  0.50723781  0.37216144  1
  O  O165  1  0.25716440  0.49601092  0.86953244  1
  O  O166  1  0.76406525  0.00255276  0.36161117  1
  O  O167  1  0.76832879  0.00609033  0.86752933  1
  O  O168  1  0.78078950  0.43892774  0.38333316  1
  O  O169  1  0.75120232  0.51126329  0.87024628  1
  O  O170  1  0.25763749  0.48933285  0.12539556  1
  O  O171  1  0.25408278  0.48655029  0.63606227  1
  O  O172  1  0.22764348  1.00500693  0.12370750  1
  O  O173  1  0.24645585  1.01889672  0.63792006  1
  O  O174  1  0.73414383  0.48925494  0.12127894  1
  O  O175  1  0.77191259  0.50257994  0.64211220  1
  O  O176  1  0.74475734  1.01333068  0.13527803  1
  O  O177  1  0.77798089  1.00429321  0.64025193  1
  O  O178  1  0.02154108  0.38338486  0.26342599  1
  O  O179  1  0.02097528  0.35936193  0.75497805  1
  O  O180  1  0.01456074  0.87786401  0.27113296  1
  O  O181  1  -0.01977495  0.86736203  0.73724185  1
  O  O182  1  0.50519141  0.36472107  0.25261480  1
  O  O183  1  0.49762159  0.36973771  0.75464381  1
  O  O184  1  0.51970244  0.87371602  0.24189825  1
  O  O185  1  0.49524993  0.85229932  0.75771124  1
  O  O186  1  0.50431034  0.13567547  0.24507919  1
  O  O187  1  0.51170800  0.14386035  0.72665191  1
  O  O188  1  0.49193795  0.62129104  0.25556898  1
  O  O189  1  0.48200828  0.62771346  0.75389154  1
  O  O190  1  0.98247203  0.12189177  0.25912004  1
  O  O191  1  0.99765860  0.13929715  0.74970046  1
  O  O192  1  0.97295126  0.63103929  0.27112690  1
  O  O193  1  0.99946532  0.60499414  0.76399748  1
  O  O194  1  0.37094090  0.26214395  0.01187887  1
  O  O195  1  0.36902791  0.26104006  0.50626275  1
  O  O196  1  0.36006903  0.77051241  -0.00897737  1
  O  O197  1  0.36349395  0.74679155  0.51508457  1
  O  O198  1  0.85988329  0.25658011  0.02180307  1
  O  O199  1  0.85448903  0.26154535  0.47770896  1
  O  O200  1  0.88074580  0.76348891  -0.00439351  1
  O  O201  1  0.84552823  0.68659307  0.48707066  1
  O  O202  1  0.14216389  0.24721950  0.49338454  1
  O  O203  1  0.13654936  0.24988210  0.98579004  1
  O  O204  1  0.13723126  0.73886149  0.49826974  1
  O  O205  1  0.14119274  0.74214795  1.00633770  1
  O  O206  1  0.62252951  0.23356289  0.48739656  1
  O  O207  1  0.63135491  0.25218779  1.00830993  1
  O  O208  1  0.63163835  0.75583436  0.48594953  1
  O  O209  1  0.64830872  0.76096590  1.00197391  1
  O  O210  1  0.49451429  0.24282887  0.13137867  1
  O  O211  1  0.49620201  0.25750724  0.62941682  1
  O  O212  1  0.50099272  0.74623234  0.09419607  1
  O  O213  1  0.47534728  0.74148975  0.64413503  1
  O  O214  1  0.98145991  0.25119038  0.13201540  1
  O  O215  1  1.01013307  0.24388926  0.64179013  1
  O  O216  1  0.98792744  0.74591272  0.11380286  1
  O  O217  1  0.90034830  0.76492739  0.57138929  1
  O  O218  1  0.01968233  0.25512383  0.36867004  1
  O  O219  1  0.02049142  0.24344960  0.86688859  1
  O  O220  1  0.01094768  0.75610213  0.38619600  1
  O  O221  1  0.02379810  0.75462817  0.85509202  1
  O  O222  1  0.48872856  0.25588529  0.35953675  1
  O  O223  1  0.49140912  0.26092931  0.85122736  1
  O  O224  1  0.51997147  0.75832624  0.37313018  1
  O  O225  1  0.47052411  0.74166618  0.87223697  1
  O  O226  1  0.25787425  0.13710903  0.49763300  1
  O  O227  1  0.25987406  0.14012773  1.00254561  1
  O  O228  1  0.24572979  0.63079286  0.48793828  1
  O  O229  1  0.25736974  0.64355488  0.99121048  1
  O  O230  1  0.73870015  0.11587662  0.48520989  1
  O  O231  1  0.74816384  0.13957575  1.00877576  1
  O  O232  1  0.72927890  0.58647522  0.48444049  1
  O  O233  1  0.76132204  0.63479785  0.98661867  1
  O  O234  1  0.25680122  0.36925592  0.00763822  1
  O  O235  1  0.25652651  0.36369438  0.50688997  1
  O  O236  1  0.25247079  0.86598084  0.00499318  1
  O  O237  1  0.24935707  0.85946061  0.49272005  1
  O  O238  1  0.75271582  0.36620367  0.01424373  1
  O  O239  1  0.69900641  0.40428171  0.54582822  1
  O  O240  1  0.76783587  0.86300267  -0.01005062  1
  O  O241  1  0.74779370  0.88698972  0.51562125  1
  O  O242  1  0.13048152  0.51968435  0.23238569  1
  O  O243  1  0.13662697  0.47792008  0.76100094  1
  O  O244  1  0.12015407  0.99420906  0.23791600  1
  O  O245  1  0.09402505  1.00258927  0.72523288  1
  O  O246  1  0.61629120  0.48613074  0.24131170  1
  O  O247  1  0.63891712  0.51029707  0.74276007  1
  O  O248  1  0.63734063  0.99322236  0.24346213  1
  O  O249  1  0.57093767  0.98742388  0.75254568  1
  O  O250  1  0.36317460  -0.04128456  0.27065667  1
  O  O251  1  0.38316620  -0.00667615  0.76397777  1
  O  O252  1  0.36878766  0.50956850  0.25981829  1
  O  O253  1  0.36300248  0.50287340  0.75760369  1
  O  O254  1  0.86759542  0.00936225  0.24733897  1
  O  O255  1  0.87369072  0.01249287  0.76432238  1
  O  O256  1  0.87812110  0.49712160  0.23837530  1
  O  O257  1  0.87019240  0.50323824  0.76012076  1
  O  O258  1  0.13436550  0.35610508  0.36860707  1
  O  O259  1  0.14981752  0.34894783  0.86118166  1
  O  O260  1  0.11631869  0.86581338  0.37780644  1
  O  O261  1  0.13866220  0.88627861  0.85650522  1
  O  O262  1  0.61186150  0.37730008  0.35958787  1
  O  O263  1  0.60963407  0.38464738  0.88417571  1
  O  O264  1  0.63334739  0.87274889  0.35277129  1
  O  O265  1  0.62406705  0.87633285  0.86003202  1
  O  O266  1  0.38301830  0.13766335  0.12845931  1
  O  O267  1  0.39544392  0.13841183  0.61222084  1
  O  O268  1  0.37502387  0.61974863  0.14269125  1
  O  O269  1  0.36055611  0.62542288  0.63965650  1
  O  O270  1  0.86820962  0.13472985  0.13854490  1
  O  O271  1  0.88144354  0.16533349  0.60822850  1
  O  O272  1  0.87592570  0.62856140  0.13721596  1
  O  O273  1  0.88069097  0.61877632  0.65078798  1
  O  O274  1  0.25704623  0.26193237  0.11933227  1
  O  O275  1  0.25670718  0.25156512  0.61507272  1
  O  O276  1  0.25492072  0.74649183  0.12004192  1
  O  O277  1  0.25532783  0.74763845  0.61579681  1
  O  O278  1  0.74997442  0.25852117  0.12330143  1
  O  O279  1  0.74162281  0.25441461  0.60721127  1
  O  O280  1  0.77523739  0.74277388  0.10113586  1
  O  O281  1  0.76209720  0.78284214  0.69379974  1
  O  O282  1  0.24696534  0.23997776  0.38123370  1
  O  O283  1  0.25854777  0.23785273  0.88182521  1
  O  O284  1  0.24322710  0.74420456  0.38644932  1
  O  O285  1  0.24866366  0.73955111  0.87015160  1
  O  O286  1  0.74952919  0.23201875  0.36535628  1
  O  O287  1  0.74817434  0.25617473  0.89517077  1
  O  O288  1  0.73902653  0.76681699  0.37247949  1
  O  O289  1  0.75636469  0.73797095  0.88319611  1
  O  O290  1  -0.01162835  0.13304324  -0.00056861  1
  O  O291  1  0.00270794  0.14352137  0.50107589  1
  O  O292  1  0.01822995  0.63426080  -0.01188000  1
  O  O293  1  0.02045389  0.61868649  0.49978338  1
  O  O294  1  0.48812670  0.10677679  0.01551165  1
  O  O295  1  0.51007771  0.12663688  0.50454845  1
  O  O296  1  0.49172541  0.60471650  -0.00947518  1
  O  O297  1  0.50404987  0.64150383  0.51075277  1
  O  O298  1  0.48812628  0.36526179  0.48347410  1
  O  O299  1  0.49000640  0.38216486  0.99300665  1
  O  O300  1  0.51504730  0.88229475  0.51164823  1
  O  O301  1  0.48205017  0.88906909  1.00682330  1
  O  O302  1  1.02330030  0.37429613  0.47677897  1
  O  O303  1  0.98449409  0.36300717  1.02460159  1
  O  O304  1  1.01021260  0.86912817  0.49200630  1
  O  O305  1  0.99049311  0.88256894  0.98673751  1
  O  O306  1  0.48207499  0.48381179  0.36144318  1
  O  O307  1  0.48773614  0.49292949  0.87737040  1
  O  O308  1  0.49686852  0.99530162  0.38556064  1
  O  O309  1  0.48072629  1.00268385  0.89440895  1
  O  O310  1  0.99905670  0.48721260  0.38109550  1
  O  O311  1  1.05706620  0.46097708  0.90969950  1
  O  O312  1  0.99150119  0.99299127  0.37913906  1
  O  O313  1  0.98254888  1.01619913  0.87470848  1
  O  O314  1  0.01545120  0.00154934  0.12076025  1
  O  O315  1  -0.03286838  0.03917433  0.61653318  1
  O  O316  1  0.01323603  0.49999130  0.12264872  1
  O  O317  1  -0.00445138  0.45884254  0.61896913  1
  O  O318  1  0.50572592  0.00583541  0.12187720  1
  O  O319  1  0.49615550  0.01420373  0.61521132  1
  O  O320  1  0.51346872  0.49576934  0.11774868  1
  O  O321  1  0.49653710  0.50262471  0.61603261  1
  O  O322  1  0.25511428  0.37495950  0.23272610  1
  O  O323  1  0.25217594  0.37737721  0.74156445  1
  O  O324  1  0.22018331  0.86797017  0.25599500  1
  O  O325  1  0.17536731  0.86956775  0.79482252  1
  O  O326  1  0.73127576  0.36497281  0.24418142  1
  O  O327  1  0.75003455  0.39343590  0.76063600  1
  O  O328  1  0.75160650  0.89220115  0.24354115  1
  O  O329  1  0.71834255  0.92045221  0.75094067  1
  O  O330  1  0.25873145  0.12091446  0.26006178  1
  O  O331  1  0.26256389  0.13592889  0.75537553  1
  O  O332  1  0.25925296  0.62840708  0.26353095  1
  O  O333  1  0.24266128  0.61759238  0.75995640  1
  O  O334  1  0.75289520  0.11479767  0.25977860  1
  O  O335  1  0.70837494  0.09950922  0.74896703  1
  O  O336  1  0.78345994  0.63720896  0.26948031  1
  O  O337  1  0.75922674  0.61592579  0.76325790  1
  O  O338  1  0.36164732  0.12246200  0.37727129  1
  O  O339  1  0.37162092  0.11506706  0.87555692  1
  O  O340  1  0.37057298  0.61796911  0.37430776  1
  O  O341  1  0.35542123  0.61340351  0.86439233  1
  O  O342  1  0.86625143  0.11603828  0.36535923  1
  O  O343  1  0.86631292  0.13194264  0.87766282  1
  O  O344  1  0.87143003  0.58056782  0.37320177  1
  O  O345  1  0.86961082  0.62667731  0.86219808  1
  O  O346  1  0.13987744  0.39634975  0.11882922  1
  O  O347  1  0.13919716  0.36197706  0.64159391  1
  O  O348  1  0.11416696  0.87375336  0.13680258  1
  O  O349  1  0.14438634  0.88939131  0.62974803  1
  O  O350  1  0.62815823  0.38178092  0.13571428  1
  O  O351  1  0.63736671  0.39696277  0.58931823  1
  O  O352  1  0.63039802  0.89528502  0.13200418  1
  O  O353  1  0.61596422  0.85690481  0.65760970  1
  O  O354  1  0.13248621  0.24885927  0.25446595  1
  O  O355  1  0.12865122  0.25177958  0.75862712  1
  O  O356  1  0.12212758  0.75104743  0.26796518  1
  O  O357  1  0.07477598  0.74672273  0.68217024  1
  O  O358  1  0.60862813  0.25919863  0.24356302  1
  O  O359  1  0.61608923  0.26085906  0.73938579  1
  O  O360  1  0.63358735  0.76526957  0.22720047  1
  O  O361  1  0.59801678  0.73403355  0.76923468  1
  O  O362  1  0.38765540  0.25998514  0.23751934  1
  O  O363  1  0.38163766  0.25513664  0.73255450  1
  O  O364  1  0.37592392  0.73253352  0.25840337  1
  O  O365  1  0.36617136  0.73994652  0.74443295  1
  O  O366  1  0.86557022  0.23730762  0.24557114  1
  O  O367  1  0.89051212  0.25701452  0.76118153  1
  O  O368  1  0.87733293  0.76727150  0.22993861  1
  O  O369  1  0.90417564  0.73112422  0.75002290  1
  O  O370  1  0.36429638  0.48629890  0.48981901  1
  O  O371  1  0.37811783  0.49270569  0.99369336  1
  O  O372  1  0.39485439  0.99478170  0.50149999  1
  O  O373  1  0.37350746  0.99120661  1.00487458  1
  O  O374  1  0.88223803  0.48901517  0.49884073  1
  O  O375  1  0.87156967  0.47932936  1.01148961  1
  O  O376  1  0.87094054  1.00599010  0.48369680  1
  O  O377  1  0.87278990  0.99111222  0.98406136  1
  O  O378  1  0.12037606  0.00301205  0.01158415  1
  O  O379  1  0.12464174  0.00052100  0.52589364  1
  O  O380  1  0.14184018  0.52234092  0.01819971  1
  O  O381  1  0.13412192  0.51249609  0.49007006  1
  O  O382  1  0.61139114  -0.01312077  0.00384445  1
  O  O383  1  0.60999698  0.01264988  0.49314307  1
  O  O384  1  0.61837771  0.49772781  0.01629032  1
  O  O385  1  0.59684105  0.52774290  0.43642611  1
  O  O386  1  0.37297221  0.37212108  0.11674469  1
  O  O387  1  0.36560810  0.36852942  0.61662507  1
  O  O388  1  0.36762742  0.87761710  0.11893655  1
  O  O389  1  0.37307354  0.86317161  0.63388217  1
  O  O390  1  0.86303119  0.36087245  0.13430584  1
  O  O391  1  0.88151442  0.34331359  0.61846548  1
  O  O392  1  0.88514987  0.87013638  0.10966669  1
  O  O393  1  0.87632683  0.83290943  0.57759237  1
  O  O394  1  0.13948706  0.13657472  0.36887188  1
  O  O395  1  0.14899551  0.13614131  0.86804725  1
  O  O396  1  0.13130203  0.63710966  0.37842597  1
  O  O397  1  0.14258644  0.61643608  0.89140680  1
  O  O398  1  0.63690818  0.11803521  0.37724291  1
  O  O399  1  0.58492503  0.12956492  0.89619072  1
  O  O400  1  0.63968246  0.65711916  0.35261247  1
  O  O401  1  0.64070042  0.62215351  0.87648840  1
