# generated using pymatgen
data_V73Zn73O256
_symmetry_space_group_name_H-M   'P 1'
_cell_length_a   16.82900037
_cell_length_b   16.82111971
_cell_length_c   16.83640656
_cell_angle_alpha   90.16137126
_cell_angle_beta   90.01325549
_cell_angle_gamma   90.13687686
_symmetry_Int_Tables_number   1
_chemical_formula_structural   V73Zn73O256
_chemical_formula_sum   'V73 Zn73 O256'
_cell_volume   4766.06160842
_cell_formula_units_Z   1
loop_
 _symmetry_equiv_pos_site_id
 _symmetry_equiv_pos_as_xyz
  1  'x, y, z'
loop_
 _atom_site_type_symbol
 _atom_site_label
 _atom_site_symmetry_multiplicity
 _atom_site_fract_x
 _atom_site_fract_y
 _atom_site_fract_z
 _atom_site_occupancy
  V  V0  1  0.36948184  0.24129542  0.13336658  1
  V  V1  1  0.25178586  0.85893849  0.12300089  1
  V  V2  1  0.37089451  0.36233476  0.00394059  1
  V  V3  1  0.50110685  0.25080200  0.73911040  1
  V  V4  1  0.75417747  0.87575716  0.61828414  1
  V  V5  1  0.88027260  0.13108212  0.74146937  1
  V  V6  1  0.39644420  -0.00616016  0.37636874  1
  V  V7  1  0.24236203  -0.00654757  0.74771635  1
  V  V8  1  0.62650089  0.13652839  0.48371126  1
  V  V9  1  0.12042520  0.26101703  0.88500495  1
  V  V10  1  0.24707171  0.13468881  0.87931880  1
  V  V11  1  0.24815563  0.49687893  0.74133818  1
  V  V12  1  0.74307766  0.63445614  0.88906640  1
  V  V13  1  0.87804365  0.49379939  0.86261471  1
  V  V14  1  0.89686052  0.74470735  0.10505176  1
  V  V15  1  0.76199349  0.86121332  0.11882962  1
  V  V16  1  0.62408356  0.87079791  0.75368910  1
  V  V17  1  0.24574467  0.86907805  0.60830448  1
  V  V18  1  0.00330211  0.61764891  0.62608323  1
  V  V19  1  0.87639300  0.64470627  0.26000880  1
  V  V20  1  0.88077983  0.75193462  0.63124726  1
  V  V21  1  0.25489974  0.50724791  0.25479823  1
  V  V22  1  0.13819925  0.74987010  0.87163016  1
  V  V23  1  0.11469575  0.01056657  0.61282166  1
  V  V24  1  0.74724666  0.12589902  0.88458317  1
  V  V25  1  0.12381412  0.37646655  0.25996995  1
  V  V26  1  0.25206217  0.24540345  0.51304164  1
  V  V27  1  0.26498976  0.11713284  0.36017194  1
  V  V28  1  0.73876404  0.38327434  0.13849282  1
  V  V29  1  0.87684282  0.25942736  0.11855402  1
  V  V30  1  0.51161416  0.12571598  0.10862876  1
  V  V31  1  -0.00186300  0.25544363  0.74414491  1
  V  V32  1  0.87551379  -0.00260912  0.88197617  1
  V  V33  1  0.11702503  0.86871836  0.25265928  1
  V  V34  1  0.50713255  0.24076597  0.25629034  1
  V  V35  1  0.00319687  0.49454136  0.48733452  1
  V  V36  1  0.12773970  0.37688849  0.73575963  1
  V  V37  1  -0.01316568  0.49418588  -0.00230701  1
  V  V38  1  0.74980229  0.00112872  0.74900074  1
  V  V39  1  0.38022337  0.62552717  0.74162817  1
  V  V40  1  0.61829611  -0.01911749  0.11737029  1
  V  V41  1  0.74827226  0.50734732  0.74404717  1
  V  V42  1  0.62331583  0.24533499  0.87970437  1
  V  V43  1  0.37520441  0.13043404  0.73346677  1
  V  V44  1  0.37110530  0.50349618  0.37844440  1
  V  V45  1  0.50412141  0.87521372  0.87926149  1
  V  V46  1  0.91367303  -0.01167174  0.40946037  1
  V  V47  1  0.50198735  0.38104513  0.36990698  1
  V  V48  1  0.75866269  0.36496099  0.62462856  1
  V  V49  1  0.61787027  0.74980302  0.36544456  1
  V  V50  1  0.11712418  0.50262065  0.12158669  1
  V  V51  1  -0.00338546  -0.00446330  0.00300044  1
  V  V52  1  0.00364754  0.87066217  0.86642767  1
  V  V53  1  0.13105238  0.23889015  0.37796268  1
  V  V54  1  0.86284974  0.49751508  0.37377604  1
  V  V55  1  0.60879084  0.00696522  0.61696596  1
  V  V56  1  -0.01102733  0.12305706  0.12758292  1
  V  V57  1  0.75603294  0.74059327  0.49454598  1
  V  V58  1  0.60468683  0.51862589  0.12438190  1
  V  V59  1  0.75449646  0.26352079  -0.00276190  1
  V  V60  1  0.13538553  0.00362495  0.13009213  1
  V  V61  1  0.61193786  0.62376557  0.50179966  1
  V  V62  1  0.36508313  0.86759679  -0.00353518  1
  V  V63  1  0.37856689  0.00536698  0.87832939  1
  V  V64  1  0.37695102  0.50360959  0.88863356  1
  V  V65  1  0.37548376  0.36661858  0.50885073  1
  V  V66  1  0.75375160  0.01017763  0.24888206  1
  V  V67  1  0.37921401  0.75592269  0.61494489  1
  V  V68  1  0.50704185  0.37612865  0.87933099  1
  V  V69  1  0.15744821  0.74792300  0.37318106  1
  V  V70  1  -0.00264746  0.24818786  0.25588308  1
  V  V71  1  0.13906231  0.62729802  0.49729164  1
  V  V72  1  0.61218054  0.49962222  0.62401856  1
  Zn  Zn73  1  0.00730990  0.75081936  0.74509824  1
  Zn  Zn74  1  0.12665315  0.13069911  0.00412815  1
  Zn  Zn75  1  0.12501434  0.63742357  0.00805505  1
  Zn  Zn76  1  0.50302992  0.87319459  0.40848971  1
  Zn  Zn77  1  0.25542541  0.63041940  0.88501039  1
  Zn  Zn78  1  0.63877113  0.25791436  0.37042628  1
  Zn  Zn79  1  0.86796548  0.34036620  0.49755835  1
  Zn  Zn80  1  0.51244709  0.73768995  0.75093193  1
  Zn  Zn81  1  0.24291670  0.36697080  0.12266915  1
  Zn  Zn82  1  0.18654331  0.18576941  0.18991978  1
  Zn  Zn83  1  0.18231490  0.18537904  0.69186040  1
  Zn  Zn84  1  0.18762411  0.68554432  0.19010926  1
  Zn  Zn85  1  0.18945013  0.68821268  0.69210483  1
  Zn  Zn86  1  0.68879510  0.19191721  0.18551457  1
  Zn  Zn87  1  0.68436549  0.18649263  0.69260530  1
  Zn  Zn88  1  0.69514738  0.68172605  0.18429250  1
  Zn  Zn89  1  0.69198083  0.68324183  0.68531726  1
  Zn  Zn90  1  0.31308460  0.31534736  0.31351140  1
  Zn  Zn91  1  0.31511856  0.31439309  0.80959569  1
  Zn  Zn92  1  0.31430406  0.83885183  0.31145943  1
  Zn  Zn93  1  0.31679352  0.81472229  0.80810478  1
  Zn  Zn94  1  0.82784260  0.33090577  0.30494318  1
  Zn  Zn95  1  0.80859321  0.31980010  0.80840425  1
  Zn  Zn96  1  0.80461415  0.83061258  0.31198114  1
  Zn  Zn97  1  0.81499501  0.81057836  0.81484607  1
  Zn  Zn98  1  0.18890234  0.43393097  0.44494041  1
  Zn  Zn99  1  0.19258907  0.43790839  0.93606258  1
  Zn  Zn100  1  0.18379282  0.94328601  0.43482098  1
  Zn  Zn101  1  0.18436847  0.94123295  0.93701918  1
  Zn  Zn102  1  0.68570608  0.43389129  0.44872658  1
  Zn  Zn103  1  0.68995028  0.45103465  0.94326987  1
  Zn  Zn104  1  0.68502055  0.93813204  0.43459461  1
  Zn  Zn105  1  0.68703504  0.93936979  0.94469309  1
  Zn  Zn106  1  0.31653354  0.06506857  0.05985983  1
  Zn  Zn107  1  0.30645585  0.05906290  0.55135661  1
  Zn  Zn108  1  0.29624204  0.55209662  0.05968094  1
  Zn  Zn109  1  0.31978325  0.55806517  0.56092362  1
  Zn  Zn110  1  0.80536082  0.06220058  0.06903218  1
  Zn  Zn111  1  0.81237592  0.06342811  0.55529443  1
  Zn  Zn112  1  0.81054483  0.56989650  0.06881121  1
  Zn  Zn113  1  0.81782179  0.56189461  0.56217145  1
  Zn  Zn114  1  0.44370846  0.43694891  0.19085382  1
  Zn  Zn115  1  0.43558507  0.43387779  0.69369054  1
  Zn  Zn116  1  0.42589722  0.95433811  0.18401311  1
  Zn  Zn117  1  0.43384277  0.93635049  0.68661118  1
  Zn  Zn118  1  0.93838991  0.44023178  0.19195948  1
  Zn  Zn119  1  0.93915077  0.43370445  0.68266865  1
  Zn  Zn120  1  0.93478807  0.93083860  0.19122038  1
  Zn  Zn121  1  0.93504568  0.94090251  0.68409452  1
  Zn  Zn122  1  0.05893163  0.06012737  0.31392030  1
  Zn  Zn123  1  0.06179771  0.06373586  0.81013320  1
  Zn  Zn124  1  0.05831713  0.57153265  0.31107844  1
  Zn  Zn125  1  0.06213665  0.56288967  0.81513698  1
  Zn  Zn126  1  0.57053965  0.06022355  0.30350296  1
  Zn  Zn127  1  0.56053821  0.06390479  0.80816141  1
  Zn  Zn128  1  0.68822620  0.55917051  0.30776562  1
  Zn  Zn129  1  0.56635367  0.55866952  0.81436238  1
  Zn  Zn130  1  0.44103069  0.17854708  0.44683431  1
  Zn  Zn131  1  0.43543126  0.18801917  0.93396989  1
  Zn  Zn132  1  0.43706667  0.68678716  0.43419618  1
  Zn  Zn133  1  0.45235799  0.69066786  0.94368103  1
  Zn  Zn134  1  0.90480068  0.17165519  0.42848536  1
  Zn  Zn135  1  0.93874615  0.18653612  0.93706200  1
  Zn  Zn136  1  0.93377887  0.67956933  0.44423936  1
  Zn  Zn137  1  0.94145938  0.66996807  0.93077703  1
  Zn  Zn138  1  0.05854670  0.31934333  0.06463858  1
  Zn  Zn139  1  0.03305297  0.28334389  0.53799023  1
  Zn  Zn140  1  0.06426015  0.81699126  0.05509612  1
  Zn  Zn141  1  0.07365232  0.80971339  0.55749458  1
  Zn  Zn142  1  0.56170146  0.31539584  0.06272367  1
  Zn  Zn143  1  0.57001852  0.31613206  0.55466069  1
  Zn  Zn144  1  0.56250468  0.80066550  0.05204246  1
  Zn  Zn145  1  0.56659221  0.80943313  0.56954087  1
  O  O146  1  0.11826448  0.11420765  0.12582308  1
  O  O147  1  0.12738891  0.11107399  0.62705274  1
  O  O148  1  0.12695491  0.60623781  0.13078953  1
  O  O149  1  0.11563324  0.64210333  0.60807955  1
  O  O150  1  0.61257241  0.13264197  0.11786224  1
  O  O151  1  0.62798994  0.10751316  0.63339631  1
  O  O152  1  0.62668735  0.61958538  0.11970341  1
  O  O153  1  0.62839605  0.61361866  0.61691894  1
  O  O154  1  0.38129792  0.37773167  0.38225515  1
  O  O155  1  0.37957376  0.37942494  0.88642214  1
  O  O156  1  0.38502100  0.88577619  0.38445826  1
  O  O157  1  0.37792916  0.88641117  0.87853376  1
  O  O158  1  0.87446276  0.39049167  0.38925081  1
  O  O159  1  0.86411031  0.39351139  0.87844404  1
  O  O160  1  0.87004057  0.90291757  0.37177081  1
  O  O161  1  0.88316416  0.89007186  0.87039279  1
  O  O162  1  0.25058339  0.01591977  0.37654283  1
  O  O163  1  0.25216455  0.01073218  0.86368459  1
  O  O164  1  0.25718371  0.49086986  0.36474255  1
  O  O165  1  0.26833108  0.49825826  0.86926573  1
  O  O166  1  0.73286235  -0.00689765  0.34813226  1
  O  O167  1  0.75479420  0.00574736  0.87068436  1
  O  O168  1  0.75748015  0.50118861  0.38400973  1
  O  O169  1  0.75344560  0.50356448  0.86095335  1
  O  O170  1  0.24031982  0.49041757  0.14083324  1
  O  O171  1  0.25363063  0.50426237  0.64252521  1
  O  O172  1  0.23674506  1.00276762  0.12005993  1
  O  O173  1  0.24793893  0.99061311  0.63258349  1
  O  O174  1  0.76154259  0.48169072  0.12398945  1
  O  O175  1  0.75351544  0.49750431  0.63414686  1
  O  O176  1  0.73641848  0.98902429  0.12483036  1
  O  O177  1  0.75314367  0.99208503  0.63774188  1
  O  O178  1  0.01299130  0.36135880  0.24644377  1
  O  O179  1  0.01179085  0.36668040  0.74960000  1
  O  O180  1  0.01791474  0.87058778  0.24444151  1
  O  O181  1  -0.00267543  0.87935397  0.76414925  1
  O  O182  1  0.49514253  0.36183663  0.26293825  1
  O  O183  1  0.48569942  0.35875250  0.76686975  1
  O  O184  1  0.46579621  0.83705188  0.22364058  1
  O  O185  1  0.51044660  0.88088437  0.75906926  1
  O  O186  1  0.50000460  0.13771125  0.23900882  1
  O  O187  1  0.48535054  0.13641744  0.75333882  1
  O  O188  1  0.46870777  0.64490707  0.24375125  1
  O  O189  1  0.48454014  0.62033415  0.75599141  1
  O  O190  1  1.01056627  0.13723798  0.23810449  1
  O  O191  1  0.98741715  0.13397432  0.75573098  1
  O  O192  1  0.97758962  0.62132282  0.24970987  1
  O  O193  1  1.01262703  0.62654314  0.72972432  1
  O  O194  1  0.37422730  0.25739224  0.00728744  1
  O  O195  1  0.36372274  0.25483325  0.49942012  1
  O  O196  1  0.36854742  0.76890452  -0.01262132  1
  O  O197  1  0.37557929  0.74120137  0.51662304  1
  O  O198  1  0.86926534  0.24931276  0.00670100  1
  O  O199  1  0.79363592  0.23059454  0.42731263  1
  O  O200  1  0.88661287  0.73904083  0.00650237  1
  O  O201  1  0.86224117  0.74927685  0.50916886  1
  O  O202  1  0.13344151  0.25598051  0.48365821  1
  O  O203  1  0.12168625  0.25126188  0.98943108  1
  O  O204  1  0.13767715  0.74381767  0.48215758  1
  O  O205  1  0.11744838  0.75253178  0.97897831  1
  O  O206  1  0.63198866  0.24418320  0.49011625  1
  O  O207  1  0.63413718  0.25431620  0.98654619  1
  O  O208  1  0.63671567  0.73744595  0.51010443  1
  O  O209  1  0.53873775  0.70287595  1.01316942  1
  O  O210  1  0.49366878  0.24342696  0.13093771  1
  O  O211  1  0.51079041  0.26083002  0.64131247  1
  O  O212  1  0.50450711  0.67245883  0.18713690  1
  O  O213  1  0.48247617  0.75569403  0.63786313  1
  O  O214  1  0.99597760  0.24312305  0.12909624  1
  O  O215  1  1.01141695  0.24613481  0.64668858  1
  O  O216  1  0.99658308  0.75135913  0.12079704  1
  O  O217  1  0.99178647  0.75323589  0.62043819  1
  O  O218  1  0.01452870  0.24009670  0.35867034  1
  O  O219  1  0.01577934  0.24429955  0.86706730  1
  O  O220  1  0.00089120  0.77854261  0.40640374  1
  O  O221  1  -0.00539381  0.76362468  0.87092826  1
  O  O222  1  0.49395922  0.25123707  0.36168956  1
  O  O223  1  0.50551002  0.25702029  0.87215541  1
  O  O224  1  0.51171442  0.74954795  0.37693283  1
  O  O225  1  0.49059935  0.77223428  0.86273728  1
  O  O226  1  0.25310534  0.14197949  0.48466280  1
  O  O227  1  0.24746650  0.12279735  0.98299170  1
  O  O228  1  0.23771412  0.61736712  0.50523367  1
  O  O229  1  0.23875625  0.62138629  0.99615222  1
  O  O230  1  0.72882675  0.11803843  0.50756291  1
  O  O231  1  0.75511694  0.13663175  0.98918306  1
  O  O232  1  0.74868002  0.63743024  0.50542817  1
  O  O233  1  0.74724501  0.62107350  0.98942312  1
  O  O234  1  0.26678677  0.37745981  0.00377759  1
  O  O235  1  0.26046904  0.35824458  0.49359870  1
  O  O236  1  0.25496476  0.87954950  0.00616948  1
  O  O237  1  0.25262661  0.87735998  0.50963769  1
  O  O238  1  0.74981631  0.36575447  0.00437731  1
  O  O239  1  0.75556189  0.37520974  0.51663035  1
  O  O240  1  0.74765950  0.87749976  0.01748111  1
  O  O241  1  0.74105056  0.86578104  0.51502636  1
  O  O242  1  0.12748938  0.49047022  0.24938442  1
  O  O243  1  0.13716045  0.48879675  0.76045577  1
  O  O244  1  0.12108783  0.98771703  0.23601357  1
  O  O245  1  0.13938522  1.00622901  0.74471652  1
  O  O246  1  0.62980948  0.50464448  0.22728286  1
  O  O247  1  0.63709774  0.50365781  0.73578184  1
  O  O248  1  0.63162154  1.00407065  0.22445193  1
  O  O249  1  0.63576393  0.99442698  0.74673813  1
  O  O250  1  0.37117889  -0.00604217  0.27200659  1
  O  O251  1  0.36577258  0.01280815  0.75596926  1
  O  O252  1  0.36139486  0.48974689  0.25916960  1
  O  O253  1  0.36700951  0.50704996  0.75737985  1
  O  O254  1  0.85628201  -0.00182435  0.23188476  1
  O  O255  1  0.86902155  0.01166624  0.75832325  1
  O  O256  1  0.87704130  0.49547092  0.27066387  1
  O  O257  1  0.87100320  0.49715057  0.75612020  1
  O  O258  1  0.12836705  0.36424560  0.36448039  1
  O  O259  1  0.13258969  0.36295630  0.87119046  1
  O  O260  1  0.14114888  0.86378069  0.36011436  1
  O  O261  1  0.11148009  0.87022526  0.87709558  1
  O  O262  1  0.60694728  0.37500453  0.38590695  1
  O  O263  1  0.61069313  0.37169739  0.87868725  1
  O  O264  1  0.61946029  0.85557713  0.38519679  1
  O  O265  1  0.61216030  0.88437841  0.87201843  1
  O  O266  1  0.38443350  0.13664901  0.11951559  1
  O  O267  1  0.36737355  0.12059883  0.63569532  1
  O  O268  1  0.36331259  0.62554346  0.13262004  1
  O  O269  1  0.37001822  0.63260390  0.63638845  1
  O  O270  1  0.88351843  0.13679202  0.12181642  1
  O  O271  1  0.86766069  0.12499213  0.64374260  1
  O  O272  1  0.86883836  0.64519694  0.13823820  1
  O  O273  1  0.89300027  0.63932688  0.61715124  1
  O  O274  1  0.26435560  0.24820569  0.12895289  1
  O  O275  1  0.24223379  0.24429842  0.61180709  1
  O  O276  1  0.24640729  0.75923504  0.12044227  1
  O  O277  1  0.25788560  0.76197781  0.63079057  1
  O  O278  1  0.75720548  0.25885116  0.11570933  1
  O  O279  1  0.74359200  0.26636297  0.63969525  1
  O  O280  1  0.75146291  0.75937471  0.12150402  1
  O  O281  1  0.76254103  0.75507709  0.62120757  1
  O  O282  1  0.24129051  0.24209683  0.37225878  1
  O  O283  1  0.24098465  0.24083715  0.86804173  1
  O  O284  1  0.25658458  0.74787071  0.36375710  1
  O  O285  1  0.24121181  0.75471015  0.87137864  1
  O  O286  1  0.75859524  0.24766327  0.35739180  1
  O  O287  1  0.74425015  0.24638491  0.87741841  1
  O  O288  1  0.74283902  0.75975535  0.39250250  1
  O  O289  1  0.75818201  0.73447844  0.87255161  1
  O  O290  1  0.00456723  0.11665915  0.00973513  1
  O  O291  1  -0.06925034  0.24591426  0.50387204  1
  O  O292  1  0.01451504  0.60157971  -0.00774544  1
  O  O293  1  0.01296626  0.61918065  0.50603168  1
  O  O294  1  0.49809550  0.13003465  0.00884968  1
  O  O295  1  0.52365421  0.13031443  0.50645725  1
  O  O296  1  0.41548998  0.66404512  0.09522036  1
  O  O297  1  0.51277719  0.62882509  0.50398980  1
  O  O298  1  0.48408985  0.36051193  0.48548636  1
  O  O299  1  0.48815545  0.36920290  0.98660016  1
  O  O300  1  0.49592210  0.87794020  0.52006126  1
  O  O301  1  0.48577848  0.87722376  0.98479300  1
  O  O302  1  1.01042007  0.39648791  0.51024883  1
  O  O303  1  1.00524929  0.39309556  0.99687707  1
  O  O304  1  1.00085858  0.83469538  0.46035431  1
  O  O305  1  0.99855878  0.88957482  0.98914024  1
  O  O306  1  0.48320601  0.48368663  0.36881688  1
  O  O307  1  0.48904443  0.48453378  0.86618929  1
  O  O308  1  0.50118501  0.99445021  0.36868397  1
  O  O309  1  0.48746544  0.99367906  0.86610806  1
  O  O310  1  0.99656426  0.50070744  0.38341233  1
  O  O311  1  0.98656295  0.50032571  0.87847349  1
  O  O312  1  1.01614061  0.98767368  0.38765181  1
  O  O313  1  0.99601613  0.99598232  0.88136912  1
  O  O314  1  0.00321951  0.00467917  0.12058548  1
  O  O315  1  0.01627928  -0.00562999  0.63099527  1
  O  O316  1  0.00903347  0.49538878  0.11767683  1
  O  O317  1  -0.00277593  0.51415369  0.61632077  1
  O  O318  1  0.50681183  0.01460733  0.12803087  1
  O  O319  1  0.51023152  0.00076165  0.63322811  1
  O  O320  1  0.50178186  0.50582494  0.12597033  1
  O  O321  1  0.51300740  0.49444686  0.63299743  1
  O  O322  1  0.23633266  0.37837431  0.24825900  1
  O  O323  1  0.24358022  0.38530325  0.75251488  1
  O  O324  1  0.24244899  0.87508460  0.22897482  1
  O  O325  1  0.25323881  0.89208311  0.75028413  1
  O  O326  1  0.74581186  0.36803741  0.23840030  1
  O  O327  1  0.75217739  0.39083964  0.73709505  1
  O  O328  1  0.74504473  0.88335501  0.22558787  1
  O  O329  1  0.74536486  0.88402112  0.74880212  1
  O  O330  1  0.25176082  0.12647794  0.26028029  1
  O  O331  1  0.25985243  0.12112479  0.75715941  1
  O  O332  1  0.24783389  0.60701242  0.25056920  1
  O  O333  1  0.26012908  0.61318148  0.76020749  1
  O  O334  1  0.74923374  0.11255083  0.23640449  1
  O  O335  1  0.75991303  0.12029861  0.76152658  1
  O  O336  1  0.76810081  0.62272871  0.25223840  1
  O  O337  1  0.75613845  0.61141467  0.75048631  1
  O  O338  1  0.36961828  0.12283108  0.36976218  1
  O  O339  1  0.36281347  0.12305201  0.86944324  1
  O  O340  1  0.37753288  0.60319762  0.38396417  1
  O  O341  1  0.38433827  0.61275951  0.87967658  1
  O  O342  1  0.88534170  0.08149200  0.37033136  1
  O  O343  1  0.86743949  0.11752407  0.86881657  1
  O  O344  1  0.87575090  0.61492055  0.36981113  1
  O  O345  1  0.86097665  0.60477535  0.87806762  1
  O  O346  1  0.12500108  0.38193433  0.13842060  1
  O  O347  1  0.12799176  0.37434368  0.63961297  1
  O  O348  1  0.13454310  0.88162820  0.12811300  1
  O  O349  1  0.13951667  0.88029398  0.62232058  1
  O  O350  1  0.63577795  0.37613494  0.12503072  1
  O  O351  1  0.63760418  0.39396592  0.61441968  1
  O  O352  1  0.61304037  0.87595445  0.11743040  1
  O  O353  1  0.63473533  0.88815537  0.63659645  1
  O  O354  1  0.12141654  0.25935411  0.25436097  1
  O  O355  1  0.12003574  0.26065743  0.75918508  1
  O  O356  1  0.12928987  0.75682345  0.26145571  1
  O  O357  1  0.12295803  0.75362490  0.76345612  1
  O  O358  1  0.61225996  0.25043205  0.25296791  1
  O  O359  1  0.60936824  0.24543103  0.76418129  1
  O  O360  1  0.63411200  0.73973726  0.26804519  1
  O  O361  1  0.62862383  0.76549070  0.74071936  1
  O  O362  1  0.38347247  0.25552134  0.23630618  1
  O  O363  1  0.38187932  0.23936077  0.75005121  1
  O  O364  1  0.40631687  0.79174641  0.24004854  1
  O  O365  1  0.37082097  0.73161303  0.75037989  1
  O  O366  1  0.89336449  0.25348228  0.24417587  1
  O  O367  1  0.88713377  0.24361799  0.75981571  1
  O  O368  1  0.87432298  0.74649551  0.26450184  1
  O  O369  1  0.88008736  0.75014515  0.73463332  1
  O  O370  1  0.36406721  0.48208913  0.48737719  1
  O  O371  1  0.37663284  0.49208841  0.99193949  1
  O  O372  1  0.37789229  1.01394565  0.47781477  1
  O  O373  1  0.36783927  0.99460315  0.98401961  1
  O  O374  1  0.89140992  0.51017265  0.48925584  1
  O  O375  1  0.88498720  0.50216711  1.00028048  1
  O  O376  1  0.89232681  0.99716937  0.51091279  1
  O  O377  1  0.88238836  1.01035287  0.99192978  1
  O  O378  1  0.11597423  0.00132723  0.01327055  1
  O  O379  1  0.12691196  0.00079163  0.51280019  1
  O  O380  1  0.12874978  0.49097851  0.01807701  1
  O  O381  1  0.11819607  0.51614237  0.48723563  1
  O  O382  1  0.62438558  0.00410295  0.01776313  1
  O  O383  1  0.62564575  0.00286793  0.51388314  1
  O  O384  1  0.62599336  0.49290965  0.02308549  1
  O  O385  1  0.62720362  0.51429449  0.51079515  1
  O  O386  1  0.38129965  0.36397331  0.11391174  1
  O  O387  1  0.38031710  0.37989940  0.60825060  1
  O  O388  1  0.36140348  0.88531846  0.10813749  1
  O  O389  1  0.36161120  0.86410268  0.63388369  1
  O  O390  1  0.87014762  0.36321375  0.13164003  1
  O  O391  1  0.86583520  0.37305968  0.61999125  1
  O  O392  1  0.87183286  0.85484673  0.12545255  1
  O  O393  1  0.86716465  0.86447456  0.62891892  1
  O  O394  1  0.13389963  0.13587687  0.36837556  1
  O  O395  1  0.13593792  0.13390349  0.87194764  1
  O  O396  1  0.12474911  0.64194527  0.37918409  1
  O  O397  1  0.12655905  0.64143159  0.87114502  1
  O  O398  1  0.62534133  0.13005103  0.37933974  1
  O  O399  1  0.63562219  0.13150562  0.86918757  1
  O  O400  1  0.63173093  0.63582007  0.39291403  1
  O  O401  1  0.64157177  0.62149318  0.86774704  1
