# generated using pymatgen
data_V73Zn73O256
_symmetry_space_group_name_H-M   'P 1'
_cell_length_a   16.85110516
_cell_length_b   16.90256722
_cell_length_c   16.91463134
_cell_angle_alpha   90.06117665
_cell_angle_beta   89.69438207
_cell_angle_gamma   89.72939253
_symmetry_Int_Tables_number   1
_chemical_formula_structural   V73Zn73O256
_chemical_formula_sum   'V73 Zn73 O256'
_cell_volume   4817.61749758
_cell_formula_units_Z   1
loop_
 _symmetry_equiv_pos_site_id
 _symmetry_equiv_pos_as_xyz
  1  'x, y, z'
loop_
 _atom_site_type_symbol
 _atom_site_label
 _atom_site_symmetry_multiplicity
 _atom_site_fract_x
 _atom_site_fract_y
 _atom_site_fract_z
 _atom_site_occupancy
  V  V0  1  0.12933495  0.23566084  0.37081387  1
  V  V1  1  0.74232557  0.86821082  0.12545098  1
  V  V2  1  0.88758840  0.37148770  0.01468416  1
  V  V3  1  0.48640333  0.13744377  0.13047125  1
  V  V4  1  0.62535172  0.12280369  0.00197982  1
  V  V5  1  0.00405137  0.00169942  -0.00061360  1
  V  V6  1  0.25529691  0.36351403  0.12285285  1
  V  V7  1  -0.00257603  0.37825190  0.37763618  1
  V  V8  1  0.35624309  0.50591495  0.38010244  1
  V  V9  1  0.61454923  0.11864241  0.49982185  1
  V  V10  1  0.87245746  0.76961127  0.62081325  1
  V  V11  1  0.62240448  0.87528119  0.25157844  1
  V  V12  1  0.37381945  0.88155613  0.51500327  1
  V  V13  1  0.75471167  0.11426452  0.36909968  1
  V  V14  1  0.12632665  0.13944849  -0.02302687  1
  V  V15  1  0.86352999  0.51461257  0.88488822  1
  V  V16  1  0.86533277  -0.00111566  0.86877150  1
  V  V17  1  0.14290294  0.00368280  0.13462025  1
  V  V18  1  0.75153476  0.25752615  0.49345139  1
  V  V19  1  0.50826427  0.73661561  0.74022588  1
  V  V20  1  0.74673728  0.49615562  0.75201313  1
  V  V21  1  0.37584396  0.36165842  0.00291505  1
  V  V22  1  0.62068526  0.62714075  -0.00292205  1
  V  V23  1  0.74119870  0.74342136  -0.01011894  1
  V  V24  1  0.50262490  0.37242960  0.86899935  1
  V  V25  1  -0.00489477  -0.01233324  0.50400476  1
  V  V26  1  0.87892074  0.12682527  0.73405716  1
  V  V27  1  0.36540927  0.37270254  0.50441138  1
  V  V28  1  0.63758731  0.00281968  0.62758167  1
  V  V29  1  0.74933222  0.25794289  0.01930252  1
  V  V30  1  0.37382100  0.24626987  0.63908906  1
  V  V31  1  0.49432534  -0.00767475  -0.00394446  1
  V  V32  1  0.13137140  0.61405821  0.50248884  1
  V  V33  1  0.50232576  0.73199862  0.25239838  1
  V  V34  1  0.49714458  0.86452505  0.86657663  1
  V  V35  1  0.86982505  0.87132293  0.00448111  1
  V  V36  1  0.37447729  0.51202146  0.86623155  1
  V  V37  1  0.48984500  0.37885631  0.36825351  1
  V  V38  1  0.88414356  0.50935455  0.34825485  1
  V  V39  1  0.88040048  -0.02181072  0.36994525  1
  V  V40  1  0.49392959  0.12180177  0.64171060  1
  V  V41  1  0.63836049  0.50088485  0.13843219  1
  V  V42  1  0.25397277  0.01767148  0.75018658  1
  V  V43  1  0.62885283  0.25678207  0.87213882  1
  V  V44  1  0.62677597  0.74473917  0.38920234  1
  V  V45  1  0.63625854  0.87850386  0.74595950  1
  V  V46  1  0.13933280  0.87382255  0.74952760  1
  V  V47  1  -0.00080927  0.87107249  0.87598860  1
  V  V48  1  0.12986797  0.37273040  0.71091022  1
  V  V49  1  -0.01527055  0.50369746  0.49931187  1
  V  V50  1  0.13331531  0.51307931  0.12518510  1
  V  V51  1  0.37151160  0.01259697  0.87203774  1
  V  V52  1  -0.00956672  0.24491482  0.24780159  1
  V  V53  1  0.13158759  0.38288522  0.25138071  1
  V  V54  1  0.00361175  0.51646925  0.00421795  1
  V  V55  1  0.88081374  0.26085629  0.61256463  1
  V  V56  1  0.49534208  0.50563754  0.01619610  1
  V  V57  1  0.60664076  0.24070744  0.36716567  1
  V  V58  1  -0.01116653  0.62290214  0.62406347  1
  V  V59  1  -0.00466450  0.77235761  0.25033315  1
  V  V60  1  0.36292463  0.62154815  0.25273651  1
  V  V61  1  0.24835372  0.23459234  0.50204804  1
  V  V62  1  0.31304473  0.79564542  0.05926180  1
  V  V63  1  0.37402918  0.72377375  0.63249700  1
  V  V64  1  0.75873071  0.76408691  0.50466199  1
  V  V65  1  0.25254106  0.74551199  0.49717611  1
  V  V66  1  0.35929164  0.00280919  0.36355064  1
  V  V67  1  0.49761425  0.88129168  0.38313548  1
  V  V68  1  0.61986416  -0.00794836  0.12702774  1
  V  V69  1  0.13797505  0.73420708  0.88143266  1
  V  V70  1  0.76875253  0.62913753  0.36800179  1
  V  V71  1  -0.00886590  0.74886236  0.75033503  1
  V  V72  1  0.74859859  0.12298772  0.86753059  1
  Zn  Zn73  1  0.59908889  0.55358035  0.53414972  1
  Zn  Zn74  1  0.63225455  0.36613246  0.23739077  1
  Zn  Zn75  1  0.11482145  0.75323071  0.37894661  1
  Zn  Zn76  1  0.86337351  0.11393622  0.23757470  1
  Zn  Zn77  1  0.12640090  0.00001620  0.62327897  1
  Zn  Zn78  1  -0.00957123  0.13449477  0.11391146  1
  Zn  Zn79  1  -0.01541180  0.64296965  0.13680402  1
  Zn  Zn80  1  0.03501870  0.22818305  0.80397990  1
  Zn  Zn81  1  0.11164151  0.12209351  0.51571224  1
  Zn  Zn82  1  0.17286952  0.18620037  0.17041466  1
  Zn  Zn83  1  0.18323827  0.18759517  0.68721433  1
  Zn  Zn84  1  0.19043773  0.69496315  0.19400605  1
  Zn  Zn85  1  0.17686966  0.69750104  0.67839119  1
  Zn  Zn86  1  0.67725774  0.17586700  0.18986689  1
  Zn  Zn87  1  0.66831090  0.23345905  0.66623856  1
  Zn  Zn88  1  0.68328658  0.68397955  0.18485951  1
  Zn  Zn89  1  0.68660212  0.67419158  0.68950122  1
  Zn  Zn90  1  0.30440964  0.31226452  0.31434962  1
  Zn  Zn91  1  0.33568724  0.37876048  0.76016882  1
  Zn  Zn92  1  0.31852729  0.80771534  0.31699756  1
  Zn  Zn93  1  0.32010405  0.80497688  0.81586553  1
  Zn  Zn94  1  0.80707285  0.31316409  0.30948724  1
  Zn  Zn95  1  0.85577862  0.32477750  0.81815852  1
  Zn  Zn96  1  0.81002895  0.80715944  0.30205276  1
  Zn  Zn97  1  0.80997937  0.80596021  0.81459959  1
  Zn  Zn98  1  0.18178297  0.43081244  0.44931816  1
  Zn  Zn99  1  0.20139790  0.45777697  0.95041718  1
  Zn  Zn100  1  0.19188983  0.93749125  0.44293589  1
  Zn  Zn101  1  0.19327347  0.92695255  0.94146105  1
  Zn  Zn102  1  0.69795685  0.42861497  0.39797892  1
  Zn  Zn103  1  0.68930750  0.44030053  0.94409789  1
  Zn  Zn104  1  0.68651070  0.93906477  0.44069185  1
  Zn  Zn105  1  0.68108258  0.93297758  0.93521718  1
  Zn  Zn106  1  0.30788322  0.07276863  0.04789221  1
  Zn  Zn107  1  0.31147622  0.06128668  0.56585985  1
  Zn  Zn108  1  0.31133572  0.57677590  0.06827741  1
  Zn  Zn109  1  0.44167570  0.54297936  0.57362846  1
  Zn  Zn110  1  0.81052029  0.05718990  0.06241259  1
  Zn  Zn111  1  0.81070469  0.05970417  0.54968656  1
  Zn  Zn112  1  0.81471636  0.56453647  0.07714804  1
  Zn  Zn113  1  0.78431286  0.57953627  0.57360547  1
  Zn  Zn114  1  0.43193103  0.43878662  0.19577696  1
  Zn  Zn115  1  0.57826331  0.41957910  0.68143315  1
  Zn  Zn116  1  0.42847489  0.92732630  0.18257590  1
  Zn  Zn117  1  0.44164184  0.94109056  0.69186944  1
  Zn  Zn118  1  0.94663061  0.43259459  0.18130627  1
  Zn  Zn119  1  0.90276148  0.45537626  0.68136589  1
  Zn  Zn120  1  0.93723770  0.93583342  0.18461951  1
  Zn  Zn121  1  0.93795111  0.94129083  0.68944960  1
  Zn  Zn122  1  0.05523645  0.05269749  0.31568887  1
  Zn  Zn123  1  0.05969432  0.05626278  0.81125464  1
  Zn  Zn124  1  0.07220819  0.57344007  0.31269037  1
  Zn  Zn125  1  0.04548140  0.56201157  0.81477149  1
  Zn  Zn126  1  0.54977760  0.06312179  0.30995007  1
  Zn  Zn127  1  0.56395677  0.06206307  0.81209480  1
  Zn  Zn128  1  0.57339021  0.55116685  0.33896021  1
  Zn  Zn129  1  0.57033771  0.55373431  0.81658408  1
  Zn  Zn130  1  0.43185979  0.17775281  0.44102529  1
  Zn  Zn131  1  0.44203997  0.18570942  0.93673071  1
  Zn  Zn132  1  0.44245543  0.68312729  0.44544346  1
  Zn  Zn133  1  0.40469420  0.67686098  0.95441402  1
  Zn  Zn134  1  0.93894757  0.17936343  0.43675482  1
  Zn  Zn135  1  0.92804004  0.19086367  0.93666142  1
  Zn  Zn136  1  0.94251442  0.69798583  0.43412816  1
  Zn  Zn137  1  0.94022473  0.69173798  0.95098261  1
  Zn  Zn138  1  0.06766802  0.31791466  0.06728736  1
  Zn  Zn139  1  0.05527799  0.30846127  0.55598112  1
  Zn  Zn140  1  0.11150278  0.79751375  0.08589915  1
  Zn  Zn141  1  0.06460704  0.81742981  0.56425620  1
  Zn  Zn142  1  0.56262617  0.31624750  0.06432197  1
  Zn  Zn143  1  0.55102849  0.31298242  0.54992416  1
  Zn  Zn144  1  0.52417533  0.79099068  0.05018982  1
  Zn  Zn145  1  0.56158015  0.81343353  0.56817786  1
  O  O146  1  0.11087413  0.11491199  0.10347872  1
  O  O147  1  0.12367032  0.11460212  0.62872461  1
  O  O148  1  0.13467454  0.61213939  0.12867386  1
  O  O149  1  0.10385023  0.64069248  0.60970707  1
  O  O150  1  0.61263825  0.11038362  0.11840296  1
  O  O151  1  0.61451766  0.12191238  0.62110051  1
  O  O152  1  0.62580362  0.61082785  0.11671100  1
  O  O153  1  0.67333564  0.60468426  0.60114620  1
  O  O154  1  0.37335421  0.37757466  0.37625541  1
  O  O155  1  0.38877253  0.38038030  0.89000452  1
  O  O156  1  0.38547195  0.87754207  0.38461941  1
  O  O157  1  0.39335811  0.88209804  0.86402682  1
  O  O158  1  0.88952892  0.39586312  0.36232780  1
  O  O159  1  0.86151153  0.39990243  0.91307923  1
  O  O160  1  0.86375739  0.88133770  0.37318866  1
  O  O161  1  0.87644782  0.87944937  0.88005500  1
  O  O162  1  0.25945539  -0.00030764  0.37564944  1
  O  O163  1  0.26543454  -0.00834175  0.86928290  1
  O  O164  1  0.25689867  0.49506375  0.38516783  1
  O  O165  1  0.27304572  0.50608362  0.88259234  1
  O  O166  1  0.75898635  0.00753235  0.38175991  1
  O  O167  1  0.75529532  0.00766962  0.88352972  1
  O  O168  1  0.77662626  0.52068615  0.37131898  1
  O  O169  1  0.75638101  0.50688350  0.87897539  1
  O  O170  1  0.23909841  0.49467643  0.11294191  1
  O  O171  1  0.25070674  0.54633463  0.68868983  1
  O  O172  1  0.24239660  1.02231435  0.12589172  1
  O  O173  1  0.25266045  1.00132870  0.64702825  1
  O  O174  1  0.73833582  0.49754322  0.12608340  1
  O  O175  1  0.79114249  0.49592279  0.65341819  1
  O  O176  1  0.72784655  0.98658735  0.11413010  1
  O  O177  1  0.73634309  1.00840921  0.62484954  1
  O  O178  1  0.01198812  0.36701877  0.25674546  1
  O  O179  1  0.02225218  0.40373224  0.74218311  1
  O  O180  1  0.01051108  0.87239386  0.24346408  1
  O  O181  1  0.00228257  0.86955642  0.76125916  1
  O  O182  1  0.49502058  0.36933632  0.26469652  1
  O  O183  1  0.50482349  0.37440049  0.77106052  1
  O  O184  1  0.50344350  0.85914889  0.26777403  1
  O  O185  1  0.50990002  0.86990571  0.75337755  1
  O  O186  1  0.49435187  0.11765144  0.22947890  1
  O  O187  1  0.50394208  0.13117540  0.74065291  1
  O  O188  1  0.50640517  0.63199483  0.27462240  1
  O  O189  1  0.52409118  0.63901875  0.75113332  1
  O  O190  1  0.99774710  0.14128532  0.25572000  1
  O  O191  1  0.98134116  0.12627933  0.75585268  1
  O  O192  1  1.01007690  0.64324703  0.24978767  1
  O  O193  1  1.00446467  0.63691911  0.73313557  1
  O  O194  1  0.37932390  0.26336918  -0.00267081  1
  O  O195  1  0.35658423  0.24742241  0.49410490  1
  O  O196  1  0.41646596  0.77245128  0.00975732  1
  O  O197  1  0.37095840  0.75076817  0.51742812  1
  O  O198  1  0.86068161  0.26139417  0.00644063  1
  O  O199  1  0.86178533  0.24351495  0.49702496  1
  O  O200  1  0.85813797  0.76317690  -0.00351693  1
  O  O201  1  0.87199635  0.76049203  0.50989358  1
  O  O202  1  0.13121485  0.24560061  0.48698000  1
  O  O203  1  0.10974188  0.23590565  1.00171504  1
  O  O204  1  0.14220864  0.75822388  0.49921486  1
  O  O205  1  0.12032775  0.75210030  0.97855408  1
  O  O206  1  0.63136335  0.23603384  0.48532300  1
  O  O207  1  0.63047824  0.23906943  0.99962577  1
  O  O208  1  0.63659167  0.75733239  0.49502686  1
  O  O209  1  0.62450292  0.73683210  1.00539897  1
  O  O210  1  0.50488433  0.23599319  0.12075577  1
  O  O211  1  0.48011468  0.23781909  0.62002242  1
  O  O212  1  0.51126763  0.74276669  0.15398032  1
  O  O213  1  0.48955457  0.74828319  0.63257879  1
  O  O214  1  1.00743939  0.25275670  0.14504242  1
  O  O215  1  0.97923277  0.23586128  0.59826896  1
  O  O216  1  1.02027685  0.75509637  0.13933509  1
  O  O217  1  0.98861723  0.75238427  0.63012688  1
  O  O218  1  0.01033277  0.25893090  0.37035751  1
  O  O219  1  -0.05090514  0.27116490  0.86023180  1
  O  O220  1  -0.00044156  0.76434556  0.36452476  1
  O  O221  1  -0.00304675  0.75551540  0.86722946  1
  O  O222  1  0.50493506  0.23355079  0.36855250  1
  O  O223  1  0.51511682  0.26054859  0.88721027  1
  O  O224  1  0.51494630  0.75532040  0.37970195  1
  O  O225  1  0.50080936  0.76189340  0.85567467  1
  O  O226  1  0.24484731  0.13239914  0.49836473  1
  O  O227  1  0.22596577  0.12390219  0.98335814  1
  O  O228  1  0.23302915  0.63439455  0.51444368  1
  O  O229  1  0.30705554  0.68018677  1.02228169  1
  O  O230  1  0.73666853  0.12588411  0.48548701  1
  O  O231  1  0.73873828  0.12808054  0.99652111  1
  O  O232  1  0.76713108  0.64877220  0.47834915  1
  O  O233  1  0.73824465  0.63863319  1.00792297  1
  O  O234  1  0.26703577  0.37974547  0.01039625  1
  O  O235  1  0.25827134  0.35731271  0.49509925  1
  O  O236  1  0.26994158  0.85804727  -0.00853468  1
  O  O237  1  0.26619206  0.85944481  0.50096652  1
  O  O238  1  0.74048315  0.35850991  0.01017557  1
  O  O239  1  0.74418253  0.35533750  0.48096386  1
  O  O240  1  0.74763518  0.86512059  0.00366467  1
  O  O241  1  0.74854584  0.86355305  0.50090633  1
  O  O242  1  0.12205434  0.49224642  0.23923561  1
  O  O243  1  0.07978359  0.46723811  0.75028491  1
  O  O244  1  0.12111496  1.01303879  0.23272162  1
  O  O245  1  0.13918155  0.98701067  0.76228217  1
  O  O246  1  0.61752246  0.50494276  0.23942072  1
  O  O247  1  0.63991147  0.48442649  0.75331349  1
  O  O248  1  0.60977414  0.98528684  0.24037266  1
  O  O249  1  0.62410954  0.99316243  0.73831389  1
  O  O250  1  0.37558985  -0.01625314  0.26506191  1
  O  O251  1  0.36491688  -0.00050858  0.75981952  1
  O  O252  1  0.37283515  0.50836014  0.27039583  1
  O  O253  1  0.38312018  0.48225095  0.76873101  1
  O  O254  1  0.88003586  -0.00114266  0.26484352  1
  O  O255  1  0.87594994  0.00868883  0.76164118  1
  O  O256  1  0.89066571  0.51025275  0.25024840  1
  O  O257  1  0.88749470  0.50645328  0.78523438  1
  O  O258  1  0.11865577  0.37271551  0.36650536  1
  O  O259  1  0.15955634  0.34596541  0.89095857  1
  O  O260  1  0.16532482  0.86248335  0.35023673  1
  O  O261  1  0.11655264  0.86516586  0.86680249  1
  O  O262  1  0.59645479  0.35001046  0.38520839  1
  O  O263  1  0.61713716  0.36424622  0.88924491  1
  O  O264  1  0.61631842  0.87103867  0.37329331  1
  O  O265  1  0.61425926  0.88493314  0.85371961  1
  O  O266  1  0.38908524  0.12523714  0.10600035  1
  O  O267  1  0.38199556  0.13223644  0.62709475  1
  O  O268  1  0.38218900  0.61194314  0.15584881  1
  O  O269  1  0.37902153  0.62502507  0.63049986  1
  O  O270  1  0.87817314  0.11762459  0.12685717  1
  O  O271  1  0.87077806  0.11098744  0.63554669  1
  O  O272  1  0.87415149  0.64547269  0.11781804  1
  O  O273  1  0.88712894  0.64376086  0.61781875  1
  O  O274  1  0.24279339  0.26492327  0.11847037  1
  O  O275  1  0.25990076  0.24083913  0.61135415  1
  O  O276  1  0.22653516  0.76947393  0.11857419  1
  O  O277  1  0.26755218  0.74310891  0.62458394  1
  O  O278  1  0.73878073  0.24010012  0.11748281  1
  O  O279  1  0.76211740  0.23851426  0.60022371  1
  O  O280  1  0.73750105  0.76332578  0.11423088  1
  O  O281  1  0.76363027  0.74664747  0.61475894  1
  O  O282  1  0.23508768  0.24945038  0.38262832  1
  O  O283  1  0.21390177  0.29666675  0.87999797  1
  O  O284  1  0.26647867  0.73794494  0.39875986  1
  O  O285  1  0.23802788  0.74168269  0.86259205  1
  O  O286  1  0.74182579  0.23212803  0.38051665  1
  O  O287  1  0.73798406  0.24007563  0.89404034  1
  O  O288  1  0.74408660  0.75509265  0.38501682  1
  O  O289  1  0.74223386  0.75192659  0.89044615  1
  O  O290  1  -0.00365821  0.11138268  -0.00893399  1
  O  O291  1  0.00429826  0.10151893  0.48298996  1
  O  O292  1  0.00478995  0.61873681  0.01412967  1
  O  O293  1  0.00355162  0.62260358  0.50747646  1
  O  O294  1  0.50940874  0.11356208  0.00365230  1
  O  O295  1  0.51071310  0.12830904  0.50990280  1
  O  O296  1  0.50684753  0.61263377  0.00258977  1
  O  O297  1  0.50336542  0.61687666  0.50946304  1
  O  O298  1  0.47171802  0.34813242  0.47850153  1
  O  O299  1  0.48860711  0.38486483  1.00269843  1
  O  O300  1  0.48798559  0.86507307  0.49088844  1
  O  O301  1  0.51778906  0.88503349  0.97676523  1
  O  O302  1  1.00657918  0.38860703  0.48452676  1
  O  O303  1  0.99086589  0.37972588  1.00948269  1
  O  O304  1  1.00632248  0.88557752  0.49532278  1
  O  O305  1  0.98838768  0.88360818  0.98778205  1
  O  O306  1  0.48261805  0.48003684  0.37944508  1
  O  O307  1  0.50187469  0.48518169  0.88803314  1
  O  O308  1  0.49919441  0.98245239  0.37802539  1
  O  O309  1  0.49062360  0.99572918  0.87539060  1
  O  O310  1  0.99594761  0.50061372  0.37723317  1
  O  O311  1  0.99503901  0.50377597  0.90091650  1
  O  O312  1  0.98711618  0.98826095  0.37866797  1
  O  O313  1  0.98824670  0.98828030  0.87814961  1
  O  O314  1  0.00089338  -0.00363937  0.10227150  1
  O  O315  1  -0.00252158  -0.00475829  0.60935631  1
  O  O316  1  0.01595001  0.50295953  0.11995121  1
  O  O317  1  -0.01493557  0.51811677  0.61808227  1
  O  O318  1  0.50261097  -0.00891019  0.11165895  1
  O  O319  1  0.50231052  0.01777357  0.62914382  1
  O  O320  1  0.49583289  0.49792421  0.11691262  1
  O  O321  1  0.53059131  0.47847898  0.59842526  1
  O  O322  1  0.24434500  0.37262510  0.23656062  1
  O  O323  1  0.22430798  0.39100187  0.74159993  1
  O  O324  1  0.21668211  0.86042454  0.28844379  1
  O  O325  1  0.23997860  0.87058487  0.75523655  1
  O  O326  1  0.72710095  0.38622554  0.29527772  1
  O  O327  1  0.77837080  0.39403639  0.76975239  1
  O  O328  1  0.73254170  0.86776820  0.24015017  1
  O  O329  1  0.73530627  0.86823025  0.75141471  1
  O  O330  1  0.27726408  0.15657476  0.24239384  1
  O  O331  1  0.24398062  0.11551522  0.75929310  1
  O  O332  1  0.26375523  0.63453107  0.25825233  1
  O  O333  1  0.23201145  0.59906309  0.73740841  1
  O  O334  1  0.74334805  0.11985022  0.26494517  1
  O  O335  1  0.76229446  0.12920153  0.76601943  1
  O  O336  1  0.75325519  0.64829088  0.26956456  1
  O  O337  1  0.74446568  0.60229130  0.75834692  1
  O  O338  1  0.38483384  0.09960183  0.37787634  1
  O  O339  1  0.37910375  0.11235985  0.87556242  1
  O  O340  1  0.37570074  0.60804322  0.38194837  1
  O  O341  1  0.39718001  0.61073499  0.86575915  1
  O  O342  1  0.86021943  0.12130069  0.36862291  1
  O  O343  1  0.86379445  0.11418090  0.87517575  1
  O  O344  1  0.87952261  0.62223287  0.36840455  1
  O  O345  1  0.87367278  0.61399916  0.90126751  1
  O  O346  1  0.13822709  0.38295297  0.13242598  1
  O  O347  1  0.12954731  0.37552125  0.61041653  1
  O  O348  1  0.13227716  0.90821757  0.10306549  1
  O  O349  1  0.11978810  0.87917411  0.64735233  1
  O  O350  1  0.61584651  0.39274112  0.12811252  1
  O  O351  1  0.62476806  0.33179349  0.62853999  1
  O  O352  1  0.62206163  0.87676673  0.13358176  1
  O  O353  1  0.61806554  0.89391936  0.63094202  1
  O  O354  1  0.12198265  0.25704576  0.25922973  1
  O  O355  1  0.11584418  0.26882905  0.73607041  1
  O  O356  1  0.11019242  0.73222115  0.26395918  1
  O  O357  1  0.11372628  0.76076246  0.75555867  1
  O  O358  1  0.62650436  0.24742517  0.26530688  1
  O  O359  1  0.63423382  0.24484209  0.77460188  1
  O  O360  1  0.61857064  0.75675357  0.26657142  1
  O  O361  1  0.61639266  0.76519300  0.72762425  1
  O  O362  1  0.33178800  0.20857844  0.24917619  1
  O  O363  1  0.36275399  0.26718369  0.73577531  1
  O  O364  1  0.39180661  0.73232560  0.27013192  1
  O  O365  1  0.39003017  0.74819259  0.73869372  1
  O  O366  1  0.88859477  0.25345566  0.25910518  1
  O  O367  1  0.86735817  0.23555390  0.72215626  1
  O  O368  1  0.89354602  0.76066141  0.24414315  1
  O  O369  1  0.88217901  0.75465253  0.73922285  1
  O  O370  1  0.37045947  0.47878487  0.49522507  1
  O  O371  1  0.38802882  0.50239284  0.99542087  1
  O  O372  1  0.36623610  0.98359598  0.49525279  1
  O  O373  1  0.38406981  0.99998264  0.98488654  1
  O  O374  1  0.88558117  0.50807996  0.49131140  1
  O  O375  1  0.89006673  0.49875628  1.01072406  1
  O  O376  1  0.88384795  0.99876513  0.48545957  1
  O  O377  1  0.88052573  0.99095799  0.98799306  1
  O  O378  1  0.10991992  0.00812096  -0.01903797  1
  O  O379  1  0.11662540  -0.00319040  0.50173215  1
  O  O380  1  0.11436907  0.49414701  0.01227666  1
  O  O381  1  0.11515515  0.51074020  0.50236722  1
  O  O382  1  0.61530179  0.00557039  0.00350895  1
  O  O383  1  0.62560884  0.00681595  0.51441375  1
  O  O384  1  0.61424379  0.50531387  0.01295188  1
  O  O385  1  0.62772858  0.50745319  0.43424153  1
  O  O386  1  0.36516170  0.37797680  0.11930726  1
  O  O387  1  0.37485932  0.35554651  0.60686271  1
  O  O388  1  0.36304447  0.85295943  0.12873914  1
  O  O389  1  0.38382348  0.87631475  0.61512662  1
  O  O390  1  0.86885111  0.38382930  0.11453508  1
  O  O391  1  0.88563789  0.35912724  0.62103376  1
  O  O392  1  0.85692225  0.88854253  0.11203577  1
  O  O393  1  0.87126562  0.86819456  0.63060914  1
  O  O394  1  0.12293721  0.13685965  0.36693338  1
  O  O395  1  0.10164576  0.14389532  0.87344307  1
  O  O396  1  0.11978604  0.63206973  0.40030122  1
  O  O397  1  0.11658041  0.63601245  0.86400126  1
  O  O398  1  0.62521474  0.12370463  0.37858912  1
  O  O399  1  0.62783982  0.13026095  0.88453311  1
  O  O400  1  0.64168058  0.64518778  0.37617150  1
  O  O401  1  0.62464141  0.61397690  0.89856979  1
