# generated using pymatgen
data_V73Zn73O256
_symmetry_space_group_name_H-M   'P 1'
_cell_length_a   16.94161294
_cell_length_b   16.94240690
_cell_length_c   16.94782433
_cell_angle_alpha   89.93652107
_cell_angle_beta   90.33841507
_cell_angle_gamma   90.21105114
_symmetry_Int_Tables_number   1
_chemical_formula_structural   V73Zn73O256
_chemical_formula_sum   'V73 Zn73 O256'
_cell_volume   4864.44210317
_cell_formula_units_Z   1
loop_
 _symmetry_equiv_pos_site_id
 _symmetry_equiv_pos_as_xyz
  1  'x, y, z'
loop_
 _atom_site_type_symbol
 _atom_site_label
 _atom_site_symmetry_multiplicity
 _atom_site_fract_x
 _atom_site_fract_y
 _atom_site_fract_z
 _atom_site_occupancy
  V  V0  1  0.25231869  0.37746676  0.12230940  1
  V  V1  1  0.00184532  0.85429576  0.87028184  1
  V  V2  1  0.86701752  0.25663091  0.11657779  1
  V  V3  1  0.63971116  -0.00214711  0.63055435  1
  V  V4  1  0.37803186  0.61589722  0.25422910  1
  V  V5  1  0.77039324  0.62758818  0.87170606  1
  V  V6  1  0.49666112  0.49636730  0.48657324  1
  V  V7  1  0.87565113  -0.00160285  0.86551831  1
  V  V8  1  0.63549215  0.23770829  0.88313724  1
  V  V9  1  0.61553208  0.62916343  0.49943107  1
  V  V10  1  0.76119569  0.50400790  0.74386758  1
  V  V11  1  0.87242603  0.11381912  0.25917957  1
  V  V12  1  0.38524402  0.37147034  0.49057118  1
  V  V13  1  0.12720006  -0.01055801  0.62890814  1
  V  V14  1  0.87962949  0.90216647  0.50048320  1
  V  V15  1  0.60754134  0.46065535  0.08715149  1
  V  V16  1  0.25411530  0.11786718  0.87696396  1
  V  V17  1  -0.00040988  0.75011325  0.71776862  1
  V  V18  1  0.50202077  0.01826206  0.00685965  1
  V  V19  1  0.60786944  0.75721811  0.37737036  1
  V  V20  1  0.49681061  0.11572855  0.61716463  1
  V  V21  1  0.75306907  0.11962422  0.89049622  1
  V  V22  1  0.37499167  0.00249012  0.36878421  1
  V  V23  1  0.75785094  0.75011539  0.00018011  1
  V  V24  1  0.76257797  0.36815547  0.61141860  1
  V  V25  1  0.72639347  0.62486819  0.34322603  1
  V  V26  1  0.00771364  0.25608632  0.25232290  1
  V  V27  1  0.51262004  0.24617117  0.74580274  1
  V  V28  1  0.01984005  0.49132692  -0.00386847  1
  V  V29  1  0.23439654  0.65258018  0.86678399  1
  V  V30  1  0.87208073  0.86903457  0.00507050  1
  V  V31  1  0.49511353  0.23983141  0.26759074  1
  V  V32  1  0.13148137  0.25917602  0.87371910  1
  V  V33  1  0.25597888  0.24107269  0.00285224  1
  V  V34  1  0.61953954  0.74887669  0.86078258  1
  V  V35  1  0.48297897  0.76101007  0.24546675  1
  V  V36  1  0.36632778  0.88196783  0.51249340  1
  V  V37  1  0.64491236  0.25057312  0.38524195  1
  V  V38  1  0.87160651  0.12667655  0.74295217  1
  V  V39  1  0.38127761  0.11886113  0.75584566  1
  V  V40  1  0.32755244  0.29919443  0.68502461  1
  V  V41  1  0.49856866  0.88271094  0.88428041  1
  V  V42  1  0.63090653  0.37533858  0.25409232  1
  V  V43  1  0.00409714  0.25584451  0.75823113  1
  V  V44  1  0.37531988  0.60379214  0.75959114  1
  V  V45  1  0.25180248  0.49872478  0.25421038  1
  V  V46  1  0.37409718  0.75234009  0.63802721  1
  V  V47  1  0.12769906  0.37348130  0.25323835  1
  V  V48  1  0.24774210  0.12436488  0.37309293  1
  V  V49  1  0.87560611  0.63578886  0.72172484  1
  V  V50  1  0.11931939  0.49641533  0.61350245  1
  V  V51  1  0.00789165  0.12108089  0.12176080  1
  V  V52  1  0.76016607  0.74801044  0.50295759  1
  V  V53  1  0.13006767  0.12254115  0.50278793  1
  V  V54  1  0.24265119  0.74560724  0.50017298  1
  V  V55  1  0.83963907  0.37957572  -0.00756733  1
  V  V56  1  0.49176802  0.87808718  0.38427068  1
  V  V57  1  0.62979049  0.49855146  0.61576593  1
  V  V58  1  0.00696721  0.12487791  0.62871356  1
  V  V59  1  0.00380739  0.00047179  -0.00115024  1
  V  V60  1  0.60418637  0.63325599  -0.00104442  1
  V  V61  1  0.13267207  0.64673996  0.00580159  1
  V  V62  1  0.23541447  -0.00641914  0.24862708  1
  V  V63  1  0.38515711  0.22988515  0.12983993  1
  V  V64  1  0.62375716  0.38313275  0.75935570  1
  V  V65  1  0.63571052  0.87635058  0.74459148  1
  V  V66  1  0.00203090  0.89400473  0.37681434  1
  V  V67  1  0.25721095  0.25641968  0.49775063  1
  V  V68  1  0.36338207  0.75239230  0.11154700  1
  V  V69  1  0.24123575  0.87445305  0.11129865  1
  V  V70  1  0.64048378  0.12113741  0.49675730  1
  V  V71  1  0.89993288  0.47161291  0.37132195  1
  V  V72  1  0.25406377  -0.00617414  0.74881135  1
  Zn  Zn73  1  0.50956770  0.39959068  0.90945170  1
  Zn  Zn74  1  -0.03515841  0.75403804  0.24467268  1
  Zn  Zn75  1  -0.11957226  0.60285966  0.23777825  1
  Zn  Zn76  1  0.50049290  0.62610870  0.63474146  1
  Zn  Zn77  1  0.14058657  0.85078247  0.75145355  1
  Zn  Zn78  1  0.12961798  0.11796467  0.00067855  1
  Zn  Zn79  1  0.37735363  0.38437534  0.00705607  1
  Zn  Zn80  1  0.24931033  0.62085406  0.38406000  1
  Zn  Zn81  1  0.11787302  0.85386363  0.25625563  1
  Zn  Zn82  1  0.19124426  0.18569208  0.18793775  1
  Zn  Zn83  1  0.18725834  0.18190119  0.69390955  1
  Zn  Zn84  1  0.18435282  0.68629142  0.18995996  1
  Zn  Zn85  1  0.19371943  0.68341737  0.68549080  1
  Zn  Zn86  1  0.69656456  0.19392395  0.20508749  1
  Zn  Zn87  1  0.68897387  0.19027363  0.67948635  1
  Zn  Zn88  1  0.66119038  0.72500598  0.17265066  1
  Zn  Zn89  1  0.68963454  0.69021009  0.68151054  1
  Zn  Zn90  1  0.31633286  0.31087310  0.31362662  1
  Zn  Zn91  1  0.33791126  0.41512582  0.83325254  1
  Zn  Zn92  1  0.30519478  0.81147366  0.31845261  1
  Zn  Zn93  1  0.31925859  0.81676490  0.81898488  1
  Zn  Zn94  1  0.81865471  0.30800120  0.30793123  1
  Zn  Zn95  1  0.80929066  0.31075385  0.80942706  1
  Zn  Zn96  1  0.80872884  0.80949254  0.33683108  1
  Zn  Zn97  1  0.81685936  0.81122157  0.80460875  1
  Zn  Zn98  1  0.10325190  0.49101094  0.38952166  1
  Zn  Zn99  1  0.19076849  0.43820099  0.94682870  1
  Zn  Zn100  1  0.18578282  0.93436358  0.44284800  1
  Zn  Zn101  1  0.18181558  0.93347635  0.92863966  1
  Zn  Zn102  1  0.69314753  0.43834376  0.42674703  1
  Zn  Zn103  1  0.67745400  0.44737501  0.92302951  1
  Zn  Zn104  1  0.67599010  0.92083875  0.46873103  1
  Zn  Zn105  1  0.68597387  0.93909758  0.93515132  1
  Zn  Zn106  1  0.32004634  0.05076721  0.06269599  1
  Zn  Zn107  1  0.31165934  0.06325666  0.56594014  1
  Zn  Zn108  1  0.30323780  0.57533439  0.05810832  1
  Zn  Zn109  1  0.32070786  0.56205861  0.56264977  1
  Zn  Zn110  1  0.82995539  0.06370531  0.06422036  1
  Zn  Zn111  1  0.81649435  0.06726262  0.56545802  1
  Zn  Zn112  1  0.78928679  0.54840749  0.07388816  1
  Zn  Zn113  1  0.81153641  0.56019559  0.53945060  1
  Zn  Zn114  1  0.44729213  0.42507031  0.18933476  1
  Zn  Zn115  1  0.44826981  0.43984338  0.68204373  1
  Zn  Zn116  1  0.42911162  0.93895210  0.18167133  1
  Zn  Zn117  1  0.44819716  0.93563167  0.69541460  1
  Zn  Zn118  1  0.94189112  0.44449744  0.16988879  1
  Zn  Zn119  1  0.93460927  0.43527217  0.69873691  1
  Zn  Zn120  1  0.89220048  0.90593987  0.21873108  1
  Zn  Zn121  1  0.93809620  0.93631926  0.68251299  1
  Zn  Zn122  1  0.06042527  0.06609419  0.31233498  1
  Zn  Zn123  1  0.06540076  0.06336481  0.81428681  1
  Zn  Zn124  1  0.07503727  0.68229275  0.35033223  1
  Zn  Zn125  1  0.00594425  0.62488667  0.87085786  1
  Zn  Zn126  1  0.56021998  0.06619665  0.31602294  1
  Zn  Zn127  1  0.56667595  0.05552666  0.81253130  1
  Zn  Zn128  1  0.55956218  0.56645182  0.30020369  1
  Zn  Zn129  1  0.56912325  0.56502454  0.80766054  1
  Zn  Zn130  1  0.43432130  0.18313437  0.44558639  1
  Zn  Zn131  1  0.44331750  0.19153518  0.93540148  1
  Zn  Zn132  1  0.42497332  0.68704666  0.44283842  1
  Zn  Zn133  1  0.43132438  0.69905797  0.92768134  1
  Zn  Zn134  1  0.95308481  0.18386718  0.43287118  1
  Zn  Zn135  1  0.93665457  0.19435389  0.93631718  1
  Zn  Zn136  1  0.91886804  0.65513267  0.40490723  1
  Zn  Zn137  1  0.95921023  0.64138820  1.08964975  1
  Zn  Zn138  1  0.06516316  0.30720281  0.06240239  1
  Zn  Zn139  1  0.06804331  0.29383625  0.56397810  1
  Zn  Zn140  1  0.05667421  0.80850457  0.07230807  1
  Zn  Zn141  1  0.02859773  0.76829193  0.50767555  1
  Zn  Zn142  1  0.57428628  0.28972816  0.06834945  1
  Zn  Zn143  1  0.56874351  0.30976483  0.56519334  1
  Zn  Zn144  1  0.58734586  0.89805675  0.08172483  1
  Zn  Zn145  1  0.55092750  0.81390659  0.56729934  1
  O  O146  1  0.11241792  0.12931384  0.12059896  1
  O  O147  1  0.12449251  0.11841433  0.62141298  1
  O  O148  1  0.15221855  0.62315817  0.10237319  1
  O  O149  1  0.12268105  0.59994985  0.61950346  1
  O  O150  1  0.67141218  0.08716132  0.13172106  1
  O  O151  1  0.62174071  0.11459049  0.61772808  1
  O  O152  1  0.61371680  0.64898286  0.09606891  1
  O  O153  1  0.62340039  0.61848407  0.61457430  1
  O  O154  1  0.37879790  0.37010558  0.39194666  1
  O  O155  1  0.40827696  0.35781951  0.90175179  1
  O  O156  1  0.37300319  0.88655169  0.38857180  1
  O  O157  1  0.39916585  0.87118653  0.87218336  1
  O  O158  1  0.85195572  0.38360062  0.38567870  1
  O  O159  1  0.86282597  0.36441088  0.89392084  1
  O  O160  1  0.88491381  0.88072996  0.38817974  1
  O  O161  1  0.88653665  0.88104574  0.87200835  1
  O  O162  1  0.25481176  0.00381414  0.36889023  1
  O  O163  1  0.24584794  0.00817149  0.86323308  1
  O  O164  1  0.26221879  0.48717523  0.35046301  1
  O  O165  1  0.28827580  0.49159940  0.90846644  1
  O  O166  1  0.69683376  -0.02757666  0.30245759  1
  O  O167  1  0.76287943  0.00871895  0.87486974  1
  O  O168  1  0.72970447  0.52597613  0.36453225  1
  O  O169  1  0.74421910  0.52002232  0.85472390  1
  O  O170  1  0.26367132  0.47966157  0.12398187  1
  O  O171  1  0.22332030  0.49497756  0.60386283  1
  O  O172  1  0.25730479  0.98822483  0.14154887  1
  O  O173  1  0.24309840  1.00638027  0.64112703  1
  O  O174  1  0.69668776  0.49943774  0.11939513  1
  O  O175  1  0.74624715  0.50070024  0.62269477  1
  O  O176  1  0.72492198  1.03462676  0.12914475  1
  O  O177  1  0.73845267  1.00138807  0.62150008  1
  O  O178  1  0.01920467  0.36613773  0.22931123  1
  O  O179  1  -0.00440045  0.35477231  0.74990233  1
  O  O180  1  0.00018654  0.87689135  0.26597989  1
  O  O181  1  -0.00896707  0.85757378  0.75436810  1
  O  O182  1  0.51255442  0.34848147  0.24866910  1
  O  O183  1  0.51566467  0.36055985  0.73953485  1
  O  O184  1  0.47747451  0.86594901  0.26802159  1
  O  O185  1  0.52181619  0.88592143  0.76620479  1
  O  O186  1  0.50923373  0.14039104  0.24698956  1
  O  O187  1  0.49750456  0.12545320  0.74615582  1
  O  O188  1  0.48251701  0.63750054  0.25112727  1
  O  O189  1  0.48156380  0.61676029  0.75597038  1
  O  O190  1  1.00283130  0.13673225  0.23732451  1
  O  O191  1  0.99594957  0.13077267  0.74731451  1
  O  O192  1  0.97400952  0.64422514  0.29092670  1
  O  O193  1  0.98318756  0.64229326  0.74990068  1
  O  O194  1  0.36855999  0.23991019  0.01282629  1
  O  O195  1  0.37073195  0.25708154  0.50637629  1
  O  O196  1  0.37420083  0.74919708  0.01347714  1
  O  O197  1  0.36609400  0.76292893  0.51068376  1
  O  O198  1  0.87496119  0.25599789  0.01005643  1
  O  O199  1  0.91681910  0.28403844  0.49735060  1
  O  O200  1  0.86922141  0.76391834  -0.00648983  1
  O  O201  1  0.85576963  0.72842093  0.48657662  1
  O  O202  1  0.14839909  0.23824049  0.50890394  1
  O  O203  1  0.13763498  0.24236145  0.99232775  1
  O  O204  1  0.14575544  0.75690576  0.51865085  1
  O  O205  1  0.12655393  0.74686436  1.00235455  1
  O  O206  1  0.62103857  0.23625658  0.49233403  1
  O  O207  1  0.62835422  0.23840036  0.98154597  1
  O  O208  1  0.61525271  0.74418744  0.49577001  1
  O  O209  1  0.64496680  0.74173180  0.97438935  1
  O  O210  1  0.48732872  0.24219101  0.12430404  1
  O  O211  1  0.51682814  0.22922714  0.63636145  1
  O  O212  1  0.47548357  0.76349108  0.14421862  1
  O  O213  1  0.48025998  0.74091486  0.62023037  1
  O  O214  1  0.99427128  0.23891640  0.12510404  1
  O  O215  1  1.01670461  0.23600907  0.64776683  1
  O  O216  1  0.99668281  0.73919468  0.13513073  1
  O  O217  1  0.99266310  0.75326924  0.62090399  1
  O  O218  1  0.00471919  0.25245403  0.35103999  1
  O  O219  1  0.01981350  0.24272847  0.87020474  1
  O  O220  1  -0.00724460  0.77017003  0.37223286  1
  O  O221  1  -0.00137360  0.75621088  0.87052621  1
  O  O222  1  0.49688820  0.24085059  0.36956536  1
  O  O223  1  0.52438301  0.23634229  0.86081163  1
  O  O224  1  0.49029425  0.76102202  0.37717883  1
  O  O225  1  0.51718613  0.75781232  0.87008865  1
  O  O226  1  0.24877255  0.13062617  0.49569186  1
  O  O227  1  0.25329812  0.12245040  0.99521644  1
  O  O228  1  0.26390508  0.63784409  0.50110382  1
  O  O229  1  0.24368400  0.63303312  0.97450094  1
  O  O230  1  0.73888854  0.12886813  0.50650901  1
  O  O231  1  0.76000429  0.12088441  0.98837889  1
  O  O232  1  0.72800933  0.63436993  0.48759076  1
  O  O233  1  0.75849703  0.63352806  0.97880287  1
  O  O234  1  0.25378350  0.35757735  0.01177200  1
  O  O235  1  0.26565283  0.35655333  0.50290187  1
  O  O236  1  0.24300734  0.88776804  0.01267237  1
  O  O237  1  0.26146129  0.86648811  0.50263807  1
  O  O238  1  0.73927618  0.37642587  -0.00462232  1
  O  O239  1  0.74519179  0.38762646  0.51347084  1
  O  O240  1  0.76337971  0.86318345  -0.01681878  1
  O  O241  1  0.76747717  0.85963160  0.48534275  1
  O  O242  1  0.14733437  0.48044875  0.23541036  1
  O  O243  1  0.12844919  0.48788198  0.71718924  1
  O  O244  1  0.13557418  1.00078607  0.25092814  1
  O  O245  1  0.14108843  1.00754727  0.74293502  1
  O  O246  1  0.61212013  0.47224881  0.26865650  1
  O  O247  1  0.64236070  0.50275381  0.72848920  1
  O  O248  1  0.62973977  0.99089361  0.25955649  1
  O  O249  1  0.63191911  0.99714992  0.73612779  1
  O  O250  1  0.36251524  -0.00470405  0.26607963  1
  O  O251  1  0.36511356  0.00681417  0.74547344  1
  O  O252  1  0.37447182  0.51074505  0.23647273  1
  O  O253  1  0.37688267  0.49941599  0.75632469  1
  O  O254  1  0.88031794  0.01551035  0.24043597  1
  O  O255  1  0.88519663  0.01313317  0.75638298  1
  O  O256  1  0.89187704  0.48965513  0.26613193  1
  O  O257  1  0.86867222  0.51731046  0.74169990  1
  O  O258  1  0.13283562  0.37957679  0.35181634  1
  O  O259  1  0.14306190  0.35740444  0.87845315  1
  O  O260  1  0.10849872  0.87994205  0.38123660  1
  O  O261  1  0.10425047  0.87932162  0.86161312  1
  O  O262  1  0.62639061  0.35474477  0.37678615  1
  O  O263  1  0.65315915  0.34341420  0.86167742  1
  O  O264  1  0.60406817  0.86843862  0.39435308  1
  O  O265  1  0.62862312  0.86191111  0.86514864  1
  O  O266  1  0.36876473  0.13201282  0.13191436  1
  O  O267  1  0.39109643  0.11791947  0.63360539  1
  O  O268  1  0.36111907  0.64394341  0.13511577  1
  O  O269  1  0.37138950  0.62745254  0.64696508  1
  O  O270  1  0.88773740  0.13616944  0.13357619  1
  O  O271  1  0.89087186  0.12019068  0.63587836  1
  O  O272  1  0.85500888  0.61882393  0.13100991  1
  O  O273  1  0.87231135  0.62090781  0.62399297  1
  O  O274  1  0.26327704  0.24983797  0.12128535  1
  O  O275  1  0.25980667  0.24521182  0.62510500  1
  O  O276  1  0.25454118  0.76320853  0.12648983  1
  O  O277  1  0.26649082  0.74427758  0.61948263  1
  O  O278  1  0.76843912  0.24222651  0.12960659  1
  O  O279  1  0.74868567  0.26844123  0.62379084  1
  O  O280  1  0.75208030  0.74224875  0.09669438  1
  O  O281  1  0.74571586  0.74762210  0.60177426  1
  O  O282  1  0.26059794  0.23830771  0.38834892  1
  O  O283  1  0.24412713  0.23522579  0.88828538  1
  O  O284  1  0.25004295  0.74739344  0.39443240  1
  O  O285  1  0.23543253  0.75293507  0.85950788  1
  O  O286  1  0.74257522  0.24520835  0.37893773  1
  O  O287  1  0.74833925  0.22653816  0.86637383  1
  O  O288  1  0.72144140  0.74703619  0.38263854  1
  O  O289  1  0.74918976  0.73753457  0.86715074  1
  O  O290  1  -0.00296673  0.11964465  0.00650242  1
  O  O291  1  0.01794283  0.13838030  0.51488155  1
  O  O292  1  0.02535204  0.62915864  -0.00734247  1
  O  O293  1  0.02005453  0.66547819  0.45754462  1
  O  O294  1  0.50885979  0.11827836  -0.00049252  1
  O  O295  1  0.50517892  0.12397390  0.51510139  1
  O  O296  1  0.50593900  0.63236100  -0.01881510  1
  O  O297  1  0.50100086  0.61593668  0.50248054  1
  O  O298  1  0.49181631  0.37795817  0.50856092  1
  O  O299  1  0.55970609  0.39092999  1.01170887  1
  O  O300  1  0.48000723  0.87435364  0.49354814  1
  O  O301  1  0.51255263  0.86656276  0.98260307  1
  O  O302  1  0.97310633  0.33516754  0.50741227  1
  O  O303  1  1.01362528  0.38876856  1.00316584  1
  O  O304  1  0.98759238  0.87737017  0.49157382  1
  O  O305  1  0.99114782  0.87714623  0.98560880  1
  O  O306  1  0.50084324  0.50416773  0.38852435  1
  O  O307  1  0.57637438  0.45813843  0.84342200  1
  O  O308  1  0.48225895  0.99496363  0.37101256  1
  O  O309  1  0.51160727  0.99126058  0.88965463  1
  O  O310  1  0.99682019  0.45538538  0.38749518  1
  O  O311  1  0.98538778  0.51420720  0.90250330  1
  O  O312  1  1.00032844  0.99523540  0.37608844  1
  O  O313  1  0.99024085  0.99907576  0.87947211  1
  O  O314  1  -0.00624020  0.01756378  0.11147685  1
  O  O315  1  0.01878595  0.01192545  0.63776930  1
  O  O316  1  -0.01425373  0.51989651  0.09541329  1
  O  O317  1  0.01480139  0.49782339  0.62187580  1
  O  O318  1  0.50597240  -0.01835767  0.11232931  1
  O  O319  1  0.51193169  0.01297708  0.63146665  1
  O  O320  1  0.52625738  0.49542476  0.13488138  1
  O  O321  1  0.51542463  0.50391108  0.61658279  1
  O  O322  1  0.25207303  0.37276779  0.23830837  1
  O  O323  1  0.28024282  0.35264907  0.75433421  1
  O  O324  1  0.24104182  0.88702026  0.25780598  1
  O  O325  1  0.25124753  0.89068361  0.75805924  1
  O  O326  1  0.73123548  0.36360749  0.25759581  1
  O  O327  1  0.74480911  0.38755156  0.74195168  1
  O  O328  1  0.73716284  0.91425011  0.27278786  1
  O  O329  1  0.73681448  0.87218581  0.74979229  1
  O  O330  1  0.24280558  0.11356318  0.26381130  1
  O  O331  1  0.26304478  0.11883377  0.75808507  1
  O  O332  1  0.25852734  0.60713098  0.24525957  1
  O  O333  1  0.25695886  0.62060912  0.76168017  1
  O  O334  1  0.77328017  0.13048786  0.25774288  1
  O  O335  1  0.77114320  0.12946334  0.73910633  1
  O  O336  1  0.69137738  0.63419881  0.24919696  1
  O  O337  1  0.76244613  0.62497262  0.74711915  1
  O  O338  1  0.36456192  0.10771413  0.38722456  1
  O  O339  1  0.37002786  0.13117380  0.86341836  1
  O  O340  1  0.36723950  0.62411042  0.35878616  1
  O  O341  1  0.36118418  0.63840870  0.85935048  1
  O  O342  1  0.89321807  0.12833116  0.35805020  1
  O  O343  1  0.86798513  0.11865185  0.86607553  1
  O  O344  1  0.82549583  0.65289593  0.33144191  1
  O  O345  1  0.86806757  0.63008594  0.85812008  1
  O  O346  1  0.14918607  0.36276786  0.12730352  1
  O  O347  1  0.11598520  0.39192749  0.60679282  1
  O  O348  1  0.13865564  0.86868579  0.13369487  1
  O  O349  1  0.12407482  0.89148879  0.63652334  1
  O  O350  1  0.62476645  0.36391545  0.14369657  1
  O  O351  1  0.63389413  0.38482125  0.63307380  1
  O  O352  1  0.64065971  0.83439956  0.14979449  1
  O  O353  1  0.61700369  0.89018701  0.62549597  1
  O  O354  1  0.11954015  0.25868003  0.24255298  1
  O  O355  1  0.12148450  0.24487203  0.76551612  1
  O  O356  1  0.12965435  0.74038784  0.26770089  1
  O  O357  1  0.10607407  0.74299824  0.73059649  1
  O  O358  1  0.61919086  0.24711921  0.27025855  1
  O  O359  1  0.62574298  0.25581817  0.75150206  1
  O  O360  1  0.59031522  0.75060117  0.26914434  1
  O  O361  1  0.62880614  0.75497525  0.75383524  1
  O  O362  1  0.38604026  0.25002276  0.24195391  1
  O  O363  1  0.39309799  0.23709494  0.74132354  1
  O  O364  1  0.37320565  0.74024896  0.25334489  1
  O  O365  1  0.37273678  0.75348777  0.73866058  1
  O  O366  1  0.89310596  0.25241571  0.23695951  1
  O  O367  1  0.89225484  0.23495604  0.76212032  1
  O  O368  1  0.85631683  0.79986729  0.23799898  1
  O  O369  1  0.87821166  0.74269342  0.73430055  1
  O  O370  1  0.38301320  0.48056447  0.51235804  1
  O  O371  1  0.34514421  0.49935966  0.97619557  1
  O  O372  1  0.36402261  0.98705000  0.49607571  1
  O  O373  1  0.39993524  1.00307773  1.00003740  1
  O  O374  1  0.87603553  0.54348030  0.44687111  1
  O  O375  1  0.85436670  0.47944794  1.00624496  1
  O  O376  1  0.87166747  1.00173150  0.49257750  1
  O  O377  1  0.88257695  0.99113067  0.98633889  1
  O  O378  1  0.10768553  -0.00068002  -0.00893132  1
  O  O379  1  0.13955469  0.00931133  0.52043994  1
  O  O380  1  0.12347524  0.51140550  -0.00588455  1
  O  O381  1  0.11035319  0.49958028  0.50935110  1
  O  O382  1  0.61437321  -0.01589890  0.00747721  1
  O  O383  1  0.62638392  0.01214160  0.50932647  1
  O  O384  1  0.62339153  0.52721304  -0.00812711  1
  O  O385  1  0.61786376  0.50828334  0.50150117  1
  O  O386  1  0.37150400  0.36176048  0.12114671  1
  O  O387  1  0.37934034  0.36427943  0.62590389  1
  O  O388  1  0.35439766  0.86326322  0.13328103  1
  O  O389  1  0.38239368  0.86859061  0.62002486  1
  O  O390  1  0.87661927  0.36239391  0.11242940  1
  O  O391  1  0.86117808  0.38495927  0.62881613  1
  O  O392  1  0.87465929  0.88941009  0.10079455  1
  O  O393  1  0.87700324  0.88595808  0.60181024  1
  O  O394  1  0.13595665  0.11605777  0.39080398  1
  O  O395  1  0.14016448  0.12902275  0.87746993  1
  O  O396  1  0.14147307  0.59266891  0.37056738  1
  O  O397  1  0.13431430  0.63101602  0.87319412  1
  O  O398  1  0.62416506  0.12927064  0.39128069  1
  O  O399  1  0.64604314  0.12456994  0.86435872  1
  O  O400  1  0.61185565  0.63827669  0.38333102  1
  O  O401  1  0.63247587  0.63918235  0.86964628  1
