# generated using pymatgen
data_V73Zn73O256
_symmetry_space_group_name_H-M   'P 1'
_cell_length_a   16.89964503
_cell_length_b   16.92043243
_cell_length_c   16.93665924
_cell_angle_alpha   90.11130176
_cell_angle_beta   89.93579003
_cell_angle_gamma   89.65177783
_symmetry_Int_Tables_number   1
_chemical_formula_structural   V73Zn73O256
_chemical_formula_sum   'V73 Zn73 O256'
_cell_volume   4842.92419672
_cell_formula_units_Z   1
loop_
 _symmetry_equiv_pos_site_id
 _symmetry_equiv_pos_as_xyz
  1  'x, y, z'
loop_
 _atom_site_type_symbol
 _atom_site_label
 _atom_site_symmetry_multiplicity
 _atom_site_fract_x
 _atom_site_fract_y
 _atom_site_fract_z
 _atom_site_occupancy
  V  V0  1  0.86912248  0.25776894  0.62183383  1
  V  V1  1  0.51033191  0.11979402  0.63059066  1
  V  V2  1  -0.00206519  0.12520952  0.62992092  1
  V  V3  1  0.63098692  0.75147901  0.87875470  1
  V  V4  1  -0.01734248  0.24920117  0.25803614  1
  V  V5  1  0.87258119  0.87503839  0.50245186  1
  V  V6  1  0.49650364  0.73480057  0.74699992  1
  V  V7  1  -0.05162432  0.81834805  0.32414661  1
  V  V8  1  0.51447567  -0.01176159  0.50223839  1
  V  V9  1  0.00048377  0.60896399  0.61969612  1
  V  V10  1  0.59974622  0.75434043  0.36286335  1
  V  V11  1  0.36949097  0.00094918  0.87976330  1
  V  V12  1  0.75602360  0.50288345  0.25909246  1
  V  V13  1  0.61210826  0.63425859  0.50881036  1
  V  V14  1  0.13314320  0.13881060  0.49680691  1
  V  V15  1  -0.00113774  -0.00470525  0.49750442  1
  V  V16  1  0.74967488  0.64237388  0.37060401  1
  V  V17  1  0.24982710  0.00299976  0.75589313  1
  V  V18  1  0.51208797  0.00740136  -0.00213555  1
  V  V19  1  0.24650070  0.38229608  0.12161526  1
  V  V20  1  0.13061341  0.36250802  0.27273426  1
  V  V21  1  0.37461693  0.13159914  0.75434842  1
  V  V22  1  0.00005216  -0.00529924  0.00622314  1
  V  V23  1  0.37939076  0.24740784  0.11555080  1
  V  V24  1  0.36515507  0.00252128  0.38297256  1
  V  V25  1  0.38096996  0.64747821  0.24395905  1
  V  V26  1  -0.00015855  0.40574882  0.86742624  1
  V  V27  1  0.51136433  0.12752120  0.11701312  1
  V  V28  1  0.49844909  0.38812502  0.86107972  1
  V  V29  1  0.25702770  0.49888859  0.74702645  1
  V  V30  1  0.75167280  -0.00600738  0.75423949  1
  V  V31  1  0.25861615  0.63454898  0.38546018  1
  V  V32  1  0.37473646  0.25050577  0.61616764  1
  V  V33  1  0.23531919  0.25617151  -0.01221360  1
  V  V34  1  0.24107382  0.37287186  0.62168546  1
  V  V35  1  0.00134868  0.75250783  0.74251813  1
  V  V36  1  0.12524721  -0.00126440  0.62459934  1
  V  V37  1  0.00552145  0.13133640  0.12945520  1
  V  V38  1  0.74731991  0.12794190  0.36476243  1
  V  V39  1  0.38352569  0.38620832  0.49108319  1
  V  V40  1  0.12381086  0.76047605  0.37412263  1
  V  V41  1  0.26392177  0.61766978  0.86542474  1
  V  V42  1  0.61866089  0.61720426  0.00142008  1
  V  V43  1  0.63240086  0.13691655  0.50033808  1
  V  V44  1  0.37525915  0.73748583  0.62918663  1
  V  V45  1  0.87598037  0.11572930  0.76088967  1
  V  V46  1  0.12048025  0.61917587  0.50305567  1
  V  V47  1  -0.01046677  0.51545006  0.02425932  1
  V  V48  1  0.26662746  0.50168412  0.26079468  1
  V  V49  1  0.76679356  0.86988903  0.12037657  1
  V  V50  1  0.13189258  0.74702296  0.86946237  1
  V  V51  1  0.86880261  0.75188681  0.61792732  1
  V  V52  1  0.59367278  0.88622363  0.24388786  1
  V  V53  1  0.25176515  0.86962498  0.62336995  1
  V  V54  1  0.49487822  0.87577628  0.87323443  1
  V  V55  1  0.13098798  0.62815017  -0.00609507  1
  V  V56  1  0.74378071  0.12211723  0.88780316  1
  V  V57  1  0.12704217  0.52776088  0.14491020  1
  V  V58  1  0.00998047  0.24463363  0.76891576  1
  V  V59  1  0.38275770  0.39612663  -0.00585802  1
  V  V60  1  0.37668231  0.86850860  0.50042718  1
  V  V61  1  0.24471723  0.86343197  0.12449960  1
  V  V62  1  0.61274614  0.37235471  0.27921198  1
  V  V63  1  0.62268885  0.47624425  0.62961714  1
  V  V64  1  0.61582206  0.25228353  0.86785923  1
  V  V65  1  0.86870609  0.61532432  0.74691306  1
  V  V66  1  0.62454065  0.48489668  0.12578883  1
  V  V67  1  0.23200136  0.00587752  0.24122143  1
  V  V68  1  0.62650193  0.87857238  0.74729298  1
  V  V69  1  0.75221406  0.26643142  0.00881542  1
  V  V70  1  0.87286759  0.00402485  0.36285028  1
  V  V71  1  0.12212855  0.87443963  0.75391167  1
  V  V72  1  0.75466277  0.61364702  0.87786289  1
  Zn  Zn73  1  0.12906378  0.12313848  -0.00695723  1
  Zn  Zn74  1  0.70865446  0.01551532  0.21172755  1
  Zn  Zn75  1  0.49038456  0.62810848  0.11754665  1
  Zn  Zn76  1  0.87644155  0.37110635  0.00975410  1
  Zn  Zn77  1  0.12716591  0.37356794  0.75374680  1
  Zn  Zn78  1  0.73967994  0.87794858  0.61356707  1
  Zn  Zn79  1  0.37964961  0.14702411  0.27170945  1
  Zn  Zn80  1  0.37220481  0.86145243  0.01034948  1
  Zn  Zn81  1  -0.04498289  0.88507963  0.89833581  1
  Zn  Zn82  1  0.19326091  0.18283055  0.18118280  1
  Zn  Zn83  1  0.18945147  0.18712813  0.68576366  1
  Zn  Zn84  1  0.18572241  0.69419858  0.19691499  1
  Zn  Zn85  1  0.18976936  0.68295037  0.68326853  1
  Zn  Zn86  1  0.68170788  0.20021851  0.18910834  1
  Zn  Zn87  1  0.69326855  0.19040931  0.69572679  1
  Zn  Zn88  1  0.67911789  0.69161389  0.18855958  1
  Zn  Zn89  1  0.68906697  0.68845359  0.68763770  1
  Zn  Zn90  1  0.32332169  0.31602084  0.30531782  1
  Zn  Zn91  1  0.31756744  0.31820379  0.81226146  1
  Zn  Zn92  1  0.30583798  0.82153962  0.31014518  1
  Zn  Zn93  1  0.31158607  0.81258876  0.81010742  1
  Zn  Zn94  1  0.79603819  0.31299073  0.30673767  1
  Zn  Zn95  1  0.82964279  0.30407303  0.82608994  1
  Zn  Zn96  1  0.77151249  0.80327761  0.27340663  1
  Zn  Zn97  1  0.81575071  0.80762917  0.81884190  1
  Zn  Zn98  1  0.19655548  0.43851156  0.44313254  1
  Zn  Zn99  1  0.18070200  0.44248404  0.93831000  1
  Zn  Zn100  1  0.18997406  0.94080186  0.43886270  1
  Zn  Zn101  1  0.18558129  0.93207400  0.94787490  1
  Zn  Zn102  1  0.55014929  0.45226893  0.44597354  1
  Zn  Zn103  1  0.68760189  0.42654952  0.81251061  1
  Zn  Zn104  1  0.69048188  0.92887523  0.42107878  1
  Zn  Zn105  1  0.72186375  0.96773742  0.98163090  1
  Zn  Zn106  1  0.29824067  0.06484837  0.06340722  1
  Zn  Zn107  1  0.31617932  0.06250760  0.56139570  1
  Zn  Zn108  1  0.30620239  0.57352860  0.06315216  1
  Zn  Zn109  1  0.31284695  0.55614218  0.56456576  1
  Zn  Zn110  1  0.82657035  0.06736644  0.07465537  1
  Zn  Zn111  1  0.81158964  0.05861265  0.57045458  1
  Zn  Zn112  1  0.80065115  0.57322585  0.06968052  1
  Zn  Zn113  1  0.74524689  0.51110212  0.49714114  1
  Zn  Zn114  1  0.44591045  0.43802166  0.18173196  1
  Zn  Zn115  1  0.44067278  0.44160462  0.68384446  1
  Zn  Zn116  1  0.42422659  0.95017105  0.18741522  1
  Zn  Zn117  1  0.43718971  0.93759339  0.68661843  1
  Zn  Zn118  1  0.94218354  0.43078198  0.19604227  1
  Zn  Zn119  1  0.80665115  0.43255603  0.67476250  1
  Zn  Zn120  1  0.94902168  0.93969366  0.17921572  1
  Zn  Zn121  1  0.93554116  0.93752737  0.68887659  1
  Zn  Zn122  1  0.06095492  0.07338221  0.31870860  1
  Zn  Zn123  1  0.06111213  0.05596629  0.82698488  1
  Zn  Zn124  1  0.08083769  0.55677604  0.31535137  1
  Zn  Zn125  1  0.07418324  0.56377021  0.79572788  1
  Zn  Zn126  1  0.54465550  0.07532939  0.32069893  1
  Zn  Zn127  1  0.56481960  0.06236991  0.81573248  1
  Zn  Zn128  1  0.56018123  0.56556668  0.30530561  1
  Zn  Zn129  1  0.56931692  0.56045028  0.80412289  1
  Zn  Zn130  1  0.40968475  0.19944288  0.42297097  1
  Zn  Zn131  1  0.43003584  0.19477282  0.94029286  1
  Zn  Zn132  1  0.43812081  0.68291562  0.43876061  1
  Zn  Zn133  1  0.44378946  0.68018038  0.93148532  1
  Zn  Zn134  1  0.93795114  0.18389946  0.43975231  1
  Zn  Zn135  1  0.93236461  0.17586656  0.94854692  1
  Zn  Zn136  1  0.95661858  0.63430403  0.40315364  1
  Zn  Zn137  1  0.93837539  0.69602153  0.92268272  1
  Zn  Zn138  1  0.05086632  0.32771344  0.07485666  1
  Zn  Zn139  1  0.04755991  0.31626822  0.56154953  1
  Zn  Zn140  1  0.06526599  0.80923006  0.06555809  1
  Zn  Zn141  1  0.06456553  0.80633651  0.55463819  1
  Zn  Zn142  1  0.56588153  0.31309026  0.04517605  1
  Zn  Zn143  1  0.55750170  0.30509038  0.56623908  1
  Zn  Zn144  1  0.56072907  0.81706011  0.05916796  1
  Zn  Zn145  1  0.56242773  0.80416670  0.56336355  1
  O  O146  1  0.11754222  0.13111524  0.11451985  1
  O  O147  1  0.11607585  0.11226638  0.62825611  1
  O  O148  1  0.15168203  0.64305519  0.09206653  1
  O  O149  1  0.11505795  0.62908608  0.61389912  1
  O  O150  1  0.61049826  0.13190198  0.12438966  1
  O  O151  1  0.61475857  0.13007504  0.62633880  1
  O  O152  1  0.61636893  0.64576773  0.10366031  1
  O  O153  1  0.62480374  0.64027860  0.60983311  1
  O  O154  1  0.36406924  0.37739240  0.39349141  1
  O  O155  1  0.38551190  0.37604792  0.88546992  1
  O  O156  1  0.36824593  0.87586891  0.39717578  1
  O  O157  1  0.38103328  0.88127434  0.87456348  1
  O  O158  1  0.87401693  0.36430414  0.38572832  1
  O  O159  1  0.90473611  0.36631466  0.89271551  1
  O  O160  1  0.88695019  0.88753692  0.38466382  1
  O  O161  1  0.88677641  0.80081723  0.90658392  1
  O  O162  1  0.25983760  -0.01304279  0.36319199  1
  O  O163  1  0.25544739  -0.00983031  0.86194848  1
  O  O164  1  0.25050071  0.51395725  0.36558618  1
  O  O165  1  0.24937117  0.50812841  0.86249458  1
  O  O166  1  0.76569427  0.00291497  0.37385516  1
  O  O167  1  0.74567146  0.01274976  0.87288134  1
  O  O168  1  0.74637404  0.52035376  0.36340808  1
  O  O169  1  0.74351596  0.51681998  0.86952747  1
  O  O170  1  0.24326844  0.50508671  0.14110388  1
  O  O171  1  0.25326113  0.48340169  0.63258778  1
  O  O172  1  0.24095053  0.99744851  0.13458085  1
  O  O173  1  0.24259081  0.99062455  0.63510797  1
  O  O174  1  0.73117351  0.51789172  0.14104361  1
  O  O175  1  0.73540474  0.49417051  0.61217107  1
  O  O176  1  0.74638189  0.99386138  0.10488533  1
  O  O177  1  0.75392316  0.99176394  0.64772393  1
  O  O178  1  0.02251251  0.35927351  0.25540671  1
  O  O179  1  -0.00000812  0.35248315  0.76716821  1
  O  O180  1  0.00009176  0.87384307  0.25997451  1
  O  O181  1  0.01074421  0.86875377  0.74805897  1
  O  O182  1  0.51349893  0.38331376  0.25370295  1
  O  O183  1  0.48484254  0.36880845  0.76396704  1
  O  O184  1  0.49441650  0.88129324  0.24881274  1
  O  O185  1  0.50665387  0.87615331  0.75893973  1
  O  O186  1  0.48328628  0.11491662  0.21269059  1
  O  O187  1  0.48845530  0.11105667  0.73780758  1
  O  O188  1  0.48342557  0.63076819  0.24427242  1
  O  O189  1  0.49865829  0.63700366  0.75499361  1
  O  O190  1  1.00570696  0.13704640  0.24272126  1
  O  O191  1  0.99544121  0.12102316  0.74766802  1
  O  O192  1  1.10199885  0.60452780  0.21135108  1
  O  O193  1  0.99540229  0.63186361  0.73536803  1
  O  O194  1  0.36167152  0.26867737  0.00137490  1
  O  O195  1  0.37424381  0.25558911  0.51385765  1
  O  O196  1  0.41020028  0.74679711  0.02150212  1
  O  O197  1  0.38580335  0.75962928  0.51834392  1
  O  O198  1  0.85618245  0.24644734  -0.00754514  1
  O  O199  1  0.88639365  0.23906100  0.52287779  1
  O  O200  1  0.92116649  0.71041202  0.08765455  1
  O  O201  1  0.88440640  0.76122004  0.51638570  1
  O  O202  1  0.11328072  0.23649067  0.51069341  1
  O  O203  1  0.13575687  0.27368398  1.00775797  1
  O  O204  1  0.12522947  0.73374247  0.49090517  1
  O  O205  1  0.11379274  0.73919552  0.97936784  1
  O  O206  1  0.62435680  0.23500605  0.50061505  1
  O  O207  1  0.64169075  0.25559642  0.98193114  1
  O  O208  1  0.61628055  0.74378368  0.48396400  1
  O  O209  1  0.61362107  0.74371953  0.98016401  1
  O  O210  1  0.49010672  0.23814143  0.09671153  1
  O  O211  1  0.48730777  0.22984173  0.62323035  1
  O  O212  1  0.47071332  0.74397727  0.08191419  1
  O  O213  1  0.48950973  0.75177764  0.63989398  1
  O  O214  1  1.01580342  0.24072623  0.14616562  1
  O  O215  1  0.99605926  0.23537578  0.63883733  1
  O  O216  1  0.98717597  0.73620146  0.12627843  1
  O  O217  1  0.99611864  0.74946881  0.63204788  1
  O  O218  1  -0.00427469  0.23693032  0.35822202  1
  O  O219  1  0.00157922  0.22865616  0.86653628  1
  O  O220  1  0.00748503  0.74527964  0.37731763  1
  O  O221  1  0.02111143  0.73743618  0.85048864  1
  O  O222  1  0.48121883  0.16743028  0.34627107  1
  O  O223  1  0.51192690  0.25328991  0.88310675  1
  O  O224  1  0.50026371  0.75618381  0.37509169  1
  O  O225  1  0.50032936  0.75718926  0.86175238  1
  O  O226  1  0.23051052  0.12458422  0.52282866  1
  O  O227  1  0.24542634  0.15203456  1.00346159  1
  O  O228  1  0.24936154  0.62152629  0.48978818  1
  O  O229  1  0.24230034  0.61914121  0.97550237  1
  O  O230  1  0.73398740  0.11331970  0.50729779  1
  O  O231  1  0.75348109  0.11998354  0.98762560  1
  O  O232  1  0.72340991  0.62507328  0.47624166  1
  O  O233  1  0.74340687  0.62916583  0.98338502  1
  O  O234  1  0.25698419  0.38117321  0.00577842  1
  O  O235  1  0.26295739  0.37797873  0.51775969  1
  O  O236  1  0.25458256  0.86944277  0.01169281  1
  O  O237  1  0.26070863  0.87680665  0.51565230  1
  O  O238  1  0.75957374  0.36702006  0.00355061  1
  O  O239  1  0.83110664  0.38553279  0.44793321  1
  O  O240  1  0.73943735  0.86338937  0.02064829  1
  O  O241  1  0.76712845  0.88267647  0.49886812  1
  O  O242  1  0.14239056  0.47563463  0.25412988  1
  O  O243  1  0.14424307  0.49201562  0.74361022  1
  O  O244  1  0.13416872  1.00747559  0.25909200  1
  O  O245  1  0.12973089  0.99154265  0.74321818  1
  O  O246  1  0.62880216  0.49219504  0.24151098  1
  O  O247  1  0.63667648  0.49960478  0.73594802  1
  O  O248  1  0.60386345  0.99353333  0.26058428  1
  O  O249  1  0.63331843  0.98663944  0.75950815  1
  O  O250  1  0.38566000  0.01385130  0.28106356  1
  O  O251  1  0.36733475  0.00461551  0.75719382  1
  O  O252  1  0.36659365  0.49993081  0.24822449  1
  O  O253  1  0.35868646  0.49578312  0.74374207  1
  O  O254  1  0.88560415  -0.00006440  0.26552003  1
  O  O255  1  0.86880104  0.00321025  0.75644568  1
  O  O256  1  0.85472231  0.49019819  0.23874995  1
  O  O257  1  0.87128577  0.51913468  0.73424007  1
  O  O258  1  0.14339737  0.36850266  0.37139530  1
  O  O259  1  0.10706090  0.38664546  0.87060867  1
  O  O260  1  0.12619136  0.85908557  0.39403346  1
  O  O261  1  0.13546782  0.86309958  0.86053405  1
  O  O262  1  0.61743969  0.38268241  0.37909993  1
  O  O263  1  0.60939564  0.36538643  0.87182550  1
  O  O264  1  0.62195544  0.86466469  0.35814593  1
  O  O265  1  0.61257284  0.85942849  0.86624476  1
  O  O266  1  0.37192830  0.14486445  0.10907049  1
  O  O267  1  0.38149572  0.13182992  0.63179213  1
  O  O268  1  0.37023539  0.62483588  0.14041621  1
  O  O269  1  0.36802067  0.63945161  0.62199809  1
  O  O270  1  0.90221188  0.13234246  0.12429293  1
  O  O271  1  0.88565212  0.11926689  0.63948517  1
  O  O272  1  0.88176597  0.65540458  0.12768228  1
  O  O273  1  0.88699131  0.64013110  0.63243770  1
  O  O274  1  0.26071314  0.26796850  0.11424336  1
  O  O275  1  0.26570885  0.25970752  0.63447384  1
  O  O276  1  0.25726303  0.76452508  0.14156095  1
  O  O277  1  0.26479309  0.75789870  0.63708065  1
  O  O278  1  0.74360049  0.24329614  0.10682155  1
  O  O279  1  0.76995025  0.24139433  0.63307687  1
  O  O280  1  0.75465328  0.76935157  0.15239328  1
  O  O281  1  0.76642583  0.75534714  0.63042489  1
  O  O282  1  0.32113372  0.21513986  0.34895281  1
  O  O283  1  0.24822371  0.26780061  0.88857694  1
  O  O284  1  0.24301680  0.74042074  0.37450983  1
  O  O285  1  0.24147105  0.73367514  0.85687441  1
  O  O286  1  0.75626385  0.22630817  0.37310335  1
  O  O287  1  0.74331624  0.23664917  0.88039555  1
  O  O288  1  0.72726563  0.74690894  0.36309401  1
  O  O289  1  0.73178700  0.74100638  0.86739101  1
  O  O290  1  0.00908459  0.12147164  0.01043412  1
  O  O291  1  0.00860411  0.11312064  0.51445139  1
  O  O292  1  0.01160200  0.61500838  -0.01642336  1
  O  O293  1  0.00966100  0.62445546  0.50948011  1
  O  O294  1  0.49371741  0.11306861  -0.00342879  1
  O  O295  1  0.52183921  0.10645114  0.51423708  1
  O  O296  1  0.51706797  0.61269264  -0.01302132  1
  O  O297  1  0.51164268  0.62112114  0.49700815  1
  O  O298  1  0.48827030  0.36707576  0.49793642  1
  O  O299  1  0.48644204  0.38116121  0.99271909  1
  O  O300  1  0.48775563  0.88112371  0.51660445  1
  O  O301  1  0.49450958  0.88938212  0.98620325  1
  O  O302  1  1.00183623  0.40187134  0.50982853  1
  O  O303  1  1.01615665  0.42338135  0.98005300  1
  O  O304  1  0.99287103  0.88703086  0.50817118  1
  O  O305  1  1.00450745  0.88882111  1.01127138  1
  O  O306  1  0.49088361  0.51685455  0.37745496  1
  O  O307  1  0.50766196  0.48755183  0.86588949  1
  O  O308  1  0.48645766  0.99749103  0.40226716  1
  O  O309  1  0.49002496  0.99496784  0.87940128  1
  O  O310  1  0.98299230  0.53754163  0.35537655  1
  O  O311  1  0.98956472  0.50272438  0.84661677  1
  O  O312  1  0.98665624  1.01392087  0.39043850  1
  O  O313  1  0.99658040  0.98721468  0.88815558  1
  O  O314  1  0.00876898  0.01383579  0.11819959  1
  O  O315  1  0.00818984  0.00370023  0.62241275  1
  O  O316  1  0.01285054  0.51108044  0.12625009  1
  O  O317  1  -0.00345200  0.51433005  0.62516389  1
  O  O318  1  0.49082562  0.01087329  0.10234164  1
  O  O319  1  0.49308154  0.01068183  0.61613944  1
  O  O320  1  0.52112080  0.51177062  0.12895320  1
  O  O321  1  0.52082353  0.49810507  0.63022674  1
  O  O322  1  0.25541490  0.38698271  0.24308366  1
  O  O323  1  0.25139199  0.37995474  0.74081288  1
  O  O324  1  0.25855952  0.89563789  0.23870718  1
  O  O325  1  0.24300071  0.88233080  0.74147092  1
  O  O326  1  0.73208450  0.39502090  0.26207312  1
  O  O327  1  0.76861659  0.37138828  0.76152313  1
  O  O328  1  0.73248694  0.90057069  0.22954290  1
  O  O329  1  0.74346447  0.87974547  0.76329987  1
  O  O330  1  0.26344230  0.10822423  0.23933341  1
  O  O331  1  0.26469143  0.11376723  0.74029466  1
  O  O332  1  0.26208317  0.61689975  0.26032284  1
  O  O333  1  0.24694495  0.61129544  0.75341854  1
  O  O334  1  0.73491097  0.11889497  0.26104221  1
  O  O335  1  0.75731368  0.11212254  0.75858496  1
  O  O336  1  0.73806065  0.61928189  0.25970462  1
  O  O337  1  0.76305432  0.63377734  0.75691284  1
  O  O338  1  0.35770104  0.09169447  0.42630228  1
  O  O339  1  0.38094983  0.11895799  0.85908536  1
  O  O340  1  0.36295957  0.63439094  0.36645551  1
  O  O341  1  0.36235010  0.62982297  0.87288514  1
  O  O342  1  0.85983715  0.11146361  0.38447396  1
  O  O343  1  0.86023783  0.12848154  0.86616792  1
  O  O344  1  0.84754704  0.64864442  0.38374948  1
  O  O345  1  0.86490152  0.62778154  0.86079583  1
  O  O346  1  0.13990403  0.39328439  0.12942550  1
  O  O347  1  0.14071492  0.36226760  0.62597456  1
  O  O348  1  0.14116759  0.86766457  0.12420269  1
  O  O349  1  0.13157436  0.87962846  0.63161743  1
  O  O350  1  0.62173655  0.38553808  0.11900460  1
  O  O351  1  0.62415910  0.37584248  0.62309006  1
  O  O352  1  0.61062295  0.87390863  0.14071968  1
  O  O353  1  0.62742775  0.86028457  0.64291478  1
  O  O354  1  0.15117823  0.26602704  0.24971806  1
  O  O355  1  0.11302821  0.24591841  0.74797437  1
  O  O356  1  0.12659707  0.75439033  0.27387563  1
  O  O357  1  0.12242113  0.75795620  0.74575878  1
  O  O358  1  0.63338807  0.27409167  0.25788691  1
  O  O359  1  0.62745500  0.24825946  0.76734516  1
  O  O360  1  0.60862962  0.76184547  0.25521037  1
  O  O361  1  0.61128250  0.75204527  0.75812608  1
  O  O362  1  0.38447462  0.26512796  0.21494187  1
  O  O363  1  0.37323651  0.23420825  0.74630147  1
  O  O364  1  0.37175993  0.74542766  0.25289212  1
  O  O365  1  0.38717464  0.75384218  0.74203105  1
  O  O366  1  0.88479197  0.26673776  0.24815602  1
  O  O367  1  0.89015755  0.23286596  0.74611903  1
  O  O368  1  0.88221733  0.76817226  0.27122110  1
  O  O369  1  0.88629770  0.74900853  0.73880838  1
  O  O370  1  0.38083682  0.48494980  0.50969425  1
  O  O371  1  0.36911139  0.49500086  1.00215517  1
  O  O372  1  0.37793435  0.97816051  0.50781858  1
  O  O373  1  0.36858837  1.00822915  0.98250799  1
  O  O374  1  0.85027034  0.45471682  0.48009785  1
  O  O375  1  0.88807049  0.51462459  1.01990300  1
  O  O376  1  0.88327845  0.99305208  0.50226465  1
  O  O377  1  0.89810905  1.00940810  1.00197318  1
  O  O378  1  0.11352927  0.00595669  -0.00877840  1
  O  O379  1  0.11891459  -0.00097845  0.51299920  1
  O  O380  1  0.12485247  0.52002031  0.01693108  1
  O  O381  1  0.13229650  0.51945631  0.49355270  1
  O  O382  1  0.60938525  0.00029013  -0.01086037  1
  O  O383  1  0.61486950  -0.02070414  0.49927856  1
  O  O384  1  0.63676789  0.51678374  0.01814228  1
  O  O385  1  0.62397000  0.51142067  0.51362870  1
  O  O386  1  0.37057872  0.37795827  0.10970183  1
  O  O387  1  0.37695690  0.35918255  0.62287467  1
  O  O388  1  0.35837645  0.89246933  0.11994419  1
  O  O389  1  0.36720101  0.86734699  0.62397867  1
  O  O390  1  0.94345872  0.37036920  0.09978359  1
  O  O391  1  0.88181751  0.35695902  0.63052215  1
  O  O392  1  0.86678983  0.88074806  0.12654295  1
  O  O393  1  0.87409508  0.86635383  0.62101757  1
  O  O394  1  0.12672705  0.11930962  0.39866300  1
  O  O395  1  0.13385906  0.12112541  0.87844461  1
  O  O396  1  0.13818022  0.63409394  0.38584568  1
  O  O397  1  0.13671705  0.62827692  0.87465170  1
  O  O398  1  0.63993099  0.11168461  0.39293523  1
  O  O399  1  0.63510074  0.13375462  0.87224928  1
  O  O400  1  0.61902461  0.64384907  0.37033345  1
  O  O401  1  0.63304671  0.63168183  0.87784096  1
