# generated using pymatgen
data_V73Zn73O256
_symmetry_space_group_name_H-M   'P 1'
_cell_length_a   16.88299524
_cell_length_b   16.89371649
_cell_length_c   16.87915262
_cell_angle_alpha   90.02745108
_cell_angle_beta   90.23472385
_cell_angle_gamma   89.79499576
_symmetry_Int_Tables_number   1
_chemical_formula_structural   V73Zn73O256
_chemical_formula_sum   'V73 Zn73 O256'
_cell_volume   4814.14169219
_cell_formula_units_Z   1
loop_
 _symmetry_equiv_pos_site_id
 _symmetry_equiv_pos_as_xyz
  1  'x, y, z'
loop_
 _atom_site_type_symbol
 _atom_site_label
 _atom_site_symmetry_multiplicity
 _atom_site_fract_x
 _atom_site_fract_y
 _atom_site_fract_z
 _atom_site_occupancy
  V  V0  1  0.63331169  0.75080912  0.38708991  1
  V  V1  1  0.74969120  0.62770415  0.39473443  1
  V  V2  1  0.62271327  0.38301269  0.24414033  1
  V  V3  1  0.36309081  0.61515859  0.25208476  1
  V  V4  1  0.75079983  0.86867730  0.60650072  1
  V  V5  1  0.37158012  0.23771063  0.12838784  1
  V  V6  1  0.51793933  0.11983983  0.12714694  1
  V  V7  1  0.13283056  0.50234786  0.12208369  1
  V  V8  1  0.00442932  0.36428158  0.87343466  1
  V  V9  1  -0.00290976  0.50696322  0.00308857  1
  V  V10  1  0.62780128  0.38207184  0.75415999  1
  V  V11  1  0.11147085  0.87003073  0.25196135  1
  V  V12  1  0.13075075  0.59604980  0.49492076  1
  V  V13  1  -0.00107608  0.25512222  0.23374291  1
  V  V14  1  0.49807897  0.73693946  0.75499073  1
  V  V15  1  0.88295927  0.63783491  0.75528697  1
  V  V16  1  0.50190436  0.87832194  0.87402224  1
  V  V17  1  0.62989521  0.87989074  0.24051961  1
  V  V18  1  0.86957544  0.49841849  0.87327789  1
  V  V19  1  0.12692455  0.64373807  -0.00457830  1
  V  V20  1  0.74793485  -0.00307683  0.23962901  1
  V  V21  1  -0.00249691  0.63302907  0.13349464  1
  V  V22  1  0.13165257  0.23974353  0.37018101  1
  V  V23  1  0.23615666  0.49770875  0.73406362  1
  V  V24  1  0.00104489  0.86156699  0.86771176  1
  V  V25  1  0.87026776  0.00414499  0.87485755  1
  V  V26  1  0.87358411  0.63168675  0.25585048  1
  V  V27  1  0.88245239  0.00010005  0.38800447  1
  V  V28  1  0.50378437  0.24735591  0.25382816  1
  V  V29  1  0.87380621  0.36398483  0.01815351  1
  V  V30  1  0.38131142  0.38004625  -0.00173828  1
  V  V31  1  0.73561675  0.75671449  0.00236049  1
  V  V32  1  0.23991425  0.23621557  -0.01073945  1
  V  V33  1  0.74368285  0.50487666  0.24589160  1
  V  V34  1  0.49781335  0.39120113  0.38004103  1
  V  V35  1  0.87660700  0.49832640  0.38177977  1
  V  V36  1  0.63570413  0.50841159  0.61209601  1
  V  V37  1  0.50209215  0.75339022  0.24756294  1
  V  V38  1  0.50054557  0.62009646  0.59850945  1
  V  V39  1  0.74316896  0.62198419  0.87396918  1
  V  V40  1  0.48913523  0.87803472  0.37690567  1
  V  V41  1  0.74480569  0.00576897  0.75476294  1
  V  V42  1  0.88689460  0.23883124  0.62528819  1
  V  V43  1  0.75162588  0.13103754  0.37758587  1
  V  V44  1  0.62886781  0.13000310  0.50302277  1
  V  V45  1  0.24728664  0.87517021  0.12656947  1
  V  V46  1  -0.00246436  0.87130060  0.39803565  1
  V  V47  1  0.25941085  0.00988149  0.25963423  1
  V  V48  1  0.18743229  0.43080386  0.29673766  1
  V  V49  1  0.62419985  0.59851646  0.00516749  1
  V  V50  1  0.87222767  0.87370574  0.00624567  1
  V  V51  1  0.74079433  0.35896916  0.61481403  1
  V  V52  1  0.24853249  0.38122217  0.11956721  1
  V  V53  1  0.49616922  0.38758692  0.87502667  1
  V  V54  1  0.88074686  0.12924443  0.23616842  1
  V  V55  1  0.87595482  0.74919854  0.61104722  1
  V  V56  1  0.50644441  0.60982626  0.12501016  1
  V  V57  1  0.62586730  0.86942028  0.75237953  1
  V  V58  1  0.37864481  0.24671754  0.61805149  1
  V  V59  1  0.36790391  0.88306877  -0.00728393  1
  V  V60  1  0.00258764  0.00864059  -0.00080592  1
  V  V61  1  0.11980712  0.10254427  0.50971873  1
  V  V62  1  0.24435291  0.76569894  0.49450616  1
  V  V63  1  0.11721891  0.01254327  0.12586428  1
  V  V64  1  0.48708195  0.00001856  0.49519293  1
  V  V65  1  0.37550619  0.75438676  0.12058335  1
  V  V66  1  -0.00242971  0.37527954  0.37644946  1
  V  V67  1  0.62197480  -0.00254445  0.62054020  1
  V  V68  1  0.50991807  0.00773246  0.00002129  1
  V  V69  1  0.37359709  0.38853903  0.50269857  1
  V  V70  1  0.37202361  0.75087382  0.61379689  1
  V  V71  1  0.86756676  0.75436173  0.13183555  1
  V  V72  1  0.50085357  0.23983456  0.75616960  1
  Zn  Zn73  1  0.74317590  0.37943290  0.12419494  1
  Zn  Zn74  1  0.13299816  0.74941484  0.83498091  1
  Zn  Zn75  1  0.63258873  0.25856561  0.38321374  1
  Zn  Zn76  1  0.29559822  0.17954976  0.80946215  1
  Zn  Zn77  1  0.02793470  0.56799450  0.62760298  1
  Zn  Zn78  1  0.89313253  0.12131835  0.74719531  1
  Zn  Zn79  1  0.12146108  0.73721432  0.37317564  1
  Zn  Zn80  1  0.27799035  0.62008833  0.86160815  1
  Zn  Zn81  1  0.87196319  0.36653328  0.49981398  1
  Zn  Zn82  1  0.18703618  0.19152219  0.18715197  1
  Zn  Zn83  1  0.24821970  0.15483631  0.61737440  1
  Zn  Zn84  1  0.18610956  0.69194163  0.18276641  1
  Zn  Zn85  1  0.20203141  0.66644930  0.68944370  1
  Zn  Zn86  1  0.68789336  0.18762261  0.19043479  1
  Zn  Zn87  1  0.67138351  0.18681845  0.69390222  1
  Zn  Zn88  1  0.68627093  0.68778698  0.19075111  1
  Zn  Zn89  1  0.68825646  0.68732759  0.68453555  1
  Zn  Zn90  1  0.33989685  0.26299075  0.34542595  1
  Zn  Zn91  1  0.33488927  0.35166244  0.77383924  1
  Zn  Zn92  1  0.30563107  0.81050923  0.30868463  1
  Zn  Zn93  1  0.31522771  0.80030891  0.80969835  1
  Zn  Zn94  1  0.81295674  0.31426425  0.30611058  1
  Zn  Zn95  1  0.80177301  0.28762824  0.80445888  1
  Zn  Zn96  1  0.81334271  0.81678530  0.32160139  1
  Zn  Zn97  1  0.80680605  0.81351348  0.82144311  1
  Zn  Zn98  1  0.16653735  0.38841531  0.47809973  1
  Zn  Zn99  1  0.21124132  0.40668343  0.89513250  1
  Zn  Zn100  1  0.18577268  0.93501469  0.44015591  1
  Zn  Zn101  1  0.17692822  0.92694403  0.93857745  1
  Zn  Zn102  1  0.68692449  0.44086816  0.43384762  1
  Zn  Zn103  1  0.71016503  0.39258719  0.92130432  1
  Zn  Zn104  1  0.68612696  0.94253400  0.42732984  1
  Zn  Zn105  1  0.68521112  0.93814739  0.93713576  1
  Zn  Zn106  1  0.31083748  0.05937461  0.06247267  1
  Zn  Zn107  1  0.30353202  0.08366616  0.42790141  1
  Zn  Zn108  1  0.32789498  0.57985275  0.03214134  1
  Zn  Zn109  1  0.30805453  0.56050426  0.55819385  1
  Zn  Zn110  1  0.81195401  0.05990413  0.06309866  1
  Zn  Zn111  1  0.80846642  0.06084098  0.56650690  1
  Zn  Zn112  1  0.80906162  0.56548753  0.06372879  1
  Zn  Zn113  1  0.83776292  0.54412067  0.58544534  1
  Zn  Zn114  1  0.42998126  0.43083206  0.19227649  1
  Zn  Zn115  1  0.43875522  0.45209770  0.68322228  1
  Zn  Zn116  1  0.43821147  0.94052145  0.18788334  1
  Zn  Zn117  1  0.44350412  0.92468350  0.67465613  1
  Zn  Zn118  1  0.93822263  0.44465457  0.19334904  1
  Zn  Zn119  1  0.92666148  0.42417263  0.69599700  1
  Zn  Zn120  1  0.93312590  0.94225430  0.18832379  1
  Zn  Zn121  1  0.93158341  0.93105972  0.68785695  1
  Zn  Zn122  1  0.06316988  0.06386205  0.31262393  1
  Zn  Zn123  1  0.12133207  0.10295422  0.72559712  1
  Zn  Zn124  1  0.06013939  0.56351307  0.31498228  1
  Zn  Zn125  1  0.06975581  0.55660050  0.81985320  1
  Zn  Zn126  1  0.56249691  0.06386473  0.31528369  1
  Zn  Zn127  1  0.44641947  0.06774774  0.81784796  1
  Zn  Zn128  1  0.56165558  0.56978783  0.31714738  1
  Zn  Zn129  1  0.56565604  0.55484909  0.81572952  1
  Zn  Zn130  1  0.45050540  0.18892197  0.44653070  1
  Zn  Zn131  1  0.43556671  0.19622708  0.93738351  1
  Zn  Zn132  1  0.43197007  0.68761142  0.43175692  1
  Zn  Zn133  1  0.44516120  0.69042423  0.93968209  1
  Zn  Zn134  1  0.93699514  0.18796939  0.43036296  1
  Zn  Zn135  1  0.93057371  0.18843938  0.94013739  1
  Zn  Zn136  1  0.95013314  0.68071338  0.44427460  1
  Zn  Zn137  1  0.93124819  0.68717890  0.94432801  1
  Zn  Zn138  1  0.06465891  0.31738618  0.05233569  1
  Zn  Zn139  1  0.04115690  0.26074996  0.53891696  1
  Zn  Zn140  1  0.05302459  0.81792302  0.06965939  1
  Zn  Zn141  1  0.08547562  0.74295777  0.61360450  1
  Zn  Zn142  1  0.56148535  0.31393098  0.06557595  1
  Zn  Zn143  1  0.54870433  0.31639534  0.56934367  1
  Zn  Zn144  1  0.55777226  0.81969829  0.06294660  1
  Zn  Zn145  1  0.55726858  0.81208396  0.56395996  1
  O  O146  1  0.12306612  0.11031177  0.12684072  1
  O  O147  1  0.12351402  0.12574879  0.61109697  1
  O  O148  1  0.11278921  0.62258302  0.12686466  1
  O  O149  1  0.12298162  0.62351034  0.60918978  1
  O  O150  1  0.61661525  0.12206058  0.12297366  1
  O  O151  1  0.63097130  0.11132171  0.61125196  1
  O  O152  1  0.61599480  0.62523973  0.12030028  1
  O  O153  1  0.62008443  0.61548527  0.62709953  1
  O  O154  1  0.39394423  0.36336002  0.38424529  1
  O  O155  1  0.38408186  0.37065083  0.89014162  1
  O  O156  1  0.39112321  0.86778116  0.36731098  1
  O  O157  1  0.38027736  0.87149301  0.88769677  1
  O  O158  1  0.87859071  0.38055673  0.37325899  1
  O  O159  1  0.88126562  0.39300797  0.89286397  1
  O  O160  1  0.88646404  0.88822389  0.37310473  1
  O  O161  1  0.87733644  0.88137171  0.88795871  1
  O  O162  1  0.24883416  -0.00071483  0.36505309  1
  O  O163  1  0.19867883  0.01736719  0.85831338  1
  O  O164  1  0.24210148  0.48156218  0.35637716  1
  O  O165  1  0.23431388  0.51241427  0.86078761  1
  O  O166  1  0.76355688  0.00903668  0.36678783  1
  O  O167  1  0.75786108  -0.00576565  0.86972832  1
  O  O168  1  0.75609696  0.50946190  0.36703329  1
  O  O169  1  0.76293427  0.50822141  0.88955453  1
  O  O170  1  0.24024563  0.49402937  0.11149571  1
  O  O171  1  0.25033863  0.49202255  0.63316152  1
  O  O172  1  0.23586867  0.99211856  0.12880269  1
  O  O173  1  0.31748643  1.02791681  0.70580889  1
  O  O174  1  0.75269935  0.50591498  0.14291515  1
  O  O175  1  0.73964454  0.48935592  0.62535231  1
  O  O176  1  0.74975523  1.00430186  0.13980061  1
  O  O177  1  0.74432973  0.98455104  0.63231854  1
  O  O178  1  -0.00901463  0.36096050  0.25568927  1
  O  O179  1  -0.00614319  0.38131439  0.77381323  1
  O  O180  1  0.01041559  0.87675364  0.24530183  1
  O  O181  1  -0.00920840  0.87582397  0.76913499  1
  O  O182  1  0.50479792  0.36892492  0.25798646  1
  O  O183  1  0.50387336  0.37571943  0.76265967  1
  O  O184  1  0.50766696  0.87352849  0.25810410  1
  O  O185  1  0.50584621  0.87155839  0.75712490  1
  O  O186  1  0.50876732  0.13130170  0.23719864  1
  O  O187  1  0.51336944  0.13971404  0.75968283  1
  O  O188  1  0.49979658  0.63593773  0.23718938  1
  O  O189  1  0.50658829  0.63723701  0.75864055  1
  O  O190  1  0.98637437  0.13193240  0.25062684  1
  O  O191  1  1.00710199  0.07275950  0.72389740  1
  O  O192  1  0.98535432  0.62280880  0.24559983  1
  O  O193  1  0.98183467  0.62091716  0.75139907  1
  O  O194  1  0.37140825  0.25530057  0.01602826  1
  O  O195  1  0.40303755  0.26703670  0.51328671  1
  O  O196  1  0.38876866  0.77023254  0.01371303  1
  O  O197  1  0.36112705  0.74054874  0.50403296  1
  O  O198  1  0.87635591  0.26488719  0.00798884  1
  O  O199  1  0.87930575  0.24843194  0.51592637  1
  O  O200  1  0.86325290  0.75600103  0.01253150  1
  O  O201  1  0.87186796  0.73590818  0.51265446  1
  O  O202  1  0.13349797  0.27350574  0.47349861  1
  O  O203  1  0.14128964  0.24747296  1.00991784  1
  O  O204  1  0.13979750  0.75537032  0.51006773  1
  O  O205  1  0.11750559  0.74261436  1.01500014  1
  O  O206  1  0.61224627  0.23157111  0.50315813  1
  O  O207  1  0.66204187  0.25955620  1.03966278  1
  O  O208  1  0.62106386  0.75730444  0.48490924  1
  O  O209  1  0.63481719  0.75626259  1.00626140  1
  O  O210  1  0.49451757  0.23642727  0.12743632  1
  O  O211  1  0.49583870  0.25271290  0.64622650  1
  O  O212  1  0.49462895  0.75409026  0.13515670  1
  O  O213  1  0.50001188  0.73456988  0.62976617  1
  O  O214  1  1.00441259  0.25755126  0.13487270  1
  O  O215  1  0.98605954  0.25396496  0.63679250  1
  O  O216  1  0.98263750  0.74198897  0.12690106  1
  O  O217  1  0.97372640  0.75571231  0.62933649  1
  O  O218  1  0.00909563  0.25784000  0.36228901  1
  O  O219  1  -0.00839608  0.26422377  0.88308639  1
  O  O220  1  0.00283270  0.76600122  0.38357324  1
  O  O221  1  -0.01281062  0.76144590  0.88045380  1
  O  O222  1  0.51067865  0.25325184  0.36201936  1
  O  O223  1  0.49750242  0.26327427  0.86328475  1
  O  O224  1  0.51020996  0.76004174  0.36600285  1
  O  O225  1  0.49385495  0.76079173  0.86240498  1
  O  O226  1  0.22707542  0.12183424  0.50370548  1
  O  O227  1  0.25401886  0.13639052  1.00221262  1
  O  O228  1  0.23341083  0.62918904  0.50223676  1
  O  O229  1  0.22466012  0.62697173  1.01151992  1
  O  O230  1  0.73791546  0.11908168  0.49152601  1
  O  O231  1  0.76122212  0.14375306  0.99129503  1
  O  O232  1  0.75711258  0.61679899  0.49131555  1
  O  O233  1  0.73494757  0.63190028  1.00054311  1
  O  O234  1  0.26361846  0.36287893  0.00379138  1
  O  O235  1  0.27597602  0.36950969  0.49464455  1
  O  O236  1  0.26115115  0.88406413  0.00597037  1
  O  O237  1  0.25172817  0.86590930  0.50414374  1
  O  O238  1  0.77238980  0.39851564  0.01417030  1
  O  O239  1  0.74443440  0.37143727  0.51107801  1
  O  O240  1  0.75540402  0.86374841  -0.00365453  1
  O  O241  1  0.74683560  0.87881991  0.50812122  1
  O  O242  1  0.12707694  0.49971686  0.23976797  1
  O  O243  1  0.12977684  0.51349988  0.73607399  1
  O  O244  1  0.12567510  0.99276873  0.23902711  1
  O  O245  1  0.20065337  0.88729773  0.71232660  1
  O  O246  1  0.63445182  0.49682173  0.26110025  1
  O  O247  1  0.61960858  0.48761848  0.73805768  1
  O  O248  1  0.64111159  0.99609669  0.25949682  1
  O  O249  1  0.62773260  0.98434075  0.73385435  1
  O  O250  1  0.35835603  -0.00178346  0.24452403  1
  O  O251  1  0.38151717  0.00062699  0.73947583  1
  O  O252  1  0.37271762  0.51589221  0.23857240  1
  O  O253  1  0.35263926  0.46379370  0.75275538  1
  O  O254  1  0.86599572  0.01130845  0.25410959  1
  O  O255  1  0.86004798  -0.00169204  0.75798310  1
  O  O256  1  0.86491187  0.51210200  0.25939389  1
  O  O257  1  0.86916051  0.51007124  0.77113248  1
  O  O258  1  0.11747239  0.37748450  0.35996512  1
  O  O259  1  0.10103771  0.37926224  0.89816513  1
  O  O260  1  0.10900174  0.88360734  0.36361793  1
  O  O261  1  0.10736505  0.85923206  0.88079289  1
  O  O262  1  0.61750197  0.37498625  0.36485774  1
  O  O263  1  0.61242728  0.38714402  0.86261062  1
  O  O264  1  0.62241964  0.86499148  0.36415535  1
  O  O265  1  0.61259671  0.87772381  0.86656236  1
  O  O266  1  0.37757879  0.13604979  0.12543572  1
  O  O267  1  0.37214915  0.14601855  0.61079375  1
  O  O268  1  0.39045873  0.63652097  0.12427162  1
  O  O269  1  0.39550098  0.63003340  0.61454943  1
  O  O270  1  0.87068944  0.12542746  0.13678913  1
  O  O271  1  0.86968248  0.13366510  0.62720604  1
  O  O272  1  0.87791083  0.63315733  0.13595158  1
  O  O273  1  0.85350186  0.64243525  0.64745157  1
  O  O274  1  0.26080300  0.25625899  0.12395891  1
  O  O275  1  0.28021916  0.27143680  0.62461150  1
  O  O276  1  0.26029641  0.76644813  0.12887116  1
  O  O277  1  0.26891012  0.74325359  0.61960948  1
  O  O278  1  0.71855705  0.25840740  0.09844888  1
  O  O279  1  0.73418007  0.25807011  0.62405942  1
  O  O280  1  0.75649846  0.74325542  0.11421720  1
  O  O281  1  0.75097078  0.76413657  0.62567226  1
  O  O282  1  0.22652653  0.26052146  0.34541536  1
  O  O283  1  0.24954193  0.25443015  0.88929774  1
  O  O284  1  0.24122306  0.75813942  0.38800627  1
  O  O285  1  0.24540846  0.73083174  0.85809322  1
  O  O286  1  0.75015926  0.23677567  0.36813630  1
  O  O287  1  0.74377330  0.28792444  0.89301649  1
  O  O288  1  0.74035249  0.74597843  0.37614145  1
  O  O289  1  0.75219099  0.73769362  0.89598979  1
  O  O290  1  -0.00748633  0.10725615  -0.00295182  1
  O  O291  1  0.02314149  0.14814903  0.49588968  1
  O  O292  1  0.00105982  0.62541041  0.01574257  1
  O  O293  1  0.02226038  0.61815155  0.50467120  1
  O  O294  1  0.49775913  0.11500860  0.00943266  1
  O  O295  1  0.51853815  0.10505210  0.48767721  1
  O  O296  1  0.51657196  0.62955734  0.01433405  1
  O  O297  1  0.50721534  0.62986748  0.49990310  1
  O  O298  1  0.51158854  0.38068613  0.48169884  1
  O  O299  1  0.49319731  0.36416184  0.98952013  1
  O  O300  1  0.50337734  0.88305450  0.48496429  1
  O  O301  1  0.49249880  0.88611026  0.99472019  1
  O  O302  1  0.99738201  0.36399847  0.47966561  1
  O  O303  1  0.98559786  0.38789281  1.00128842  1
  O  O304  1  1.00166151  0.88172251  0.49279314  1
  O  O305  1  0.98494005  0.87912892  0.99887376  1
  O  O306  1  0.49762031  0.49029233  0.36638881  1
  O  O307  1  0.49397951  0.48744520  0.87708519  1
  O  O308  1  0.50558662  0.98623928  0.37995965  1
  O  O309  1  0.49578566  0.99138725  0.88916839  1
  O  O310  1  0.98652906  0.48761485  0.36164327  1
  O  O311  1  0.98820197  0.50382611  0.88785287  1
  O  O312  1  0.98746994  0.99455877  0.36980557  1
  O  O313  1  0.98820201  0.98237320  0.89391969  1
  O  O314  1  0.00782032  -0.00453528  0.11521998  1
  O  O315  1  0.00319825  0.01987333  0.66057080  1
  O  O316  1  0.00523629  0.51201951  0.12392403  1
  O  O317  1  -0.05732475  0.50144823  0.61895505  1
  O  O318  1  0.49622601  0.01244340  0.11729921  1
  O  O319  1  0.50947339  -0.01205519  0.60504873  1
  O  O320  1  0.49814940  0.51258629  0.13109940  1
  O  O321  1  0.51228897  0.51688776  0.62449012  1
  O  O322  1  0.25061195  0.37805455  0.23018231  1
  O  O323  1  0.22706828  0.38804921  0.77554976  1
  O  O324  1  0.23853465  0.88671327  0.24410921  1
  O  O325  1  0.26081368  0.89818074  0.76768180  1
  O  O326  1  0.74125625  0.38404039  0.24669696  1
  O  O327  1  0.73116867  0.37051292  0.73948620  1
  O  O328  1  0.74756524  0.88980126  0.25537264  1
  O  O329  1  0.73780684  0.87912080  0.75233273  1
  O  O330  1  0.24308574  0.10812565  0.24435836  1
  O  O331  1  0.22278997  0.14841637  0.73199714  1
  O  O332  1  0.26461095  0.63432324  0.24019946  1
  O  O333  1  0.27288095  0.60036258  0.74460819  1
  O  O334  1  0.75794011  0.11836073  0.25537164  1
  O  O335  1  0.73486499  0.10649834  0.74732491  1
  O  O336  1  0.75645808  0.62205627  0.25984166  1
  O  O337  1  0.74690263  0.63191994  0.77048766  1
  O  O338  1  0.36916617  0.15642345  0.37619511  1
  O  O339  1  0.37156465  0.12742311  0.87439830  1
  O  O340  1  0.38336177  0.63047294  0.35014888  1
  O  O341  1  0.36795755  0.61404011  0.92866112  1
  O  O342  1  0.87054402  0.11567506  0.36737480  1
  O  O343  1  0.88435940  0.10890530  0.86815597  1
  O  O344  1  0.87097457  0.62116887  0.37198196  1
  O  O345  1  0.86574790  0.61997734  0.87245344  1
  O  O346  1  0.13475180  0.38962857  0.11429732  1
  O  O347  1  0.11753810  0.36083961  0.64226923  1
  O  O348  1  0.12923007  0.87957184  0.13556044  1
  O  O349  1  0.17654207  0.94879587  0.67596341  1
  O  O350  1  0.61652092  0.38404235  0.14083131  1
  O  O351  1  0.62722062  0.38523961  0.62897162  1
  O  O352  1  0.62063157  0.87666524  0.14089754  1
  O  O353  1  0.63387906  0.87712522  0.62764197  1
  O  O354  1  0.10576339  0.23976125  0.25408237  1
  O  O355  1  0.13515214  0.32733900  0.70439724  1
  O  O356  1  0.12955939  0.76688265  0.25372694  1
  O  O357  1  0.12671083  0.74399939  0.72146418  1
  O  O358  1  0.61808572  0.26163296  0.24819841  1
  O  O359  1  0.61011350  0.26835040  0.74685544  1
  O  O360  1  0.61796050  0.75901521  0.25473553  1
  O  O361  1  0.61025773  0.76057228  0.74100557  1
  O  O362  1  0.39095839  0.25687008  0.23443448  1
  O  O363  1  0.38527955  0.25339749  0.74347515  1
  O  O364  1  0.38481527  0.74990326  0.23888410  1
  O  O365  1  0.39298737  0.75167611  0.73395395  1
  O  O366  1  0.88254636  0.23766951  0.25053429  1
  O  O367  1  0.86778381  0.23702343  0.73554217  1
  O  O368  1  0.86173395  0.74188665  0.24529379  1
  O  O369  1  0.87072736  0.73945063  0.75969847  1
  O  O370  1  0.37869635  0.48980151  0.49956487  1
  O  O371  1  0.37737115  0.47690766  1.01456856  1
  O  O372  1  0.39007159  1.01064265  0.49134611  1
  O  O373  1  0.38384660  0.98708671  1.00623646  1
  O  O374  1  0.86482792  0.49098701  0.48288670  1
  O  O375  1  0.88642734  0.51191450  0.99783090  1
  O  O376  1  0.87423866  1.00677943  0.48679312  1
  O  O377  1  0.87741602  0.99276585  0.99801948  1
  O  O378  1  0.11169431  -0.00716413  0.01177452  1
  O  O379  1  0.11279170  0.00391586  0.49634570  1
  O  O380  1  0.10789759  0.51918129  0.01101609  1
  O  O381  1  0.13383071  0.49560185  0.49871606  1
  O  O382  1  0.60946925  -0.00516490  0.00179005  1
  O  O383  1  0.62415865  0.00339279  0.50601886  1
  O  O384  1  0.62686727  0.50295329  0.01063274  1
  O  O385  1  0.62721612  0.50065387  0.51280776  1
  O  O386  1  0.37104505  0.36374209  0.11708594  1
  O  O387  1  0.40007992  0.37508190  0.60666912  1
  O  O388  1  0.36709624  0.87366900  0.11927600  1
  O  O389  1  0.38830744  0.85070662  0.61196944  1
  O  O390  1  0.87634861  0.37861835  0.12131206  1
  O  O391  1  0.85252447  0.35687166  0.62933978  1
  O  O392  1  0.87572993  0.86729926  0.11934092  1
  O  O393  1  0.85924026  0.86408042  0.62733059  1
  O  O394  1  0.12540738  0.13587510  0.38130373  1
  O  O395  1  0.13045531  0.02898158  0.82461543  1
  O  O396  1  0.12192419  0.62284699  0.38750922  1
  O  O397  1  0.10816282  0.64088453  0.89157607  1
  O  O398  1  0.63578518  0.12404241  0.38479308  1
  O  O399  1  0.69631791  0.13737229  0.95571735  1
  O  O400  1  0.63323870  0.64261700  0.37119210  1
  O  O401  1  0.62994095  0.61257278  0.89432919  1
