# generated using pymatgen
data_V73Zn73O256
_symmetry_space_group_name_H-M   'P 1'
_cell_length_a   16.80278516
_cell_length_b   16.81476297
_cell_length_c   16.80970196
_cell_angle_alpha   89.98938361
_cell_angle_beta   90.03807732
_cell_angle_gamma   89.92052201
_symmetry_Int_Tables_number   1
_chemical_formula_structural   V73Zn73O256
_chemical_formula_sum   'V73 Zn73 O256'
_cell_volume   4749.32091818
_cell_formula_units_Z   1
loop_
 _symmetry_equiv_pos_site_id
 _symmetry_equiv_pos_as_xyz
  1  'x, y, z'
loop_
 _atom_site_type_symbol
 _atom_site_label
 _atom_site_symmetry_multiplicity
 _atom_site_fract_x
 _atom_site_fract_y
 _atom_site_fract_z
 _atom_site_occupancy
  V  V0  1  0.37837480  0.13535120  0.74255326  1
  V  V1  1  0.62161482  0.36288872  0.75222077  1
  V  V2  1  0.37855678  0.24798659  0.12234889  1
  V  V3  1  0.87076984  0.62950928  0.24286212  1
  V  V4  1  0.24670817  0.12338177  0.88099786  1
  V  V5  1  0.73558478  0.61653718  0.88274236  1
  V  V6  1  0.00270073  0.50745287  0.52045530  1
  V  V7  1  0.63580682  -0.00464426  0.63780265  1
  V  V8  1  0.38262511  0.37247198  0.50279443  1
  V  V9  1  0.25513284  0.62499203  0.87235542  1
  V  V10  1  0.12381842  0.26352198  0.86841741  1
  V  V11  1  0.39002946  0.50415346  0.38284286  1
  V  V12  1  0.87905220  0.64046626  0.74580655  1
  V  V13  1  0.24967781  0.37167012  0.12538796  1
  V  V14  1  0.88508051  0.36815917  0.49754730  1
  V  V15  1  0.00357411  0.62136470  0.10786000  1
  V  V16  1  0.24193034  0.24375279  0.00660727  1
  V  V17  1  0.75023435  0.75353362  0.51949298  1
  V  V18  1  0.00053911  0.27118430  0.75000179  1
  V  V19  1  0.51198580  0.25990321  0.26379380  1
  V  V20  1  0.62007359  0.77074796  0.87032583  1
  V  V21  1  0.23937557  -0.00428581  0.26104965  1
  V  V22  1  0.48760273  0.50475123  -0.00203504  1
  V  V23  1  0.12069006  0.62827823  0.47230899  1
  V  V24  1  0.73709041  0.24769922  0.48863024  1
  V  V25  1  0.48041765  0.62988365  0.13475684  1
  V  V26  1  -0.00561374  0.12232559  0.63914961  1
  V  V27  1  0.49516328  0.35984751  0.88193022  1
  V  V28  1  0.48144523  0.62486078  0.63278419  1
  V  V29  1  0.51031690  0.11137391  0.12599447  1
  V  V30  1  0.74595316  0.63660092  0.37076632  1
  V  V31  1  0.12514710  -0.00739013  0.10692841  1
  V  V32  1  0.00999221  0.75526855  0.25175636  1
  V  V33  1  0.50135442  -0.00558238  -0.01904917  1
  V  V34  1  0.48918435  0.76039387  0.75091035  1
  V  V35  1  0.87761607  0.10986976  0.25551918  1
  V  V36  1  0.25889792  -0.00181669  0.75585780  1
  V  V37  1  0.23908128  0.36297005  0.62581992  1
  V  V38  1  0.00116536  0.25906025  0.25890123  1
  V  V39  1  0.11408236  0.87064274  0.75118597  1
  V  V40  1  0.23165657  0.49700278  0.74359256  1
  V  V41  1  0.74640148  0.11253795  0.37589601  1
  V  V42  1  0.89948469  0.37709961  0.00028737  1
  V  V43  1  0.88424575  0.50037021  0.37125493  1
  V  V44  1  0.37799703  0.50086781  0.85923754  1
  V  V45  1  0.38160241  0.86729665  0.50208025  1
  V  V46  1  0.64322796  0.87300927  0.23141454  1
  V  V47  1  0.26179609  0.74901114  0.00557497  1
  V  V48  1  0.25445431  0.86450561  0.62355209  1
  V  V49  1  0.62731621  0.49604684  0.11329138  1
  V  V50  1  0.01152271  0.12516420  0.11419205  1
  V  V51  1  0.12443143  0.37626285  0.26257229  1
  V  V52  1  0.74100502  0.48950165  0.24757968  1
  V  V53  1  0.86782624  0.76172208  0.11340853  1
  V  V54  1  0.37579417  0.12309006  0.25585050  1
  V  V55  1  0.74760721  0.37423035  0.62262921  1
  V  V56  1  0.38426625  0.00408883  0.38036056  1
  V  V57  1  0.86600454  0.25293780  0.11996356  1
  V  V58  1  0.50897159  0.01865183  0.50982199  1
  V  V59  1  0.23642522  0.24047662  0.48097049  1
  V  V60  1  0.25557176  0.50901680  0.26100439  1
  V  V61  1  0.26828102  0.87435839  0.12905797  1
  V  V62  1  0.74094179  0.76400042  -0.00023992  1
  V  V63  1  0.88880370  0.49839547  0.87898382  1
  V  V64  1  0.87527761  0.86460877  0.50380120  1
  V  V65  1  0.63565369  0.13530077  -0.01408801  1
  V  V66  1  0.62072829  0.62473462  0.50695070  1
  V  V67  1  0.87818033  0.01736626  0.88963704  1
  V  V68  1  -0.00371313  0.00337814  0.49270223  1
  V  V69  1  0.76798261  0.00306138  0.75158856  1
  V  V70  1  -0.00612242  0.88182149  0.89596741  1
  V  V71  1  0.12756301  0.00561481  0.62241893  1
  V  V72  1  0.12009661  0.74553650  0.88349442  1
  Zn  Zn73  1  0.74663775  0.50206049  0.74799429  1
  Zn  Zn74  1  0.38282000  0.88620359  -0.03172501  1
  Zn  Zn75  1  0.61585024  0.49524921  0.62058577  1
  Zn  Zn76  1  0.11777765  0.49961360  0.10999617  1
  Zn  Zn77  1  -0.00238831  0.87528559  0.36713858  1
  Zn  Zn78  1  0.49562847  0.24505549  0.72609998  1
  Zn  Zn79  1  0.59323927  0.75338371  0.35322905  1
  Zn  Zn80  1  0.24024392  0.74059695  0.49025847  1
  Zn  Zn81  1  0.86581526  0.24235422  0.63688833  1
  Zn  Zn82  1  0.18019219  0.17615892  0.21568439  1
  Zn  Zn83  1  0.18586118  0.18607966  0.69059748  1
  Zn  Zn84  1  0.18905953  0.68647738  0.18407574  1
  Zn  Zn85  1  0.18999101  0.68843024  0.69454325  1
  Zn  Zn86  1  0.68948089  0.18089946  0.19220027  1
  Zn  Zn87  1  0.68262113  0.17519445  0.68014451  1
  Zn  Zn88  1  0.67465789  0.68204690  0.17742649  1
  Zn  Zn89  1  0.68769896  0.68838657  0.69733812  1
  Zn  Zn90  1  0.32098123  0.31600830  0.31644359  1
  Zn  Zn91  1  0.31112879  0.31448137  0.81195902  1
  Zn  Zn92  1  0.31735856  0.81742558  0.31900554  1
  Zn  Zn93  1  0.31248319  0.81231169  0.81143725  1
  Zn  Zn94  1  0.81527758  0.31150382  0.31247132  1
  Zn  Zn95  1  0.81629075  0.31708360  0.81683953  1
  Zn  Zn96  1  0.81470176  0.82486108  0.31348862  1
  Zn  Zn97  1  0.80737220  0.82076302  0.81218166  1
  Zn  Zn98  1  0.18627534  0.43557812  0.44499013  1
  Zn  Zn99  1  0.19214511  0.43865971  0.94132029  1
  Zn  Zn100  1  0.18781877  0.93956598  0.43906555  1
  Zn  Zn101  1  0.20574699  0.92573651  0.93064848  1
  Zn  Zn102  1  0.68733119  0.44002639  0.43085870  1
  Zn  Zn103  1  0.68100638  0.43226201  0.93456959  1
  Zn  Zn104  1  0.68395806  0.93018105  0.42977090  1
  Zn  Zn105  1  0.68986634  0.95182426  0.93968974  1
  Zn  Zn106  1  0.31727976  0.05941212  0.06578698  1
  Zn  Zn107  1  0.31269000  0.06689214  0.56092600  1
  Zn  Zn108  1  0.29754145  0.55025977  0.05643583  1
  Zn  Zn109  1  0.30539443  0.55916061  0.55867006  1
  Zn  Zn110  1  0.80913718  0.06020592  0.06859259  1
  Zn  Zn111  1  0.80997912  0.05966942  0.56092702  1
  Zn  Zn112  1  0.81071191  0.56383758  0.05931292  1
  Zn  Zn113  1  0.81242175  0.56408253  0.56158649  1
  Zn  Zn114  1  0.43597074  0.43953136  0.19172256  1
  Zn  Zn115  1  0.43548048  0.43505804  0.67927505  1
  Zn  Zn116  1  0.44953975  0.93007199  0.19696119  1
  Zn  Zn117  1  0.44135381  0.94247881  0.68648731  1
  Zn  Zn118  1  0.93388086  0.43949578  0.18340846  1
  Zn  Zn119  1  0.93065812  0.44407889  0.68762384  1
  Zn  Zn120  1  0.94110472  0.93654569  0.17640605  1
  Zn  Zn121  1  0.93237354  0.93335519  0.68754695  1
  Zn  Zn122  1  0.06289821  0.07033924  0.31404576  1
  Zn  Zn123  1  0.06851047  0.06207146  0.82191730  1
  Zn  Zn124  1  0.06336938  0.56260211  0.29506534  1
  Zn  Zn125  1  0.05998371  0.56671430  0.81429846  1
  Zn  Zn126  1  0.56484715  0.05968729  0.31415436  1
  Zn  Zn127  1  0.56849599  0.06584421  0.81128096  1
  Zn  Zn128  1  0.56042628  0.56813313  0.31104227  1
  Zn  Zn129  1  0.56132037  0.55729107  0.80382425  1
  Zn  Zn130  1  0.43188385  0.19518336  0.44563871  1
  Zn  Zn131  1  0.43320765  0.17373755  0.93814998  1
  Zn  Zn132  1  0.42670930  0.67910673  0.44653611  1
  Zn  Zn133  1  0.43988980  0.68836892  0.93802065  1
  Zn  Zn134  1  0.94349090  0.18198283  0.43757942  1
  Zn  Zn135  1  0.94287200  0.19301275  0.93581092  1
  Zn  Zn136  1  0.93537457  0.68761375  0.43404421  1
  Zn  Zn137  1  0.92992095  0.68957333  0.92909348  1
  Zn  Zn138  1  0.06685856  0.30679823  0.06784811  1
  Zn  Zn139  1  0.06664610  0.31144282  0.56264187  1
  Zn  Zn140  1  0.06686884  0.81010135  0.06892263  1
  Zn  Zn141  1  0.06228177  0.81158787  0.55898250  1
  Zn  Zn142  1  0.56645719  0.31288366  0.07054031  1
  Zn  Zn143  1  0.56242965  0.30415850  0.55885997  1
  Zn  Zn144  1  0.55705667  0.81111765  0.06419730  1
  Zn  Zn145  1  0.56727682  0.81053371  0.57197054  1
  O  O146  1  0.11829826  0.11507527  0.13112204  1
  O  O147  1  0.11753626  0.11057080  0.63003628  1
  O  O148  1  0.10662816  0.62947789  0.12305068  1
  O  O149  1  0.08652582  0.66171726  0.63746813  1
  O  O150  1  0.61197929  0.12217147  0.12650109  1
  O  O151  1  0.63447321  0.09779818  0.61049983  1
  O  O152  1  0.60338647  0.60305800  0.12935983  1
  O  O153  1  0.62966324  0.62432790  0.61432423  1
  O  O154  1  0.37173398  0.38659806  0.39088819  1
  O  O155  1  0.38900313  0.38350860  0.86662405  1
  O  O156  1  0.36541724  0.89337211  0.39495025  1
  O  O157  1  0.31360815  0.89912317  0.87955018  1
  O  O158  1  0.87012328  0.38500584  0.39102933  1
  O  O159  1  0.88279134  0.38426872  0.88836081  1
  O  O160  1  0.88152284  0.87111592  0.39304420  1
  O  O161  1  0.89287191  0.87551240  0.87680305  1
  O  O162  1  0.25464053  -0.00031388  0.36559397  1
  O  O163  1  0.22682073  0.02072961  0.86519664  1
  O  O164  1  0.24300449  0.49600159  0.36185476  1
  O  O165  1  0.25863920  0.50369428  0.86401177  1
  O  O166  1  0.75688203  0.01370341  0.39174018  1
  O  O167  1  0.77076281  -0.00020356  0.87005182  1
  O  O168  1  0.75798147  0.51217001  0.36496356  1
  O  O169  1  0.75063922  0.50797157  0.87929684  1
  O  O170  1  0.27184172  0.47391171  0.14630133  1
  O  O171  1  0.24378712  0.50497276  0.64134962  1
  O  O172  1  0.24409629  0.98996820  0.13128805  1
  O  O173  1  0.23846848  0.99537478  0.63196547  1
  O  O174  1  0.73737169  0.50644827  0.13348883  1
  O  O175  1  0.74923896  0.48362313  0.62237507  1
  O  O176  1  0.75537923  1.01054047  0.15142505  1
  O  O177  1  0.75058071  0.99644046  0.63577377  1
  O  O178  1  0.00958707  0.36995763  0.24092973  1
  O  O179  1  0.00603321  0.36932869  0.73878960  1
  O  O180  1  -0.00635522  0.86109116  0.24784829  1
  O  O181  1  0.01278574  0.87421619  0.75151811  1
  O  O182  1  0.49220706  0.35841658  0.24918542  1
  O  O183  1  0.50761408  0.36837498  0.75040341  1
  O  O184  1  0.52602458  0.88398462  0.26239492  1
  O  O185  1  0.49548588  0.86099372  0.74539123  1
  O  O186  1  0.49370076  0.12815461  0.24195187  1
  O  O187  1  0.48134760  0.12683354  0.76288044  1
  O  O188  1  0.48884952  0.61761780  0.23628229  1
  O  O189  1  0.50013696  0.63200479  0.73895113  1
  O  O190  1  0.99004586  0.13822795  0.24369340  1
  O  O191  1  1.00379615  0.12285761  0.74040872  1
  O  O192  1  0.98798045  0.63570789  0.23809190  1
  O  O193  1  0.97899810  0.62367985  0.76170507  1
  O  O194  1  0.36482022  0.23820465  0.01723224  1
  O  O195  1  0.35873910  0.26611799  0.49774298  1
  O  O196  1  0.36407534  0.76426958  -0.01343102  1
  O  O197  1  0.35814643  0.76466496  0.48969066  1
  O  O198  1  0.88641991  0.26272911  0.00977507  1
  O  O199  1  0.88642620  0.26381267  0.50193408  1
  O  O200  1  0.86271572  0.74852325  0.00625567  1
  O  O201  1  0.86520675  0.75227754  0.50139732  1
  O  O202  1  0.13461338  0.25240907  0.49493292  1
  O  O203  1  0.13404646  0.24962166  0.99025786  1
  O  O204  1  0.11534855  0.73192733  0.49504597  1
  O  O205  1  0.14221889  0.76323010  0.98858593  1
  O  O206  1  0.63830863  0.25212594  0.48764994  1
  O  O207  1  0.61846837  0.23400171  1.01096066  1
  O  O208  1  0.64005456  0.74456333  0.50087865  1
  O  O209  1  0.63333205  0.75207816  0.98806579  1
  O  O210  1  0.48703479  0.24165159  0.13061455  1
  O  O211  1  0.50872047  0.22734845  0.61635621  1
  O  O212  1  0.49419453  0.72818337  0.11035631  1
  O  O213  1  0.50590032  0.73988660  0.64110404  1
  O  O214  1  0.99893467  0.23891146  0.13311334  1
  O  O215  1  1.00801143  0.23771425  0.63777636  1
  O  O216  1  0.98635108  0.74349213  0.12700231  1
  O  O217  1  1.03482431  0.72030791  0.63842183  1
  O  O218  1  -0.00628082  0.25258802  0.35828265  1
  O  O219  1  0.01270443  0.25258408  0.86287307  1
  O  O220  1  -0.00406370  0.74797650  0.35549421  1
  O  O221  1  0.01412130  0.76152382  0.88530394  1
  O  O222  1  0.49618445  0.24022653  0.36204356  1
  O  O223  1  0.48884832  0.25979803  0.87902499  1
  O  O224  1  0.46810437  0.75160174  0.36023130  1
  O  O225  1  0.51213606  0.74690530  0.86805215  1
  O  O226  1  0.25275752  0.14064971  0.50115130  1
  O  O227  1  0.25329653  0.12815656  0.99005777  1
  O  O228  1  0.22301866  0.62222751  0.50606932  1
  O  O229  1  0.25700086  0.64591078  0.99416925  1
  O  O230  1  0.76416922  0.13978720  0.48879404  1
  O  O231  1  0.73496268  0.12004827  1.00432746  1
  O  O232  1  0.74557188  0.63670244  0.49356599  1
  O  O233  1  0.75153547  0.63318549  0.98626605  1
  O  O234  1  0.25374463  0.35844013  0.01807141  1
  O  O235  1  0.24924893  0.36592813  0.51082580  1
  O  O236  1  0.25465523  0.86967176  0.02087308  1
  O  O237  1  0.25267384  0.88051348  0.51707857  1
  O  O238  1  0.75323119  0.34337561  -0.03060413  1
  O  O239  1  0.76097400  0.36482021  0.50355246  1
  O  O240  1  0.74871854  0.86295954  -0.00660529  1
  O  O241  1  0.76188819  0.86198623  0.49774496  1
  O  O242  1  0.13567620  0.48929648  0.23723860  1
  O  O243  1  0.13259564  0.49805096  0.75924836  1
  O  O244  1  0.13877071  0.99731758  0.24886488  1
  O  O245  1  0.13119884  0.98836641  0.74271906  1
  O  O246  1  0.63821547  0.50144504  0.25231687  1
  O  O247  1  0.62799350  0.48218698  0.74305601  1
  O  O248  1  0.61350121  0.97692036  0.25466820  1
  O  O249  1  0.62704132  0.99703191  0.74136759  1
  O  O250  1  0.37659761  0.00040980  0.26758686  1
  O  O251  1  0.36267604  0.00479251  0.74841747  1
  O  O252  1  0.36427015  0.48922031  0.26980729  1
  O  O253  1  0.37205646  0.50107601  0.75666203  1
  O  O254  1  0.88655472  0.01131188  0.24700516  1
  O  O255  1  0.87413494  0.00171206  0.75736858  1
  O  O256  1  0.86474467  0.50894317  0.25022117  1
  O  O257  1  0.86689172  0.49317621  0.77004774  1
  O  O258  1  0.12070168  0.38229811  0.36107823  1
  O  O259  1  0.13475820  0.36353559  0.87941668  1
  O  O260  1  0.15811055  0.84608062  0.37449698  1
  O  O261  1  0.11677337  0.87363898  0.86673372  1
  O  O262  1  0.62235406  0.36588716  0.38166214  1
  O  O263  1  0.61045786  0.37395322  0.86002105  1
  O  O264  1  0.63862056  0.85733503  0.35942224  1
  O  O265  1  0.62642597  0.86918425  0.87612692  1
  O  O266  1  0.38356472  0.13012574  0.13493308  1
  O  O267  1  0.37019103  0.11998055  0.64338631  1
  O  O268  1  0.38111902  0.61092307  0.11417201  1
  O  O269  1  0.38276745  0.62881832  0.61465064  1
  O  O270  1  0.88726929  0.13602433  0.13253184  1
  O  O271  1  0.89108151  0.12634487  0.62139386  1
  O  O272  1  0.88039677  0.63005146  0.12752441  1
  O  O273  1  0.86461591  0.61794367  0.64659794  1
  O  O274  1  0.25479762  0.24858842  0.12672355  1
  O  O275  1  0.24482969  0.26024907  0.62547207  1
  O  O276  1  0.25033433  0.76083850  0.11767738  1
  O  O277  1  0.24267378  0.76202861  0.62213126  1
  O  O278  1  0.76790729  0.24284106  0.12742517  1
  O  O279  1  0.75094408  0.25399401  0.60956297  1
  O  O280  1  0.75627640  0.74084311  0.10897293  1
  O  O281  1  0.74950675  0.74954945  0.61809285  1
  O  O282  1  0.25015569  0.25212625  0.38101522  1
  O  O283  1  0.24288661  0.24631020  0.88285790  1
  O  O284  1  0.21731049  0.78662184  0.37703742  1
  O  O285  1  0.24233378  0.74287671  0.88236788  1
  O  O286  1  0.76092386  0.24438178  0.38581390  1
  O  O287  1  0.75127368  0.28608643  0.91340206  1
  O  O288  1  0.75800114  0.73799470  0.37558486  1
  O  O289  1  0.73883453  0.74369387  0.88223201  1
  O  O290  1  0.00474595  0.13240976  0.01522402  1
  O  O291  1  0.00074521  0.10895396  0.50821746  1
  O  O292  1  -0.00754406  0.63062906  0.00858634  1
  O  O293  1  0.00498745  0.61416463  0.49356636  1
  O  O294  1  0.50427312  0.11698782  0.01146872  1
  O  O295  1  0.49666721  0.11728515  0.49998744  1
  O  O296  1  0.49861590  0.60699279  -0.00112396  1
  O  O297  1  0.51432453  0.64219464  0.51426879  1
  O  O298  1  0.48301132  0.37347257  0.51247783  1
  O  O299  1  0.50633982  0.38114529  0.98533239  1
  O  O300  1  0.48270702  0.87061683  0.50886888  1
  O  O301  1  0.49826153  0.88873557  0.99942606  1
  O  O302  1  0.99112453  0.38966145  0.50918728  1
  O  O303  1  0.99916120  0.38142913  1.00595767  1
  O  O304  1  0.99719643  0.87994258  0.49359108  1
  O  O305  1  1.00391738  0.87785051  0.99499277  1
  O  O306  1  0.49043610  0.50492619  0.37812578  1
  O  O307  1  0.49499993  0.49511979  0.88068553  1
  O  O308  1  0.48763249  1.00265133  0.38768311  1
  O  O309  1  0.49853065  1.00099904  0.88124413  1
  O  O310  1  0.98562856  0.50366335  0.36305264  1
  O  O311  1  0.98760359  0.50679337  0.88387868  1
  O  O312  1  1.01841896  0.99556592  0.38860296  1
  O  O313  1  0.99405705  0.98995999  0.87399763  1
  O  O314  1  0.01443768  0.01058966  0.12563559  1
  O  O315  1  0.00863413  0.00683198  0.62231614  1
  O  O316  1  -0.00020203  0.51510246  0.12534359  1
  O  O317  1  -0.00083276  0.50880244  0.61940265  1
  O  O318  1  0.49611470  0.01135217  0.12633885  1
  O  O319  1  0.50956698  0.00046921  0.61528326  1
  O  O320  1  0.49765283  0.49781533  0.10964795  1
  O  O321  1  0.49965265  0.51929735  0.62733362  1
  O  O322  1  0.23730679  0.36911947  0.24591689  1
  O  O323  1  0.25387698  0.38724113  0.73959565  1
  O  O324  1  0.25823513  0.88524542  0.24098919  1
  O  O325  1  0.24236443  0.88043684  0.73564827  1
  O  O326  1  0.75655598  0.39086838  0.25310926  1
  O  O327  1  0.73962796  0.36763853  0.74190008  1
  O  O328  1  0.74616569  0.87703065  0.24338353  1
  O  O329  1  0.74925257  0.89806248  0.75569851  1
  O  O330  1  0.26838366  0.10189748  0.23748035  1
  O  O331  1  0.25553708  0.11894445  0.75714134  1
  O  O332  1  0.24832417  0.60741323  0.24099870  1
  O  O333  1  0.24440292  0.61395285  0.76139330  1
  O  O334  1  0.76859188  0.13103240  0.26219276  1
  O  O335  1  0.74524945  0.10619987  0.74911937  1
  O  O336  1  0.75454302  0.62027793  0.25206712  1
  O  O337  1  0.75676581  0.62255248  0.76655650  1
  O  O338  1  0.37448025  0.11325408  0.37040484  1
  O  O339  1  0.35389220  0.12927962  0.86543121  1
  O  O340  1  0.36401116  0.60411609  0.38969984  1
  O  O341  1  0.36369014  0.61625964  0.87971417  1
  O  O342  1  0.87743372  0.12571362  0.36036284  1
  O  O343  1  0.88722909  0.11672748  0.87422911  1
  O  O344  1  0.86712313  0.61966114  0.36279689  1
  O  O345  1  0.86394849  0.61206221  0.87175235  1
  O  O346  1  0.13955699  0.37596442  0.12884351  1
  O  O347  1  0.13899548  0.38062344  0.62253238  1
  O  O348  1  0.13029823  0.88910291  0.12723818  1
  O  O349  1  0.12914483  0.87937965  0.63498754  1
  O  O350  1  0.61550768  0.39587790  0.13092243  1
  O  O351  1  0.63130367  0.37390486  0.62824164  1
  O  O352  1  0.62753595  0.87068697  0.12990031  1
  O  O353  1  0.62930142  0.89499265  0.61019045  1
  O  O354  1  0.11169316  0.26765124  0.24144836  1
  O  O355  1  0.11805608  0.25398179  0.75933102  1
  O  O356  1  0.10886298  0.74857089  0.23877975  1
  O  O357  1  0.13467629  0.76475040  0.76804943  1
  O  O358  1  0.61074174  0.24697928  0.24248932  1
  O  O359  1  0.62366376  0.25923939  0.74168114  1
  O  O360  1  0.62562342  0.76047514  0.24143710  1
  O  O361  1  0.61963780  0.75121876  0.76538002  1
  O  O362  1  0.37782856  0.23756346  0.24483638  1
  O  O363  1  0.37265327  0.24044259  0.74887798  1
  O  O364  1  0.41834875  0.75845978  0.29572376  1
  O  O365  1  0.38813238  0.74634165  0.76156502  1
  O  O366  1  0.88748632  0.25906968  0.23495532  1
  O  O367  1  0.89325461  0.25803312  0.75223888  1
  O  O368  1  0.87321373  0.74247881  0.23442221  1
  O  O369  1  0.86927875  0.74032367  0.75942242  1
  O  O370  1  0.36500568  0.48779913  0.49152315  1
  O  O371  1  0.38398656  0.49419357  0.98623129  1
  O  O372  1  0.38357474  0.99589956  0.49807098  1
  O  O373  1  0.39335706  1.00400818  1.00187479  1
  O  O374  1  0.88715539  0.49849447  0.49326329  1
  O  O375  1  0.86642475  0.48447559  0.99364699  1
  O  O376  1  0.89126509  0.98938201  0.50398528  1
  O  O377  1  0.87559126  1.00728277  0.99015803  1
  O  O378  1  0.13737815  -0.00401438  0.00872253  1
  O  O379  1  0.11567303  -0.01042294  0.51646609  1
  O  O380  1  0.18625386  0.51327087  0.02179187  1
  O  O381  1  0.10774844  0.50944259  0.49467287  1
  O  O382  1  0.61057699  0.01475538  -0.00421210  1
  O  O383  1  0.60668071  -0.00417212  0.48851087  1
  O  O384  1  0.61747689  0.49520162  0.00751436  1
  O  O385  1  0.63307221  0.52128123  0.49759882  1
  O  O386  1  0.36604155  0.35344187  0.13635454  1
  O  O387  1  0.35633563  0.38589809  0.61221164  1
  O  O388  1  0.36871598  0.87857670  0.12989707  1
  O  O389  1  0.36186964  0.88031059  0.61729707  1
  O  O390  1  0.87553898  0.36683857  0.11112880  1
  O  O391  1  0.86714702  0.37336111  0.61404004  1
  O  O392  1  0.87441702  0.86052213  0.12115230  1
  O  O393  1  0.88915815  0.86907869  0.60578919  1
  O  O394  1  0.14083491  0.14757857  0.32298502  1
  O  O395  1  0.13695393  0.14387092  0.86922729  1
  O  O396  1  0.12289508  0.62460059  0.37272048  1
  O  O397  1  0.13088788  0.64010772  0.87578524  1
  O  O398  1  0.64690374  0.12329880  0.36362743  1
  O  O399  1  0.62357291  0.13364283  0.88470880  1
  O  O400  1  0.62614934  0.63717186  0.38418705  1
  O  O401  1  0.63390036  0.62312900  0.87165759  1
