# generated using pymatgen
data_V73Zn73O256
_symmetry_space_group_name_H-M   'P 1'
_cell_length_a   16.87497457
_cell_length_b   16.87729996
_cell_length_c   16.90829119
_cell_angle_alpha   89.94939325
_cell_angle_beta   89.91697790
_cell_angle_gamma   90.06489180
_symmetry_Int_Tables_number   1
_chemical_formula_structural   V73Zn73O256
_chemical_formula_sum   'V73 Zn73 O256'
_cell_volume   4815.53906449
_cell_formula_units_Z   1
loop_
 _symmetry_equiv_pos_site_id
 _symmetry_equiv_pos_as_xyz
  1  'x, y, z'
loop_
 _atom_site_type_symbol
 _atom_site_label
 _atom_site_symmetry_multiplicity
 _atom_site_fract_x
 _atom_site_fract_y
 _atom_site_fract_z
 _atom_site_occupancy
  V  V0  1  0.25299879  0.61994674  0.87987518  1
  V  V1  1  -0.00408188  0.14044952  0.62937094  1
  V  V2  1  0.12876198  0.74033718  0.87462649  1
  V  V3  1  -0.00440223  0.75212274  0.24717918  1
  V  V4  1  0.75904429  0.37634296  0.11596146  1
  V  V5  1  0.38053342  0.62464729  0.24509164  1
  V  V6  1  0.50046204  0.00607971  0.48704059  1
  V  V7  1  0.38909055  0.38317225  -0.01206935  1
  V  V8  1  0.75262975  0.00195527  0.76665224  1
  V  V9  1  0.50160244  0.00671526  -0.00500862  1
  V  V10  1  0.86662500  0.12925370  0.24424000  1
  V  V11  1  0.12344703  0.11085236  0.00528944  1
  V  V12  1  0.37134210  0.12494546  0.25001910  1
  V  V13  1  0.87571302  0.62722758  0.25162469  1
  V  V14  1  0.26144938  0.25202033  0.49597411  1
  V  V15  1  0.00399638  0.61883053  0.63337940  1
  V  V16  1  0.86471688  0.50247434  0.90027772  1
  V  V17  1  0.25609741  0.11336900  0.86538839  1
  V  V18  1  0.74328009  0.50447589  0.25264216  1
  V  V19  1  0.62654041  0.61461904  0.49997961  1
  V  V20  1  0.50586619  0.37678528  0.39137143  1
  V  V21  1  0.63628762  -0.01020032  0.12666089  1
  V  V22  1  0.25061744  0.50125338  0.74919441  1
  V  V23  1  0.62738664  0.86943685  0.73762947  1
  V  V24  1  -0.00384494  0.38048784  0.39477551  1
  V  V25  1  0.74059756  0.63277401  0.87653644  1
  V  V26  1  0.25916336  0.37447701  0.62036261  1
  V  V27  1  0.12551735  0.49635811  0.61888752  1
  V  V28  1  0.37702274  0.63654646  0.74772521  1
  V  V29  1  0.24953560  0.62752165  0.37681700  1
  V  V30  1  0.24203995  0.88907207  0.62601132  1
  V  V31  1  0.24127013  0.38363588  0.12660288  1
  V  V32  1  0.12730243  0.88973679  0.74890659  1
  V  V33  1  -0.00073161  0.00327711  0.49831209  1
  V  V34  1  0.50160903  0.62164714  0.61679006  1
  V  V35  1  0.52285337  0.13756678  0.11720515  1
  V  V36  1  0.24653152  0.75361692  0.00713730  1
  V  V37  1  0.74723979  0.64012252  0.38005243  1
  V  V38  1  0.37500954  0.25307180  0.12715233  1
  V  V39  1  0.50145069  0.75462794  0.27375103  1
  V  V40  1  0.00645571  0.10912974  0.12661477  1
  V  V41  1  0.87426783  0.62740816  0.74675539  1
  V  V42  1  0.75636214  0.49506734  0.73185266  1
  V  V43  1  0.63404336  0.00662480  0.61596362  1
  V  V44  1  0.12064750  0.25621036  0.87130008  1
  V  V45  1  0.12109212  0.75540797  0.37610325  1
  V  V46  1  0.01641254  0.49492233  0.00038616  1
  V  V47  1  0.62238348  0.74727810  0.87757243  1
  V  V48  1  0.50504790  0.25402673  0.25729353  1
  V  V49  1  0.49156188  0.11876019  0.63939861  1
  V  V50  1  0.00975678  0.62569485  0.11790525  1
  V  V51  1  0.83792816  0.86331123  0.03499338  1
  V  V52  1  0.00165931  0.74684021  0.74901521  1
  V  V53  1  0.75436461  0.34424481  0.62481064  1
  V  V54  1  0.13391268  0.12591664  0.49986201  1
  V  V55  1  0.36538903  0.00127643  0.36968047  1
  V  V56  1  0.25177945  -0.00331378  0.22901409  1
  V  V57  1  0.25034926  0.24953345  -0.00029723  1
  V  V58  1  0.00191759  0.26552559  0.23395214  1
  V  V59  1  0.13233462  0.25640946  0.36592883  1
  V  V60  1  0.37862034  0.87098893  0.49319663  1
  V  V61  1  0.62316114  0.37923928  0.24701649  1
  V  V62  1  0.62793380  0.86900093  0.26437267  1
  V  V63  1  0.24090619  0.49955710  0.24640653  1
  V  V64  1  0.39426343  0.75279983  0.11722386  1
  V  V65  1  0.75388558  0.76683378  0.53232440  1
  V  V66  1  -0.00065881  0.87699365  0.88332496  1
  V  V67  1  0.49616734  0.87487669  0.87206869  1
  V  V68  1  0.13127102  0.87906086  0.23529436  1
  V  V69  1  0.37775682  0.49493393  0.38748905  1
  V  V70  1  0.86444272  0.00580074  0.36986319  1
  V  V71  1  0.11419673  0.62477213  0.49936688  1
  V  V72  1  0.37845371  0.24730279  0.64365455  1
  Zn  Zn73  1  0.12062188  0.36688019  0.74775354  1
  Zn  Zn74  1  0.60595636  0.37797826  0.75759956  1
  Zn  Zn75  1  0.86412216  0.14227740  0.75617635  1
  Zn  Zn76  1  0.37181280  0.88126522  0.00256859  1
  Zn  Zn77  1  0.24250657  0.75516433  0.50584415  1
  Zn  Zn78  1  -0.00076445  0.88208322  0.37257528  1
  Zn  Zn79  1  0.87103978  0.49441345  0.38519647  1
  Zn  Zn80  1  0.37588492  0.75831732  0.62860374  1
  Zn  Zn81  1  0.87862988  -0.00131470  0.89413104  1
  Zn  Zn82  1  0.18794982  0.18827385  0.18615911  1
  Zn  Zn83  1  0.18662914  0.18094108  0.68761144  1
  Zn  Zn84  1  0.18895031  0.68787933  0.18817385  1
  Zn  Zn85  1  0.19007862  0.69341171  0.68532650  1
  Zn  Zn86  1  0.68449182  0.19312734  0.16514764  1
  Zn  Zn87  1  0.67659387  0.17988148  0.69787030  1
  Zn  Zn88  1  0.70705955  0.72728221  0.19748529  1
  Zn  Zn89  1  0.68515869  0.68338236  0.68577410  1
  Zn  Zn90  1  0.31529780  0.31757085  0.31195764  1
  Zn  Zn91  1  0.30586720  0.31185193  0.81381247  1
  Zn  Zn92  1  0.31276834  0.81345759  0.30766375  1
  Zn  Zn93  1  0.31088582  0.82207227  0.81149973  1
  Zn  Zn94  1  0.81913127  0.31416471  0.30555115  1
  Zn  Zn95  1  0.80657844  0.32086248  0.82874718  1
  Zn  Zn96  1  0.81550259  0.81827854  0.31845552  1
  Zn  Zn97  1  0.81364079  0.81466878  0.80808548  1
  Zn  Zn98  1  0.18907195  0.43673351  0.43651553  1
  Zn  Zn99  1  0.19477406  0.43760031  0.94050954  1
  Zn  Zn100  1  0.18866478  0.94021678  0.43252957  1
  Zn  Zn101  1  0.18563583  0.93288413  0.93690337  1
  Zn  Zn102  1  0.69377276  0.43500053  0.44668250  1
  Zn  Zn103  1  0.68249068  0.45419195  0.93430992  1
  Zn  Zn104  1  0.69174890  0.93413269  0.44147445  1
  Zn  Zn105  1  0.68253510  0.93315879  0.94059922  1
  Zn  Zn106  1  0.32112803  0.06737936  0.05769432  1
  Zn  Zn107  1  0.31401914  0.06293018  0.56131143  1
  Zn  Zn108  1  0.32209573  0.56261117  0.06065224  1
  Zn  Zn109  1  0.30999951  0.56714311  0.56482529  1
  Zn  Zn110  1  0.82838887  0.05008022  0.06859470  1
  Zn  Zn111  1  0.82261376  0.08498466  0.55394296  1
  Zn  Zn112  1  0.79062045  0.59403350  0.07607647  1
  Zn  Zn113  1  0.91175946  0.44388196  0.56964740  1
  Zn  Zn114  1  0.42824415  0.43259669  0.19521041  1
  Zn  Zn115  1  0.43837403  0.44334551  0.69465183  1
  Zn  Zn116  1  0.44719464  0.93700178  0.18247678  1
  Zn  Zn117  1  0.43911803  0.93428847  0.68141343  1
  Zn  Zn118  1  0.93156253  0.44920501  0.18216483  1
  Zn  Zn119  1  0.93766216  0.31548264  0.71034910  1
  Zn  Zn120  1  0.93220701  0.93570304  0.19093456  1
  Zn  Zn121  1  0.93081898  0.93725752  0.67302686  1
  Zn  Zn122  1  0.06784678  0.06440492  0.30855103  1
  Zn  Zn123  1  0.04549396  0.07212225  0.82362763  1
  Zn  Zn124  1  0.05981894  0.56330227  0.31334070  1
  Zn  Zn125  1  0.00597396  0.49980834  0.78201413  1
  Zn  Zn126  1  0.56209073  0.05729734  0.29368373  1
  Zn  Zn127  1  0.41739383  0.04726116  0.81605364  1
  Zn  Zn128  1  0.56144536  0.56439254  0.31883245  1
  Zn  Zn129  1  0.55891669  0.54905327  0.78892864  1
  Zn  Zn130  1  0.44180159  0.18460045  0.43499198  1
  Zn  Zn131  1  0.43928871  0.19335239  0.93543679  1
  Zn  Zn132  1  0.43656791  0.68329868  0.44062830  1
  Zn  Zn133  1  0.43709908  0.69051832  0.92748982  1
  Zn  Zn134  1  0.96609129  0.17159209  0.41077598  1
  Zn  Zn135  1  0.93898711  0.18265265  0.92036959  1
  Zn  Zn136  1  0.87495141  0.62846574  0.51008770  1
  Zn  Zn137  1  0.92967390  0.69494381  0.94013968  1
  Zn  Zn138  1  0.06114191  0.31265982  0.05374115  1
  Zn  Zn139  1  0.06988837  0.31000218  0.55970857  1
  Zn  Zn140  1  0.06212701  0.80578270  0.06413138  1
  Zn  Zn141  1  0.03772596  0.82122032  0.57187913  1
  Zn  Zn142  1  0.56854221  0.31480453  0.06405749  1
  Zn  Zn143  1  0.55590236  0.32559802  0.58487134  1
  Zn  Zn144  1  0.57517447  0.81376697  0.05722574  1
  Zn  Zn145  1  0.56371317  0.80394594  0.55914584  1
  O  O146  1  0.12037776  0.12705537  0.11540709  1
  O  O147  1  0.12055237  0.13502465  0.60465266  1
  O  O148  1  0.10972817  0.62712856  0.13114967  1
  O  O149  1  0.12893297  0.61512989  0.61661334  1
  O  O150  1  0.61852036  0.09625711  0.16492722  1
  O  O151  1  0.60543535  0.11458077  0.62734797  1
  O  O152  1  0.54920127  0.55200382  0.13475546  1
  O  O153  1  0.60880045  0.62416688  0.62131228  1
  O  O154  1  0.38192877  0.38910161  0.37447762  1
  O  O155  1  0.37063959  0.36565877  0.88971517  1
  O  O156  1  0.36726947  0.88448780  0.38488128  1
  O  O157  1  0.39299452  0.86622763  0.87916379  1
  O  O158  1  0.89369237  0.37256088  0.37346746  1
  O  O159  1  0.85676478  0.40312542  0.89508993  1
  O  O160  1  0.88157929  0.89940180  0.36167018  1
  O  O161  1  0.89493764  0.87798518  0.86375698  1
  O  O162  1  0.26159018  0.00246209  0.36154868  1
  O  O163  1  0.24863780  0.01474979  0.88585574  1
  O  O164  1  0.25906961  0.50557080  0.36797496  1
  O  O165  1  0.24564016  0.51355223  0.86720852  1
  O  O166  1  0.76525275  0.00472107  0.38492383  1
  O  O167  1  0.75425278  -0.00509873  0.87003011  1
  O  O168  1  0.75027003  0.50025254  0.36778159  1
  O  O169  1  0.75286831  0.51646236  0.86435298  1
  O  O170  1  0.25649458  0.49082867  0.12904682  1
  O  O171  1  0.24727682  0.49107742  0.62659600  1
  O  O172  1  0.26033448  0.99736116  0.12991015  1
  O  O173  1  0.24947998  0.98918137  0.62143350  1
  O  O174  1  0.75086604  0.50205828  0.14926803  1
  O  O175  1  0.77180769  0.49952706  0.63544300  1
  O  O176  1  0.73471695  1.00536377  0.11867644  1
  O  O177  1  0.73031061  1.02162773  0.59255833  1
  O  O178  1  -0.00237341  0.36634487  0.23870780  1
  O  O179  1  0.01084577  0.39255589  0.74942089  1
  O  O180  1  0.01354751  0.87049832  0.24989283  1
  O  O181  1  0.01650261  0.86357600  0.75864334  1
  O  O182  1  0.50414128  0.37250890  0.25927390  1
  O  O183  1  0.51317343  0.44111767  0.77881653  1
  O  O184  1  0.50570303  0.86057273  0.25124507  1
  O  O185  1  0.51814424  0.89161953  0.76366777  1
  O  O186  1  0.49252396  0.13614077  0.24121226  1
  O  O187  1  0.48548486  0.10919588  0.73706082  1
  O  O188  1  0.48884378  0.63736738  0.26295281  1
  O  O189  1  0.48298480  0.62306908  0.73922369  1
  O  O190  1  1.00612890  0.13562926  0.23594286  1
  O  O191  1  1.02195589  0.12071164  0.72365218  1
  O  O192  1  0.99492227  0.63176428  0.24768000  1
  O  O193  1  0.99500765  0.62207821  0.75019531  1
  O  O194  1  0.36752437  0.25266653  0.00960628  1
  O  O195  1  0.36328808  0.24320775  0.49681079  1
  O  O196  1  0.37203172  0.74651376  0.00894410  1
  O  O197  1  0.36909511  0.76529847  0.49096274  1
  O  O198  1  0.83521217  0.20148316  -0.01959555  1
  O  O199  1  0.80135002  0.22055611  0.44738745  1
  O  O200  1  0.87416823  0.77630553  -0.00393986  1
  O  O201  1  0.84825637  0.73748594  0.50063240  1
  O  O202  1  0.13825422  0.24469845  0.48912294  1
  O  O203  1  0.13852117  0.24591425  0.99562856  1
  O  O204  1  0.12259153  0.74475316  0.48935999  1
  O  O205  1  0.14119340  0.75002974  0.99356411  1
  O  O206  1  0.61306136  0.16820929  0.41224680  1
  O  O207  1  0.59768042  0.20259903  1.07212160  1
  O  O208  1  0.64531226  0.73680685  0.51371989  1
  O  O209  1  0.62003747  0.74561822  0.97646600  1
  O  O210  1  0.48583146  0.25528379  0.14211112  1
  O  O211  1  0.48664867  0.23667178  0.62133869  1
  O  O212  1  0.49408780  0.74407199  0.11505715  1
  O  O213  1  0.48920912  0.73453820  0.61434422  1
  O  O214  1  1.00969362  0.24627396  0.13272891  1
  O  O215  1  1.00187061  0.24623590  0.62711869  1
  O  O216  1  1.00214201  0.74048132  0.13812624  1
  O  O217  1  1.02758617  0.72674151  0.64337964  1
  O  O218  1  0.01108822  0.26655795  0.36306835  1
  O  O219  1  0.02227238  0.25411698  0.89246535  1
  O  O220  1  0.01516346  0.75426711  0.36203588  1
  O  O221  1  0.01135583  0.75075671  0.86766412  1
  O  O222  1  0.48699171  0.26766741  0.36810697  1
  O  O223  1  0.51862746  0.25171681  0.86875045  1
  O  O224  1  0.49643829  0.75571186  0.37242893  1
  O  O225  1  0.50945131  0.76307926  0.86884647  1
  O  O226  1  0.24047978  0.13231384  0.49923557  1
  O  O227  1  0.24195901  0.13309566  1.00231033  1
  O  O228  1  0.24205062  0.62976235  0.48837350  1
  O  O229  1  0.26321201  0.63256008  0.98511564  1
  O  O230  1  0.76121315  0.16541131  0.48832648  1
  O  O231  1  0.79145439  0.13783068  0.98837985  1
  O  O232  1  0.74039155  0.62792762  0.48846878  1
  O  O233  1  0.72687393  0.61908849  0.97187904  1
  O  O234  1  0.26164974  0.36901470  0.01093475  1
  O  O235  1  0.25102448  0.36705771  0.51095842  1
  O  O236  1  0.25663338  0.85773400  -0.00806371  1
  O  O237  1  0.25454144  0.87924101  0.50816087  1
  O  O238  1  0.72697066  0.40198406  0.02332775  1
  O  O239  1  0.73641890  0.36556887  0.52627158  1
  O  O240  1  0.73789075  0.86487046  0.01363620  1
  O  O241  1  0.74893289  0.86601833  0.51008349  1
  O  O242  1  0.14191405  0.50626722  0.25432693  1
  O  O243  1  0.13909781  0.50211686  0.73338992  1
  O  O244  1  0.13636471  0.98839950  0.25237976  1
  O  O245  1  0.12017014  0.98650894  0.75727261  1
  O  O246  1  0.63471291  0.49622316  0.25951357  1
  O  O247  1  0.65440751  0.50369011  0.74378494  1
  O  O248  1  0.62495419  0.97553602  0.24529520  1
  O  O249  1  0.64690362  0.99444885  0.72610444  1
  O  O250  1  0.37296359  0.00336986  0.25068517  1
  O  O251  1  0.36704188  -0.03135247  0.75780193  1
  O  O252  1  0.36759700  0.50962012  0.25751601  1
  O  O253  1  0.35639152  0.51484778  0.74226009  1
  O  O254  1  0.87641859  0.01723244  0.25662056  1
  O  O255  1  0.84951800  -0.01160671  0.73255669  1
  O  O256  1  0.86601835  0.50921991  0.26093172  1
  O  O257  1  0.87225470  0.51741786  0.77148033  1
  O  O258  1  0.11469290  0.36383823  0.38362575  1
  O  O259  1  0.14335498  0.35896956  0.87429124  1
  O  O260  1  0.12773417  0.86728861  0.36561340  1
  O  O261  1  0.12695298  0.86217885  0.86414392  1
  O  O262  1  0.60953314  0.38249323  0.37017402  1
  O  O263  1  0.65104571  0.35635492  0.87192666  1
  O  O264  1  0.62874041  0.87595252  0.36390713  1
  O  O265  1  0.62002733  0.86455025  0.86475610  1
  O  O266  1  0.38828983  0.13770029  0.12929110  1
  O  O267  1  0.38008262  0.13527986  0.62194460  1
  O  O268  1  0.37232911  0.63580363  0.13698089  1
  O  O269  1  0.37334578  0.63366271  0.63316279  1
  O  O270  1  0.89419140  0.12104563  0.13354273  1
  O  O271  1  0.89042935  0.13027685  0.63538308  1
  O  O272  1  0.88654426  0.62329525  0.14694739  1
  O  O273  1  0.89478711  0.62263834  0.63636764  1
  O  O274  1  0.25721201  0.25932888  0.12111453  1
  O  O275  1  0.26295353  0.25332173  0.61913943  1
  O  O276  1  0.25675129  0.74254525  0.10988307  1
  O  O277  1  0.25385117  0.76590712  0.62167078  1
  O  O278  1  0.74832059  0.27534460  0.12346575  1
  O  O279  1  0.75167779  0.24400737  0.63857670  1
  O  O280  1  0.73877487  0.69050934  0.10282779  1
  O  O281  1  0.75655464  0.75615149  0.63348875  1
  O  O282  1  0.23930375  0.26081466  0.37780120  1
  O  O283  1  0.24522729  0.23645532  0.88515861  1
  O  O284  1  0.24249841  0.73993571  0.36975427  1
  O  O285  1  0.24859640  0.74250914  0.88197370  1
  O  O286  1  0.75612624  0.25506167  0.39129793  1
  O  O287  1  0.70375139  0.29600058  0.88238317  1
  O  O288  1  0.74553705  0.73955499  0.37195664  1
  O  O289  1  0.73584022  0.74351142  0.86230454  1
  O  O290  1  0.01387471  0.12871619  0.01341056  1
  O  O291  1  0.01059537  0.12880880  0.50678098  1
  O  O292  1  -0.00456127  0.63216723  0.01555603  1
  O  O293  1  0.01240371  0.62998295  0.51381575  1
  O  O294  1  0.49610833  0.11375888  0.00272180  1
  O  O295  1  0.49240581  0.10944301  0.50575749  1
  O  O296  1  0.50605898  0.61219127  -0.01704414  1
  O  O297  1  0.51421306  0.62778115  0.50304008  1
  O  O298  1  0.50820215  0.36684860  0.49077844  1
  O  O299  1  0.48872417  0.36188989  1.00059931  1
  O  O300  1  0.48313515  0.88537174  0.50501286  1
  O  O301  1  0.50629635  0.88343261  0.98555016  1
  O  O302  1  0.99538732  0.37557918  0.49784853  1
  O  O303  1  1.00123533  0.39589114  1.00606897  1
  O  O304  1  1.01496969  0.90085274  0.49020226  1
  O  O305  1  1.01103386  0.86161130  0.98253910  1
  O  O306  1  0.48735226  0.49118118  0.37513105  1
  O  O307  1  0.52971118  0.54900167  0.93808672  1
  O  O308  1  0.49330982  1.00554208  0.38231356  1
  O  O309  1  0.50207626  0.99460839  0.88832596  1
  O  O310  1  1.00659999  0.48038736  0.37013569  1
  O  O311  1  0.97693199  0.51669962  0.89775514  1
  O  O312  1  0.99487975  1.01052680  0.38090650  1
  O  O313  1  1.01744555  0.97634074  0.88010795  1
  O  O314  1  0.00543804  0.01018649  0.13242346  1
  O  O315  1  -0.00478543  0.01532933  0.60313987  1
  O  O316  1  -0.00347290  0.51494060  0.11092744  1
  O  O317  1  0.01447757  0.50748896  0.62712048  1
  O  O318  1  0.51041197  0.01290231  0.11719184  1
  O  O319  1  0.49978697  0.00906155  0.61322786  1
  O  O320  1  0.49723235  0.50302956  0.11443461  1
  O  O321  1  0.48093180  0.52201261  0.61692491  1
  O  O322  1  0.25764141  0.38351936  0.23501293  1
  O  O323  1  0.24867309  0.38165153  0.73808356  1
  O  O324  1  0.24015782  0.87994069  0.24755766  1
  O  O325  1  0.23732002  0.87273784  0.73894410  1
  O  O326  1  0.74372998  0.38550135  0.24900716  1
  O  O327  1  0.75924528  0.38613523  0.74041713  1
  O  O328  1  0.72724278  0.83755286  0.24395312  1
  O  O329  1  0.73462025  0.88393199  0.75492193  1
  O  O330  1  0.26384709  0.11643901  0.23766008  1
  O  O331  1  0.24464290  0.12120746  0.76600991  1
  O  O332  1  0.25863596  0.62111077  0.25807372  1
  O  O333  1  0.25646378  0.62298926  0.75674865  1
  O  O334  1  0.76952450  0.14234152  0.23485647  1
  O  O335  1  0.74897003  0.10757372  0.75310845  1
  O  O336  1  0.74998291  0.61851727  0.26229619  1
  O  O337  1  0.76058999  0.61992103  0.74828491  1
  O  O338  1  0.38232357  0.11691776  0.35826169  1
  O  O339  1  0.36321002  0.12763544  0.87847049  1
  O  O340  1  0.36736158  0.61742705  0.36932177  1
  O  O341  1  0.36514232  0.62906770  0.85945951  1
  O  O342  1  0.88071497  0.12189852  0.35540072  1
  O  O343  1  0.92115341  0.09503440  0.85013642  1
  O  O344  1  0.85546422  0.62394452  0.36820290  1
  O  O345  1  0.85591214  0.63168168  0.87096570  1
  O  O346  1  0.14362854  0.37193507  0.11790183  1
  O  O347  1  0.13962166  0.37995444  0.62267501  1
  O  O348  1  0.12473726  0.87113399  0.13664236  1
  O  O349  1  0.13209092  0.87500206  0.63556069  1
  O  O350  1  0.62545724  0.37959673  0.14358877  1
  O  O351  1  0.63902445  0.35386380  0.65001396  1
  O  O352  1  0.61770758  0.88395143  0.13517267  1
  O  O353  1  0.61261286  0.88935517  0.63135219  1
  O  O354  1  0.12020598  0.25056456  0.25933028  1
  O  O355  1  0.13048377  0.24602279  0.76663217  1
  O  O356  1  0.12280826  0.76068667  0.25433944  1
  O  O357  1  0.12109889  0.75107125  0.76091987  1
  O  O358  1  0.61050569  0.25926844  0.24989576  1
  O  O359  1  0.59968543  0.24286273  0.76334029  1
  O  O360  1  0.60387838  0.74942584  0.24872413  1
  O  O361  1  0.62308826  0.76740393  0.74367494  1
  O  O362  1  0.37710449  0.24401500  0.24591401  1
  O  O363  1  0.37238562  0.24499931  0.74202411  1
  O  O364  1  0.38671683  0.74695441  0.24078106  1
  O  O365  1  0.36918550  0.74042027  0.74959067  1
  O  O366  1  0.89523098  0.24093766  0.25135693  1
  O  O367  1  0.88261980  0.25029019  0.78796097  1
  O  O368  1  0.88849528  0.74394164  0.26294564  1
  O  O369  1  0.89102014  0.73925395  0.75907299  1
  O  O370  1  0.36819539  0.50649711  0.48542807  1
  O  O371  1  0.37814079  0.48334930  1.00154387  1
  O  O372  1  0.37965345  0.99503311  0.48835909  1
  O  O373  1  0.39512520  0.99389984  1.01105955  1
  O  O374  1  0.88277281  0.51857504  0.49478054  1
  O  O375  1  0.85620585  0.52715847  0.99819781  1
  O  O376  1  0.88963630  1.01894507  0.48260728  1
  O  O377  1  0.86890505  0.96425602  1.00387164  1
  O  O378  1  0.13005062  0.01238971  0.00173213  1
  O  O379  1  0.11857690  0.02123117  0.48380712  1
  O  O380  1  0.11516838  0.50411430  -0.00952793  1
  O  O381  1  0.13348052  0.51009368  0.50811837  1
  O  O382  1  0.61409442  -0.00325214  0.01442545  1
  O  O383  1  0.60630866  -0.00993027  0.50435161  1
  O  O384  1  0.58224513  0.50314492  -0.02363256  1
  O  O385  1  0.63125943  0.51525397  0.50690296  1
  O  O386  1  0.36930516  0.36671083  0.11853421  1
  O  O387  1  0.37351078  0.36047523  0.63292736  1
  O  O388  1  0.38328049  0.85688544  0.12380218  1
  O  O389  1  0.36385700  0.87745006  0.60900269  1
  O  O390  1  0.85935046  0.38723800  0.12030213  1
  O  O391  1  0.86378770  0.35955668  0.62724338  1
  O  O392  1  0.86088573  0.86844336  0.13499745  1
  O  O393  1  0.93512467  0.84253186  0.62024750  1
  O  O394  1  0.11384642  0.14727259  0.38380334  1
  O  O395  1  0.13180146  0.13255655  0.89000994  1
  O  O396  1  0.13064401  0.63105598  0.38059536  1
  O  O397  1  0.14439827  0.63535506  0.87297182  1
  O  O398  1  0.64313142  0.11893597  0.36491975  1
  O  O399  1  0.57415977  0.20663827  0.83398680  1
  O  O400  1  0.63274773  0.62226376  0.38851866  1
  O  O401  1  0.62850827  0.64039722  0.84628473  1
