# generated using pymatgen
data_V73Zn73O256
_symmetry_space_group_name_H-M   'P 1'
_cell_length_a   16.84130592
_cell_length_b   16.83374854
_cell_length_c   16.83441221
_cell_angle_alpha   89.97715201
_cell_angle_beta   89.93960442
_cell_angle_gamma   89.96466355
_symmetry_Int_Tables_number   1
_chemical_formula_structural   V73Zn73O256
_chemical_formula_sum   'V73 Zn73 O256'
_cell_volume   4772.59079643
_cell_formula_units_Z   1
loop_
 _symmetry_equiv_pos_site_id
 _symmetry_equiv_pos_as_xyz
  1  'x, y, z'
loop_
 _atom_site_type_symbol
 _atom_site_label
 _atom_site_symmetry_multiplicity
 _atom_site_fract_x
 _atom_site_fract_y
 _atom_site_fract_z
 _atom_site_occupancy
  V  V0  1  0.24949577  0.01281086  0.75402841  1
  V  V1  1  -0.01261134  0.74412408  0.24554381  1
  V  V2  1  0.74348713  0.50383099  0.24208700  1
  V  V3  1  0.62563718  0.36908007  0.23562500  1
  V  V4  1  0.62498928  0.12624332  0.49403177  1
  V  V5  1  0.39253905  0.24417678  0.12784726  1
  V  V6  1  0.75711515  0.00106943  0.24397679  1
  V  V7  1  0.38030562  0.24840883  0.63557176  1
  V  V8  1  0.50062128  0.51645027  0.50012604  1
  V  V9  1  0.24418708  0.23726243  0.00117163  1
  V  V10  1  0.37398877  0.87854113  0.49291652  1
  V  V11  1  0.87514448  -0.01652291  0.88563680  1
  V  V12  1  0.73190509  0.74908748  0.49294630  1
  V  V13  1  0.62361016  -0.00740879  0.63148680  1
  V  V14  1  0.61797078  0.87097134  0.25899742  1
  V  V15  1  0.12632014  0.24620383  0.86284528  1
  V  V16  1  0.00589439  -0.00751376  0.50656536  1
  V  V17  1  0.24714179  0.00085006  0.25548475  1
  V  V18  1  0.24171377  0.24512179  0.49649626  1
  V  V19  1  0.50830271  0.75254427  0.74058733  1
  V  V20  1  -0.00100348  0.76086731  0.76797688  1
  V  V21  1  0.37656631  0.37648312  -0.00668114  1
  V  V22  1  0.87903385  0.24313270  0.62964257  1
  V  V23  1  0.75870304  0.12537232  0.36992764  1
  V  V24  1  0.73370855  0.62569646  0.37653583  1
  V  V25  1  0.50751379  0.49736981  0.00010757  1
  V  V26  1  0.87473457  0.24554298  0.13394551  1
  V  V27  1  0.36849779  0.50547854  0.37015867  1
  V  V28  1  0.02548966  0.50274636  0.00107894  1
  V  V29  1  0.49795400  0.12408966  0.63508096  1
  V  V30  1  0.87740145  0.62248051  0.74333419  1
  V  V31  1  0.69280415  0.45224151  0.79098878  1
  V  V32  1  0.75585898  0.63394909  0.87449298  1
  V  V33  1  0.75599041  -0.00605558  0.74759331  1
  V  V34  1  0.01447552  0.86779641  0.36692599  1
  V  V35  1  0.14079721  0.73094412  0.37945388  1
  V  V36  1  0.00600379  -0.00615312  -0.00306630  1
  V  V37  1  0.76067808  0.86214799  0.11133213  1
  V  V38  1  0.37753933  0.37244220  0.50013796  1
  V  V39  1  0.61874892  0.00096693  0.12136743  1
  V  V40  1  0.38801046  0.12844406  0.25483389  1
  V  V41  1  0.51041799  0.36448557  0.37208928  1
  V  V42  1  0.75624898  0.12732729  0.86667796  1
  V  V43  1  0.74033361  0.37915181  0.61635750  1
  V  V44  1  0.49451054  -0.00170093  0.48830474  1
  V  V45  1  0.00209306  0.12845406  0.12992051  1
  V  V46  1  0.87244193  0.38564571  -0.00390837  1
  V  V47  1  0.12991647  -0.00433159  0.12897630  1
  V  V48  1  0.87059893  -0.01761362  0.37991764  1
  V  V49  1  0.01566328  0.62190156  0.12484979  1
  V  V50  1  0.37301781  0.62384681  0.75074852  1
  V  V51  1  0.24501312  0.37949088  0.63413196  1
  V  V52  1  0.36866031  0.74822590  0.62192748  1
  V  V53  1  0.75507670  0.24760480  0.00325687  1
  V  V54  1  0.24050580  0.63500495  0.88389027  1
  V  V55  1  0.23898534  0.49039833  0.24394566  1
  V  V56  1  0.37205309  0.01344635  0.87295750  1
  V  V57  1  0.74466600  0.25159784  0.49158889  1
  V  V58  1  0.62736213  0.51833621  0.61331821  1
  V  V59  1  0.52190754  0.26502412  0.75776335  1
  V  V60  1  0.88724051  0.75530459  0.61173753  1
  V  V61  1  0.50700822  0.63116584  0.12531293  1
  V  V62  1  0.88909493  0.38059485  0.49159260  1
  V  V63  1  0.88601661  0.50616169  0.37012686  1
  V  V64  1  0.24063660  0.87762816  0.62383660  1
  V  V65  1  0.49772933  0.87625456  0.87394641  1
  V  V66  1  0.36894356  0.63091862  0.24016576  1
  V  V67  1  0.62608453  0.75539435  0.88549901  1
  V  V68  1  0.75242843  0.87258539  0.61973913  1
  V  V69  1  0.36497621  0.86440210  0.01028251  1
  V  V70  1  0.62048263  0.12836051  -0.00308283  1
  V  V71  1  0.12156934  0.59742985  0.52895617  1
  V  V72  1  0.12738973  0.87239665  0.77688922  1
  Zn  Zn73  1  0.25854146  0.37315792  0.12788718  1
  Zn  Zn74  1  0.25252712  0.12980750  0.37697022  1
  Zn  Zn75  1  0.37513663  0.49512346  0.86757569  1
  Zn  Zn76  1  0.49521964  0.75845739  0.25573226  1
  Zn  Zn77  1  0.63421091  0.62678575  0.00907682  1
  Zn  Zn78  1  0.02557742  0.12921164  0.62746668  1
  Zn  Zn79  1  0.49371316  0.00420227  0.00235501  1
  Zn  Zn80  1  0.00583047  0.38022495  0.86458919  1
  Zn  Zn81  1  0.22868266  0.50126134  0.74675027  1
  Zn  Zn82  1  0.19233628  0.18592436  0.18008980  1
  Zn  Zn83  1  0.18656672  0.19361777  0.68337544  1
  Zn  Zn84  1  0.17811048  0.68000223  0.20452736  1
  Zn  Zn85  1  0.18279861  0.68901827  0.68850491  1
  Zn  Zn86  1  0.68361478  0.18623440  0.18642329  1
  Zn  Zn87  1  0.69013726  0.18554988  0.68109336  1
  Zn  Zn88  1  0.68969691  0.68862436  0.19234200  1
  Zn  Zn89  1  0.69268172  0.69046973  0.68751073  1
  Zn  Zn90  1  0.31569520  0.31250424  0.31276827  1
  Zn  Zn91  1  0.31211090  0.30515062  0.81522881  1
  Zn  Zn92  1  0.30981048  0.81519756  0.30737685  1
  Zn  Zn93  1  0.31476085  0.81362123  0.81634381  1
  Zn  Zn94  1  0.80816143  0.31981833  0.31047014  1
  Zn  Zn95  1  0.81351897  0.30863840  0.81906715  1
  Zn  Zn96  1  0.80426756  0.80803080  0.30193182  1
  Zn  Zn97  1  0.81040823  0.81357524  0.80482723  1
  Zn  Zn98  1  0.17799677  0.43216559  0.43777466  1
  Zn  Zn99  1  0.19533593  0.43344103  0.92596660  1
  Zn  Zn100  1  0.18784619  0.93632986  0.43519814  1
  Zn  Zn101  1  0.19191564  0.94531676  0.94491967  1
  Zn  Zn102  1  0.68799843  0.44290948  0.43352944  1
  Zn  Zn103  1  0.69414334  0.44323973  0.95491853  1
  Zn  Zn104  1  0.68582888  0.93747475  0.44086277  1
  Zn  Zn105  1  0.68769454  0.93621268  0.93731782  1
  Zn  Zn106  1  0.31762025  0.06035774  0.06487963  1
  Zn  Zn107  1  0.30703975  0.06387162  0.56896387  1
  Zn  Zn108  1  0.30934754  0.56004648  0.06404208  1
  Zn  Zn109  1  0.30156238  0.56540834  0.55847044  1
  Zn  Zn110  1  0.81344888  0.06257814  0.06249135  1
  Zn  Zn111  1  0.81705571  0.06092006  0.55932023  1
  Zn  Zn112  1  0.81534414  0.57455320  0.06404288  1
  Zn  Zn113  1  0.81817237  0.56778133  0.55661291  1
  Zn  Zn114  1  0.44333615  0.43751858  0.18284731  1
  Zn  Zn115  1  0.44440757  0.43775693  0.68339567  1
  Zn  Zn116  1  0.43291550  0.94493509  0.19137850  1
  Zn  Zn117  1  0.43312336  0.93636376  0.68744789  1
  Zn  Zn118  1  0.93101143  0.43430710  0.18059944  1
  Zn  Zn119  1  0.89284976  0.41319273  0.70961275  1
  Zn  Zn120  1  0.93810336  0.93589873  0.18532974  1
  Zn  Zn121  1  0.96490350  0.97182757  0.70949546  1
  Zn  Zn122  1  0.05017659  0.06048208  0.30513739  1
  Zn  Zn123  1  0.06539129  0.07177754  0.81257469  1
  Zn  Zn124  1  0.06158588  0.56650520  0.31270810  1
  Zn  Zn125  1  0.05166900  0.57431376  0.82065828  1
  Zn  Zn126  1  0.56776884  0.06126444  0.30940628  1
  Zn  Zn127  1  0.56569434  0.06446365  0.81360232  1
  Zn  Zn128  1  0.55789407  0.55914991  0.31040714  1
  Zn  Zn129  1  0.55587699  0.57152291  0.81487181  1
  Zn  Zn130  1  0.43718664  0.18597787  0.44053794  1
  Zn  Zn131  1  0.43948422  0.19618740  0.93224945  1
  Zn  Zn132  1  0.43298787  0.69330951  0.43108130  1
  Zn  Zn133  1  0.43442944  0.68705527  0.93826594  1
  Zn  Zn134  1  0.93497560  0.17695385  0.44956431  1
  Zn  Zn135  1  0.94037986  0.17488475  0.93450512  1
  Zn  Zn136  1  0.94722632  0.67872140  0.44054948  1
  Zn  Zn137  1  0.94323205  0.68274136  0.94311350  1
  Zn  Zn138  1  0.03771824  0.29025864  0.01572008  1
  Zn  Zn139  1  0.06316092  0.31365302  0.56661994  1
  Zn  Zn140  1  0.05928053  0.81955553  0.07175663  1
  Zn  Zn141  1  0.05934762  0.81522152  0.55283663  1
  Zn  Zn142  1  0.56616056  0.31360807  0.05818757  1
  Zn  Zn143  1  0.56160122  0.31602474  0.56389137  1
  Zn  Zn144  1  0.55473165  0.81734522  0.06728281  1
  Zn  Zn145  1  0.55871154  0.81277295  0.55627499  1
  O  O146  1  0.10841850  0.12270359  0.12583769  1
  O  O147  1  0.13613962  0.12373738  0.61499167  1
  O  O148  1  0.11467065  0.61397077  0.13050577  1
  O  O149  1  0.12275211  0.61192066  0.63298505  1
  O  O150  1  0.63469525  0.11264073  0.11046092  1
  O  O151  1  0.62084954  0.11367994  0.61331492  1
  O  O152  1  0.61257966  0.62704095  0.12693953  1
  O  O153  1  0.62989765  0.61695422  0.62228816  1
  O  O154  1  0.38738982  0.38422425  0.38043584  1
  O  O155  1  0.37734325  0.37108962  0.88928719  1
  O  O156  1  0.36540666  0.87211301  0.39448682  1
  O  O157  1  0.38254427  0.88128340  0.88354345  1
  O  O158  1  0.86999137  0.38190962  0.38659877  1
  O  O159  1  0.88406559  0.36920891  0.88890114  1
  O  O160  1  0.87058963  0.88141072  0.36839978  1
  O  O161  1  0.86895974  0.88404977  0.87573620  1
  O  O162  1  0.23585767  0.01187063  0.36148987  1
  O  O163  1  0.26222313  -0.00022046  0.86773376  1
  O  O164  1  0.26530335  0.49176259  0.36895836  1
  O  O165  1  0.25691283  0.50743236  0.86111482  1
  O  O166  1  0.75759187  0.00244767  0.36900337  1
  O  O167  1  0.75732324  0.00261938  0.86923968  1
  O  O168  1  0.75519710  0.51416217  0.37213694  1
  O  O169  1  0.73968135  0.51712210  0.86029655  1
  O  O170  1  0.25105992  0.49215438  0.13811870  1
  O  O171  1  0.25915258  0.48450293  0.63048256  1
  O  O172  1  0.23494770  1.01473832  0.13243832  1
  O  O173  1  0.25794502  0.98728064  0.64318472  1
  O  O174  1  0.75644002  0.51717750  0.14298245  1
  O  O175  1  0.73650047  0.49757614  0.60931232  1
  O  O176  1  0.74448359  0.99535282  0.12981087  1
  O  O177  1  0.74593827  0.99345334  0.62673294  1
  O  O178  1  0.01616275  0.36883400  0.24063109  1
  O  O179  1  0.00494746  0.39234848  0.74131814  1
  O  O180  1  -0.00562034  0.86151097  0.25656237  1
  O  O181  1  0.01719399  0.87422415  0.75529025  1
  O  O182  1  0.51307900  0.38544881  0.26241889  1
  O  O183  1  0.50494427  0.36479324  0.74499867  1
  O  O184  1  0.51314266  0.88056886  0.24195443  1
  O  O185  1  0.49097645  0.86216183  0.76039593  1
  O  O186  1  0.48827304  0.11839949  0.25066034  1
  O  O187  1  0.51114829  0.13501620  0.73839919  1
  O  O188  1  0.48850283  0.61891229  0.23837464  1
  O  O189  1  0.48789941  0.64383619  0.75181047  1
  O  O190  1  0.98772314  0.12036471  0.23008851  1
  O  O191  1  0.99676932  0.08109633  0.72550384  1
  O  O192  1  0.99459527  0.62973806  0.23559150  1
  O  O193  1  0.98715270  0.64661989  0.75718868  1
  O  O194  1  0.37311669  0.25716980  0.00647730  1
  O  O195  1  0.37681611  0.25905817  0.51025021  1
  O  O196  1  0.37841768  0.76392423  -0.00098182  1
  O  O197  1  0.38215411  0.76399118  0.51348927  1
  O  O198  1  0.86395180  0.25102200  0.00126342  1
  O  O199  1  0.86620965  0.25939833  0.50436305  1
  O  O200  1  0.88571006  0.71565537  0.03990665  1
  O  O201  1  0.87561562  0.74380368  0.51081006  1
  O  O202  1  0.14281427  0.25352986  0.50545422  1
  O  O203  1  0.14479512  0.25334832  1.01510826  1
  O  O204  1  0.12390581  0.75947327  0.47776720  1
  O  O205  1  0.16812637  0.75379236  1.04603062  1
  O  O206  1  0.63301278  0.23900377  0.50643019  1
  O  O207  1  0.63825390  0.23761354  1.00586023  1
  O  O208  1  0.63244493  0.74684367  0.49872986  1
  O  O209  1  0.61739251  0.74733002  0.98754075  1
  O  O210  1  0.49207153  0.24710684  0.11737488  1
  O  O211  1  0.49879474  0.24376632  0.63120508  1
  O  O212  1  0.49974851  0.73674861  0.13217208  1
  O  O213  1  0.48985005  0.75957045  0.63476316  1
  O  O214  1  0.98628314  0.23778353  0.10923801  1
  O  O215  1  0.98341192  0.24317374  0.61390213  1
  O  O216  1  1.01288652  0.74015213  0.13793935  1
  O  O217  1  0.98866835  0.76308517  0.62850095  1
  O  O218  1  0.03483813  0.20993781  0.38513241  1
  O  O219  1  0.01380221  0.25679190  0.90051336  1
  O  O220  1  -0.00187253  0.75729430  0.36534233  1
  O  O221  1  -0.00935424  0.75843172  0.86764982  1
  O  O222  1  0.49844550  0.26542630  0.37934958  1
  O  O223  1  0.50576762  0.24739627  0.85681836  1
  O  O224  1  0.49730371  0.75400691  0.36771200  1
  O  O225  1  0.50994468  0.75502022  0.86620486  1
  O  O226  1  0.25972017  0.13913743  0.49725015  1
  O  O227  1  0.25709024  0.13834899  1.00244309  1
  O  O228  1  0.22265847  0.62613351  0.50780353  1
  O  O229  1  0.25956939  0.61828980  0.98278935  1
  O  O230  1  0.74427864  0.13054436  0.49273797  1
  O  O231  1  0.74609829  0.13152763  0.98992543  1
  O  O232  1  0.75165077  0.63757553  0.48929197  1
  O  O233  1  0.74902185  0.62179170  0.97957775  1
  O  O234  1  0.26722802  0.37092291  0.00439896  1
  O  O235  1  0.26312658  0.36794907  0.50895160  1
  O  O236  1  0.26488214  0.88021418  0.00038595  1
  O  O237  1  0.26202712  0.89016139  0.51424293  1
  O  O238  1  0.75705911  0.35718527  -0.00837873  1
  O  O239  1  0.74877662  0.36730000  0.49991133  1
  O  O240  1  0.74717336  0.87493260  0.01120808  1
  O  O241  1  0.74621476  0.85944419  0.50225297  1
  O  O242  1  0.14114932  0.50241606  0.25871536  1
  O  O243  1  0.10589286  0.48306047  0.76387315  1
  O  O244  1  0.13234947  1.01002863  0.23992918  1
  O  O245  1  0.14094726  0.98498269  0.76622749  1
  O  O246  1  0.63680749  0.49578765  0.25335035  1
  O  O247  1  0.62131286  0.50670508  0.73481715  1
  O  O248  1  0.63289182  0.99674935  0.23625605  1
  O  O249  1  0.63641404  1.00416040  0.73877569  1
  O  O250  1  0.36017810  0.02039331  0.23980838  1
  O  O251  1  0.36301981  -0.00663390  0.76241213  1
  O  O252  1  0.37301631  0.50221286  0.25934077  1
  O  O253  1  0.38950806  0.52006679  0.74330691  1
  O  O254  1  0.86303274  -0.00377621  0.25852799  1
  O  O255  1  0.86140564  -0.00710498  0.76172252  1
  O  O256  1  0.85960104  0.48504135  0.26303338  1
  O  O257  1  0.88683788  0.52309333  0.74242951  1
  O  O258  1  0.13149631  0.36161364  0.36641570  1
  O  O259  1  0.11991841  0.35753150  0.88682874  1
  O  O260  1  0.11585948  0.87092751  0.36562841  1
  O  O261  1  0.13284181  0.86851949  0.87525822  1
  O  O262  1  0.61348529  0.37804127  0.37439946  1
  O  O263  1  0.64741983  0.39115532  0.85464006  1
  O  O264  1  0.62645579  0.88775916  0.35786944  1
  O  O265  1  0.61682226  0.86415030  0.87653496  1
  O  O266  1  0.37586772  0.13770705  0.13148242  1
  O  O267  1  0.38833168  0.13407500  0.62010882  1
  O  O268  1  0.38139464  0.62099284  0.13573832  1
  O  O269  1  0.36714872  0.64142787  0.62966838  1
  O  O270  1  0.87699593  0.13736278  0.12380468  1
  O  O271  1  0.85839007  0.14370476  0.62883525  1
  O  O272  1  0.89141191  0.65523272  0.09592112  1
  O  O273  1  0.86898634  0.64173187  0.63515663  1
  O  O274  1  0.26281374  0.25539750  0.11557179  1
  O  O275  1  0.26429571  0.25806013  0.61738016  1
  O  O276  1  0.21652413  0.74941028  0.10400307  1
  O  O277  1  0.26041705  0.76398808  0.63104312  1
  O  O278  1  0.75984479  0.24042983  0.11100332  1
  O  O279  1  0.75489696  0.26046676  0.61285094  1
  O  O280  1  0.74535427  0.76231860  0.12696687  1
  O  O281  1  0.75254448  0.75393137  0.61023627  1
  O  O282  1  0.25651171  0.25378759  0.39212851  1
  O  O283  1  0.23978548  0.25346776  0.88912967  1
  O  O284  1  0.23962791  0.74721711  0.36433136  1
  O  O285  1  0.25253136  0.73581887  0.86953780  1
  O  O286  1  0.75687745  0.24103386  0.38328884  1
  O  O287  1  0.75344300  0.23387678  0.88131782  1
  O  O288  1  0.75316374  0.73954653  0.38322596  1
  O  O289  1  0.73645199  0.74683221  0.86862109  1
  O  O290  1  -0.01240591  0.10469375  0.01463028  1
  O  O291  1  -0.01758314  0.09718437  0.51859934  1
  O  O292  1  0.01412177  0.61474016  0.00769906  1
  O  O293  1  0.02349831  0.62887548  0.50513237  1
  O  O294  1  0.51750997  0.12606187  -0.00940379  1
  O  O295  1  0.50549312  0.11544254  0.50791715  1
  O  O296  1  0.49794884  0.62067978  0.01248036  1
  O  O297  1  0.48830362  0.61454316  0.49851941  1
  O  O298  1  0.49473383  0.38248339  0.49147426  1
  O  O299  1  0.49572773  0.38790634  1.00200022  1
  O  O300  1  0.48868572  0.88890927  0.50437365  1
  O  O301  1  0.49469381  0.88080937  0.98762759  1
  O  O302  1  0.98751464  0.37028030  0.49939814  1
  O  O303  1  0.98558546  0.39465855  1.00877771  1
  O  O304  1  0.99525184  0.87729669  0.47241795  1
  O  O305  1  1.00007204  0.89184283  1.00791041  1
  O  O306  1  0.49240543  0.49464691  0.38651597  1
  O  O307  1  0.49144146  0.51494210  0.89366951  1
  O  O308  1  0.50050964  1.00495853  0.38991196  1
  O  O309  1  0.49040788  0.99293236  0.86842876  1
  O  O310  1  0.98500369  0.49740927  0.36193755  1
  O  O311  1  1.00191098  0.50184966  0.89788557  1
  O  O312  1  0.98588411  0.98713768  0.37041648  1
  O  O313  1  0.98716937  1.00413502  0.88701309  1
  O  O314  1  0.00731087  0.00637974  0.12068680  1
  O  O315  1  -0.00358124  -0.04147131  0.60073607  1
  O  O316  1  -0.01590844  0.51598647  0.11399822  1
  O  O317  1  0.05317465  0.45358790  0.70773003  1
  O  O318  1  0.51603168  0.00252966  0.12288745  1
  O  O319  1  0.50608226  0.00573844  0.62609183  1
  O  O320  1  0.49491368  0.51255767  0.11050595  1
  O  O321  1  0.51294680  0.49782452  0.60896960  1
  O  O322  1  0.25321996  0.38449563  0.24838247  1
  O  O323  1  0.26052176  0.37367746  0.73748561  1
  O  O324  1  0.26115290  0.90099801  0.25033756  1
  O  O325  1  0.23803788  0.87355476  0.74424352  1
  O  O326  1  0.73484943  0.39035462  0.25567306  1
  O  O327  1  0.76481595  0.39263977  0.73728516  1
  O  O328  1  0.73782669  0.88357544  0.23930562  1
  O  O329  1  0.74587610  0.88165941  0.73488202  1
  O  O330  1  0.25416536  0.12551717  0.25629173  1
  O  O331  1  0.24793522  0.11105508  0.74725736  1
  O  O332  1  0.26340630  0.60965218  0.24306367  1
  O  O333  1  0.26244985  0.62369750  0.75088438  1
  O  O334  1  0.73949771  0.11438991  0.26017182  1
  O  O335  1  0.74463349  0.11630899  0.76139271  1
  O  O336  1  0.74806444  0.61789283  0.26495621  1
  O  O337  1  0.76581617  0.63456230  0.75747670  1
  O  O338  1  0.37501943  0.13459535  0.35941413  1
  O  O339  1  0.38143893  0.11236420  0.87559256  1
  O  O340  1  0.37833388  0.61095157  0.36383447  1
  O  O341  1  0.36980054  0.62843538  0.85890245  1
  O  O342  1  0.86401249  0.11246844  0.37902756  1
  O  O343  1  0.86062317  0.11153197  0.87674082  1
  O  O344  1  0.87264067  0.60993152  0.38046516  1
  O  O345  1  0.86299761  0.63793193  0.86615011  1
  O  O346  1  0.07621993  0.33402357  0.19980168  1
  O  O347  1  0.14601472  0.36636567  0.62477320  1
  O  O348  1  0.12486259  0.89593600  0.12903596  1
  O  O349  1  0.14046205  0.86983198  0.62052954  1
  O  O350  1  0.61885868  0.38027856  0.13572974  1
  O  O351  1  0.63554700  0.38696055  0.62089086  1
  O  O352  1  0.63200239  0.88873130  0.12591781  1
  O  O353  1  0.63257574  0.88545400  0.61501085  1
  O  O354  1  0.10783527  0.27226702  0.23674719  1
  O  O355  1  0.12749065  0.25240685  0.76249757  1
  O  O356  1  0.10797079  0.74003462  0.26964649  1
  O  O357  1  0.11026381  0.76195888  0.74954951  1
  O  O358  1  0.63337101  0.26812371  0.24643025  1
  O  O359  1  0.62251748  0.25402203  0.74227385  1
  O  O360  1  0.62445616  0.76805900  0.24862351  1
  O  O361  1  0.61183383  0.74876579  0.74988512  1
  O  O362  1  0.37612991  0.24373465  0.23704429  1
  O  O363  1  0.38539425  0.25261218  0.73923079  1
  O  O364  1  0.37105699  0.73403139  0.25099063  1
  O  O365  1  0.38129915  0.74499170  0.73911731  1
  O  O366  1  0.86875427  0.25995585  0.23289532  1
  O  O367  1  0.87534874  0.27600300  0.72838969  1
  O  O368  1  0.88705106  0.74542829  0.25085672  1
  O  O369  1  0.88704908  0.75304415  0.73988728  1
  O  O370  1  0.38143411  0.49545760  0.49261837  1
  O  O371  1  0.38105556  0.48496324  1.00160849  1
  O  O372  1  0.38575830  0.99359639  0.50765674  1
  O  O373  1  0.37641114  0.99603397  0.98665255  1
  O  O374  1  0.87393915  0.48944488  0.48899606  1
  O  O375  1  0.85433341  0.48430075  1.00128758  1
  O  O376  1  0.87395970  0.99146845  0.48440485  1
  O  O377  1  0.87658763  0.99562411  0.99013843  1
  O  O378  1  0.11444287  0.00352681  0.00901257  1
  O  O379  1  0.10512194  -0.00376602  0.48735222  1
  O  O380  1  0.12234723  0.48548562  0.00820831  1
  O  O381  1  0.12247913  0.49578662  0.51097459  1
  O  O382  1  0.62557521  0.00849718  0.00777252  1
  O  O383  1  0.61278462  0.00447320  0.50796436  1
  O  O384  1  0.61309415  0.50697102  -0.00167470  1
  O  O385  1  0.61297769  0.50587952  0.50270632  1
  O  O386  1  0.38191622  0.36229155  0.11656178  1
  O  O387  1  0.37611345  0.36827599  0.61607732  1
  O  O388  1  0.38508379  0.88402096  0.10861037  1
  O  O389  1  0.36593577  0.86686416  0.62088870  1
  O  O390  1  0.87537203  0.35794899  0.10766420  1
  O  O391  1  0.86057307  0.37473221  0.60479930  1
  O  O392  1  0.86009641  0.87775164  0.12729831  1
  O  O393  1  0.85919989  0.86134734  0.62238462  1
  O  O394  1  0.08747823  0.15368949  0.37352181  1
  O  O395  1  0.11951935  0.14350420  0.87927178  1
  O  O396  1  0.12594690  0.62823336  0.38372784  1
  O  O397  1  0.14032023  0.62312127  0.86885400  1
  O  O398  1  0.63603650  0.11502312  0.38772502  1
  O  O399  1  0.64127472  0.11282189  0.88895113  1
  O  O400  1  0.63440516  0.62219602  0.37547457  1
  O  O401  1  0.63402503  0.64099313  0.87073862  1
