# generated using pymatgen
data_V73Zn73O256
_symmetry_space_group_name_H-M   'P 1'
_cell_length_a   16.91961061
_cell_length_b   16.93575297
_cell_length_c   17.00643974
_cell_angle_alpha   89.61242723
_cell_angle_beta   90.13761719
_cell_angle_gamma   89.55129209
_symmetry_Int_Tables_number   1
_chemical_formula_structural   V73Zn73O256
_chemical_formula_sum   'V73 Zn73 O256'
_cell_volume   4872.85755098
_cell_formula_units_Z   1
loop_
 _symmetry_equiv_pos_site_id
 _symmetry_equiv_pos_as_xyz
  1  'x, y, z'
loop_
 _atom_site_type_symbol
 _atom_site_label
 _atom_site_symmetry_multiplicity
 _atom_site_fract_x
 _atom_site_fract_y
 _atom_site_fract_z
 _atom_site_occupancy
  V  V0  1  -0.01523288  0.23218606  0.23845846  1
  V  V1  1  0.39582767  0.60476030  0.77516954  1
  V  V2  1  0.10768502  0.64808828  0.49343452  1
  V  V3  1  0.88881804  0.01369889  0.36696208  1
  V  V4  1  0.86180521  0.73844349  0.62526748  1
  V  V5  1  0.37318684  0.24827076  0.61839890  1
  V  V6  1  0.62993443  0.74252386  0.36444403  1
  V  V7  1  0.60329452  0.54257051  0.58248090  1
  V  V8  1  0.61594933  0.25617370  0.37679037  1
  V  V9  1  0.12330511  0.49702168  0.61292925  1
  V  V10  1  0.87440873  0.36950506  0.50632698  1
  V  V11  1  0.13478436  0.62257372  -0.00012588  1
  V  V12  1  -0.00081590  0.37101966  0.35481455  1
  V  V13  1  0.01025376  0.61174734  0.12916750  1
  V  V14  1  -0.00212668  0.49715126  0.48819664  1
  V  V15  1  0.74943865  0.12475614  0.37085839  1
  V  V16  1  0.24582393  0.37438952  0.60976729  1
  V  V17  1  0.26111020  0.11883150  0.38418364  1
  V  V18  1  0.12494546  0.13376787  0.50232722  1
  V  V19  1  0.38282258  0.38653234  0.49669877  1
  V  V20  1  0.73957766  0.49405159  0.23144382  1
  V  V21  1  0.87760486  0.87105177  -0.00653867  1
  V  V22  1  0.23957352  0.86794352  0.12924092  1
  V  V23  1  0.00570104  -0.01314644  -0.00905438  1
  V  V24  1  0.74512933  0.73817635  -0.01191791  1
  V  V25  1  0.12833848  0.24441917  0.36323361  1
  V  V26  1  0.00005239  0.12812011  0.62751322  1
  V  V27  1  0.50037278  0.86201229  0.86151285  1
  V  V28  1  0.50126173  0.11919065  0.62643762  1
  V  V29  1  0.61166681  0.88028767  0.25078565  1
  V  V30  1  0.86484437  0.49367803  0.36794121  1
  V  V31  1  0.00518385  0.39508603  0.87779775  1
  V  V32  1  -0.01688158  0.62084367  0.62951944  1
  V  V33  1  0.25484685  0.12464779  0.87187762  1
  V  V34  1  0.25627202  -0.00276090  0.24001372  1
  V  V35  1  0.14332749  0.48699961  0.14304361  1
  V  V36  1  0.12970012  0.24575660  0.87220929  1
  V  V37  1  0.62877025  0.60300373  -0.01050131  1
  V  V38  1  0.38686325  0.12973894  0.23740070  1
  V  V39  1  0.48775314  0.38673725  0.87926597  1
  V  V40  1  0.37690809  0.37192431  0.02161320  1
  V  V41  1  0.49033214  0.24457286  0.75827824  1
  V  V42  1  0.62740681  0.23488739  0.88221756  1
  V  V43  1  0.74969868  0.87662520  0.13210194  1
  V  V44  1  0.88519796  0.89515784  0.50110233  1
  V  V45  1  0.75745116  0.73136825  0.48322359  1
  V  V46  1  0.25363710  0.24580902  0.02746908  1
  V  V47  1  0.88090467  0.74330149  0.11984489  1
  V  V48  1  0.25240356  0.87400054  0.63396873  1
  V  V49  1  0.75049052  0.26457354  0.51158353  1
  V  V50  1  0.50187578  0.39785495  0.38076873  1
  V  V51  1  0.51415012  0.00372870  0.00645369  1
  V  V52  1  0.62787621  0.12277037  0.51335717  1
  V  V53  1  0.12326302  0.12010147  0.00561103  1
  V  V54  1  0.38231315  0.86606710  0.01255768  1
  V  V55  1  0.62098944  0.37475945  0.24393110  1
  V  V56  1  0.11941099  0.00016667  0.61663520  1
  V  V57  1  0.62921709  0.37820072  0.74802458  1
  V  V58  1  0.00881816  0.25782524  0.74290454  1
  V  V59  1  0.38780130  0.63253885  0.24034384  1
  V  V60  1  0.17878276  0.43330264  0.79383373  1
  V  V61  1  0.24426839  0.76360404  0.50218650  1
  V  V62  1  0.25420227  0.62679174  0.38018183  1
  V  V63  1  0.24131537  0.00023447  0.75448285  1
  V  V64  1  0.76470234  0.24263811  0.00812025  1
  V  V65  1  0.87259620  -0.01086877  0.85907803  1
  V  V66  1  0.24794289  0.74396140  -0.00773655  1
  V  V67  1  0.87068285  0.14456757  0.74859774  1
  V  V68  1  0.87066378  0.62263111  0.25030457  1
  V  V69  1  0.52080384  0.62850979  0.12550209  1
  V  V70  1  0.63825907  0.88049354  0.74454647  1
  V  V71  1  0.37256606  -0.00372993  0.87175413  1
  V  V72  1  0.75015618  0.90729844  0.61657877  1
  Zn  Zn73  1  0.47021384  -0.06354654  0.46749985  1
  Zn  Zn74  1  0.07918224  -0.02541393  0.17560896  1
  Zn  Zn75  1  0.06848766  0.77929483  0.81454046  1
  Zn  Zn76  1  0.37332488  0.74027866  0.63556725  1
  Zn  Zn77  1  0.73827254  0.11060019  0.86760353  1
  Zn  Zn78  1  0.26483591  0.49403528  0.26396902  1
  Zn  Zn79  1  -0.02770620  0.13350898  0.10449182  1
  Zn  Zn80  1  0.87243836  0.37153734  -0.00579633  1
  Zn  Zn81  1  0.01352874  0.85625582  0.34277855  1
  Zn  Zn82  1  0.18000740  0.16518593  0.19854681  1
  Zn  Zn83  1  0.19218066  0.18645131  0.68975700  1
  Zn  Zn84  1  0.19482342  0.68688937  0.19619292  1
  Zn  Zn85  1  0.22976267  0.69680922  0.72657859  1
  Zn  Zn86  1  0.81014277  0.17383725  0.18732926  1
  Zn  Zn87  1  0.68518628  0.20165940  0.69336927  1
  Zn  Zn88  1  0.69408182  0.69146958  0.18545618  1
  Zn  Zn89  1  0.66953145  0.70786935  0.67460023  1
  Zn  Zn90  1  0.32435767  0.30886348  0.30133257  1
  Zn  Zn91  1  0.31600197  0.31526682  0.81066090  1
  Zn  Zn92  1  0.17993847  0.82016300  0.32417387  1
  Zn  Zn93  1  0.32081640  0.81266101  0.81497348  1
  Zn  Zn94  1  0.80580813  0.31111910  0.31554028  1
  Zn  Zn95  1  0.81694913  0.41555325  0.80437532  1
  Zn  Zn96  1  0.83846851  0.81465675  0.31728562  1
  Zn  Zn97  1  0.86631480  0.76986894  0.83175251  1
  Zn  Zn98  1  0.20818944  0.41474118  0.40662066  1
  Zn  Zn99  1  0.23139968  0.45972003  0.97024444  1
  Zn  Zn100  1  0.30725860  0.93630537  0.43481586  1
  Zn  Zn101  1  0.18445834  0.92243858  0.93692314  1
  Zn  Zn102  1  0.72427234  0.52199423  0.48396880  1
  Zn  Zn103  1  0.67954810  0.42184849  0.93604303  1
  Zn  Zn104  1  0.67544713  0.94265110  0.42998535  1
  Zn  Zn105  1  0.68975118  0.92468309  0.93024985  1
  Zn  Zn106  1  0.32088725  0.05883857  0.06070728  1
  Zn  Zn107  1  0.31524992  0.06081012  0.56747595  1
  Zn  Zn108  1  0.32682097  0.56048300  0.07647751  1
  Zn  Zn109  1  0.30205547  0.56423512  0.54443401  1
  Zn  Zn110  1  0.80375994  0.05687710  0.04624356  1
  Zn  Zn111  1  0.81806261  0.07736926  0.55918405  1
  Zn  Zn112  1  0.81449331  0.54762091  0.06654346  1
  Zn  Zn113  1  0.76920333  0.55115224  0.68817724  1
  Zn  Zn114  1  0.44499488  0.45516719  0.19323551  1
  Zn  Zn115  1  0.44773479  0.44188191  0.68469399  1
  Zn  Zn116  1  0.43931525  0.94526361  0.18957620  1
  Zn  Zn117  1  0.46486707  0.90971128  0.65483534  1
  Zn  Zn118  1  0.93120250  0.43727295  0.17070866  1
  Zn  Zn119  1  0.93900628  0.43831381  0.68445111  1
  Zn  Zn120  1  0.91295801  0.96180426  0.17429537  1
  Zn  Zn121  1  0.93554828  0.92690719  0.68466669  1
  Zn  Zn122  1  0.10607862  0.00868173  0.36007290  1
  Zn  Zn123  1  0.06029203  -0.05750028  0.80164135  1
  Zn  Zn124  1  0.06263775  0.56659614  0.31290525  1
  Zn  Zn125  1  0.07971833  0.59626904  0.79842082  1
  Zn  Zn126  1  0.56055600  0.04851913  0.32469121  1
  Zn  Zn127  1  0.55469637  0.05167136  0.80955008  1
  Zn  Zn128  1  0.56670760  0.56857705  0.32020387  1
  Zn  Zn129  1  0.60152390  0.59163434  0.78185711  1
  Zn  Zn130  1  0.43960946  0.18595369  0.44382644  1
  Zn  Zn131  1  0.43267083  0.18393619  0.94899164  1
  Zn  Zn132  1  0.44065101  0.80621769  0.32951786  1
  Zn  Zn133  1  0.44411661  0.68021017  0.94234591  1
  Zn  Zn134  1  0.94014911  0.18928272  0.43585024  1
  Zn  Zn135  1  0.93872056  0.18488430  0.92426393  1
  Zn  Zn136  1  0.93238159  0.69500493  0.43112384  1
  Zn  Zn137  1  0.95626289  0.68230933  0.94950897  1
  Zn  Zn138  1  0.06875131  0.31568893  0.06353104  1
  Zn  Zn139  1  0.06113904  0.31310672  0.55168827  1
  Zn  Zn140  1  0.05440556  0.80773274  0.18277105  1
  Zn  Zn141  1  0.04782920  0.81952475  0.61332444  1
  Zn  Zn142  1  0.57104554  0.31688232  0.05370801  1
  Zn  Zn143  1  0.56120140  0.31534053  0.56627662  1
  Zn  Zn144  1  0.56617174  0.80584928  0.06583430  1
  Zn  Zn145  1  0.58830923  0.81194118  0.55574694  1
  O  O146  1  0.12459657  0.12099975  0.10695211  1
  O  O147  1  0.12384380  0.12371971  0.62007956  1
  O  O148  1  0.11773758  0.62349740  0.13170140  1
  O  O149  1  0.09910264  0.61057425  0.60380712  1
  O  O150  1  0.57361838  0.16125648  0.13919488  1
  O  O151  1  0.61387367  0.13979802  0.62149731  1
  O  O152  1  0.62415974  0.62137371  0.12344510  1
  O  O153  1  0.60105705  0.64177562  0.60675313  1
  O  O154  1  0.39454487  0.36515431  0.38891138  1
  O  O155  1  0.38301629  0.36653102  0.88594241  1
  O  O156  1  0.39729688  0.88468606  0.39172389  1
  O  O157  1  0.38008908  0.87865573  0.88824192  1
  O  O158  1  0.88226310  0.37854976  0.37431771  1
  O  O159  1  0.89958654  0.38629237  0.87922251  1
  O  O160  1  0.87411554  0.90376898  0.39178403  1
  O  O161  1  0.87328937  0.88040288  0.88014736  1
  O  O162  1  0.24551996  0.01250944  0.36721504  1
  O  O163  1  0.25017277  0.00378406  0.87318819  1
  O  O164  1  0.22584120  0.52736068  0.38625394  1
  O  O165  1  0.23238219  0.48551516  0.85816018  1
  O  O166  1  0.75095478  0.02277373  0.38584176  1
  O  O167  1  0.76682161  -0.00307480  0.87720240  1
  O  O168  1  0.76435861  0.49621839  0.37783133  1
  O  O169  1  0.75973888  0.49467643  0.87689059  1
  O  O170  1  0.24755632  0.50301182  0.14486638  1
  O  O171  1  0.23177677  0.48799999  0.60294846  1
  O  O172  1  0.25502649  0.99134437  0.13382329  1
  O  O173  1  0.24238245  0.99650957  0.63336835  1
  O  O174  1  0.73459961  0.49108232  0.13481807  1
  O  O175  1  0.70474531  0.51052526  0.60125466  1
  O  O176  1  0.75246430  0.97379851  0.10848692  1
  O  O177  1  0.76284327  1.00412086  0.62947213  1
  O  O178  1  -0.01138437  0.37242802  0.25220122  1
  O  O179  1  -0.00135760  0.36268492  0.75511548  1
  O  O180  1  0.00212572  0.89965128  0.22807889  1
  O  O181  1  0.01765273  0.85994155  0.72623671  1
  O  O182  1  0.51048537  0.38786740  0.26819095  1
  O  O183  1  0.49777979  0.36151785  0.76429074  1
  O  O184  1  0.50747021  0.87083218  0.24900925  1
  O  O185  1  0.47692902  0.87299551  0.76466506  1
  O  O186  1  0.48223291  0.10400380  0.26661518  1
  O  O187  1  0.50266766  0.13718450  0.73762816  1
  O  O188  1  0.49843220  0.62178229  0.23937889  1
  O  O189  1  0.49283645  0.62831032  0.75790490  1
  O  O190  1  0.98957949  0.13475408  0.23769901  1
  O  O191  1  0.99357588  0.14089389  0.73794681  1
  O  O192  1  0.98360100  0.61497579  0.23715976  1
  O  O193  1  0.98818616  0.60490878  0.72566588  1
  O  O194  1  0.36143457  0.25098577  0.00952006  1
  O  O195  1  0.38275116  0.26019783  0.51542189  1
  O  O196  1  0.36799414  0.76169407  0.00057984  1
  O  O197  1  0.33869927  0.74030903  0.52262153  1
  O  O198  1  0.87074232  0.25036005  -0.00734304  1
  O  O199  1  0.86389828  0.26104394  0.49071167  1
  O  O200  1  0.87428059  0.75007025  0.00480577  1
  O  O201  1  0.86454470  0.76369649  0.50397135  1
  O  O202  1  0.11983932  0.24053937  0.48333193  1
  O  O203  1  0.13909787  0.24332694  0.99376707  1
  O  O204  1  0.11220746  0.74672073  0.51155565  1
  O  O205  1  0.14337651  0.73396861  1.00736803  1
  O  O206  1  0.63590008  0.25620379  0.49591927  1
  O  O207  1  0.62364062  0.24252976  0.98691853  1
  O  O208  1  0.65116115  0.75694481  0.48092890  1
  O  O209  1  0.64411195  0.75104604  0.99602873  1
  O  O210  1  0.52473554  0.21512683  0.12995658  1
  O  O211  1  0.48841861  0.24849644  0.63639216  1
  O  O212  1  0.50208586  0.73093760  0.12211428  1
  O  O213  1  0.48471795  0.70093778  0.55179259  1
  O  O214  1  1.00302104  0.25065091  0.13466771  1
  O  O215  1  1.01151700  0.24989677  0.63774109  1
  O  O216  1  0.98707516  0.73459388  0.12633819  1
  O  O217  1  0.97890808  0.72874120  0.61774606  1
  O  O218  1  0.00086457  0.25106240  0.35750077  1
  O  O219  1  0.01680582  0.25337370  0.86500624  1
  O  O220  1  -0.05489715  0.77127554  0.35078497  1
  O  O221  1  -0.02850869  0.72888245  0.85268013  1
  O  O222  1  0.51526925  0.24723255  0.38333106  1
  O  O223  1  0.49473245  0.23790153  0.86360870  1
  O  O224  1  0.53159070  0.75350326  0.37908587  1
  O  O225  1  0.49461808  0.76514299  0.88138535  1
  O  O226  1  0.24290951  0.12257439  0.48964939  1
  O  O227  1  0.24747865  0.13355760  0.99734185  1
  O  O228  1  0.21951428  0.63832469  0.50065332  1
  O  O229  1  0.25276854  0.63754015  1.01332045  1
  O  O230  1  0.74259937  0.14531459  0.50090362  1
  O  O231  1  0.75795793  0.13748502  0.98066817  1
  O  O232  1  0.76658700  0.63340825  0.48511107  1
  O  O233  1  0.74140029  0.62965339  1.01277849  1
  O  O234  1  0.25829572  0.35122825  0.00746314  1
  O  O235  1  0.26560901  0.36947744  0.50193796  1
  O  O236  1  0.25724606  0.86642196  0.01215728  1
  O  O237  1  0.24421163  0.86911178  0.51056632  1
  O  O238  1  0.74931903  0.34768543  -0.01083659  1
  O  O239  1  0.76523376  0.37157496  0.49753845  1
  O  O240  1  0.76049259  0.85857867  0.00157474  1
  O  O241  1  0.76200380  0.89051929  0.50856452  1
  O  O242  1  0.13027431  0.50494232  0.24478118  1
  O  O243  1  0.12680116  0.50030856  0.73069314  1
  O  O244  1  0.14906634  1.02483151  0.24745390  1
  O  O245  1  0.13515248  1.00633238  0.73678900  1
  O  O246  1  0.63479992  0.48992647  0.25969185  1
  O  O247  1  0.61713954  0.47676084  0.76547137  1
  O  O248  1  0.62317735  0.97960455  0.24909363  1
  O  O249  1  0.60336648  0.97698370  0.73804709  1
  O  O250  1  0.36227014  0.00604872  0.25180072  1
  O  O251  1  0.35826945  -0.00664821  0.76921867  1
  O  O252  1  0.37755678  0.52461855  0.25952465  1
  O  O253  1  0.39258943  0.50346734  0.76118218  1
  O  O254  1  0.86926320  0.00526872  0.27050834  1
  O  O255  1  0.88075387  -0.00430278  0.75832537  1
  O  O256  1  0.85913414  0.49778003  0.24920025  1
  O  O257  1  0.85284422  0.49064168  0.72882325  1
  O  O258  1  0.11156211  0.35102947  0.37685832  1
  O  O259  1  0.12559114  0.36571727  0.85609662  1
  O  O260  1  0.11180116  0.89584662  0.37322409  1
  O  O261  1  0.11753870  0.86850242  0.86709648  1
  O  O262  1  0.60851536  0.36814726  0.38099942  1
  O  O263  1  0.60288464  0.35497642  0.87500141  1
  O  O264  1  0.64647473  0.86337086  0.35067902  1
  O  O265  1  0.61403626  0.87083956  0.85403436  1
  O  O266  1  0.37960621  0.11956954  0.13733382  1
  O  O267  1  0.38506874  0.14120478  0.61787653  1
  O  O268  1  0.36883336  0.64387141  0.14164705  1
  O  O269  1  0.34836958  0.61809186  0.63608527  1
  O  O270  1  0.86799029  0.09703614  0.12975716  1
  O  O271  1  0.88626499  0.12335300  0.64037807  1
  O  O272  1  0.88801737  0.62158731  0.12424626  1
  O  O273  1  0.87327418  0.63032334  0.61735329  1
  O  O274  1  0.24150815  0.23962796  0.12408336  1
  O  O275  1  0.26437387  0.25859801  0.63185701  1
  O  O276  1  0.24976397  0.76590025  0.12504688  1
  O  O277  1  0.22507192  0.77188854  0.62311997  1
  O  O278  1  0.75294372  0.23634290  0.10693454  1
  O  O279  1  0.74728979  0.25438435  0.60967541  1
  O  O280  1  0.76373802  0.75380313  0.11026169  1
  O  O281  1  0.75491185  0.74869370  0.60085318  1
  O  O282  1  0.23294581  0.23167903  0.36274087  1
  O  O283  1  0.24337624  0.24182537  0.86713222  1
  O  O284  1  0.23751826  0.74657273  0.39681071  1
  O  O285  1  0.25130759  0.75573895  0.89425989  1
  O  O286  1  0.73940284  0.24703406  0.38805827  1
  O  O287  1  0.72650607  0.24274365  0.87435281  1
  O  O288  1  0.76090065  0.75635001  0.38231983  1
  O  O289  1  0.76907595  0.74147672  0.89109797  1
  O  O290  1  0.00819230  0.11903196  -0.00775163  1
  O  O291  1  0.00578337  0.13998567  0.51906766  1
  O  O292  1  0.02057839  0.62246361  0.01868305  1
  O  O293  1  -0.00583966  0.61756967  0.49572928  1
  O  O294  1  0.49800656  0.10306584  -0.00720490  1
  O  O295  1  0.51563195  0.13339959  0.51492645  1
  O  O296  1  0.52366193  0.63109021  0.00913251  1
  O  O297  1  0.47338272  0.65643941  0.49585740  1
  O  O298  1  0.49279198  0.37642484  0.49461999  1
  O  O299  1  0.48402230  0.36020816  0.99219525  1
  O  O300  1  0.49186869  0.86433027  0.55593110  1
  O  O301  1  0.49053863  0.87377228  0.99661070  1
  O  O302  1  0.99028815  0.37544380  0.48092304  1
  O  O303  1  1.01803333  0.37440704  0.97762606  1
  O  O304  1  0.98071634  0.87176023  0.52040766  1
  O  O305  1  0.99107028  0.88462804  0.99963593  1
  O  O306  1  0.49862355  0.49578335  0.37956744  1
  O  O307  1  0.49893170  0.48060644  0.88528777  1
  O  O308  1  0.55892488  0.97777620  0.41157723  1
  O  O309  1  0.48952742  0.98484567  0.88241248  1
  O  O310  1  0.99204335  0.48935848  0.37208838  1
  O  O311  1  1.02475139  0.49026282  0.85916244  1
  O  O312  1  0.98788553  1.02089507  0.37444413  1
  O  O313  1  0.98598468  0.99558706  0.88127274  1
  O  O314  1  -0.00347220  0.00612290  0.09943503  1
  O  O315  1  0.01462287  0.01248208  0.63449096  1
  O  O316  1  0.02031459  0.50891127  0.13048769  1
  O  O317  1  -0.00002730  0.50184143  0.60754059  1
  O  O318  1  0.50051487  -0.00998877  0.10531408  1
  O  O319  1  0.48877610  0.02257433  0.63332944  1
  O  O320  1  0.47948325  0.53164988  0.11593519  1
  O  O321  1  0.51952253  0.49640236  0.61876797  1
  O  O322  1  0.25208842  0.38924874  0.30340665  1
  O  O323  1  0.24611999  0.37891087  0.73572191  1
  O  O324  1  0.24973289  0.88754279  0.24120529  1
  O  O325  1  0.24547575  0.88340562  0.74137155  1
  O  O326  1  0.73513462  0.38418108  0.25489833  1
  O  O327  1  0.72824963  0.36035381  0.76420173  1
  O  O328  1  0.77338748  0.86882962  0.22976852  1
  O  O329  1  0.74030999  0.87678315  0.73028892  1
  O  O330  1  0.26738196  0.11673326  0.25993896  1
  O  O331  1  0.24855217  0.11496968  0.76223302  1
  O  O332  1  0.26238282  0.62952211  0.27102605  1
  O  O333  1  0.29492281  0.59886656  0.70151012  1
  O  O334  1  0.74293812  0.13775883  0.27308064  1
  O  O335  1  0.76660975  0.13973033  0.74829498  1
  O  O336  1  0.76116180  0.60561471  0.23742373  1
  O  O337  1  0.70438080  0.62559627  0.74112616  1
  O  O338  1  0.36133644  0.13094985  0.38221575  1
  O  O339  1  0.36095180  0.11241672  0.88681165  1
  O  O340  1  0.34716449  0.62244325  0.40630662  1
  O  O341  1  0.37803087  0.62040822  0.87359470  1
  O  O342  1  0.86053843  0.12206903  0.38819200  1
  O  O343  1  0.87881781  0.11119610  0.85439636  1
  O  O344  1  0.88133233  0.61076871  0.35341116  1
  O  O345  1  0.86638524  0.58082009  0.88679570  1
  O  O346  1  0.12882956  0.38954510  0.12782785  1
  O  O347  1  0.13263913  0.38110821  0.61065599  1
  O  O348  1  0.13871991  0.88160541  0.12262295  1
  O  O349  1  0.13236160  0.89763467  0.61560552  1
  O  O350  1  0.60867783  0.36726706  0.14624041  1
  O  O351  1  0.61786911  0.36452792  0.64852635  1
  O  O352  1  0.64139165  0.86039899  0.13973831  1
  O  O353  1  0.64852811  0.89463256  0.61274350  1
  O  O354  1  0.10903009  0.23469327  0.26065996  1
  O  O355  1  0.11643709  0.24206273  0.75756768  1
  O  O356  1  0.12401127  0.75333428  0.25267166  1
  O  O357  1  0.12572589  0.69614780  0.76063391  1
  O  O358  1  0.62886740  0.26920450  0.27237162  1
  O  O359  1  0.60685969  0.25531618  0.76160080  1
  O  O360  1  0.63969948  0.76059171  0.25658227  1
  O  O361  1  0.59806815  0.79284231  0.70526421  1
  O  O362  1  0.38152543  0.23049620  0.25247774  1
  O  O363  1  0.38464057  0.25408774  0.73869161  1
  O  O364  1  0.38281486  0.72512957  0.28018448  1
  O  O365  1  0.34591158  0.72689186  0.74652406  1
  O  O366  1  0.87893863  0.25049063  0.24592167  1
  O  O367  1  0.89241730  0.24358416  0.75778313  1
  O  O368  1  0.85826594  0.72461112  0.23227246  1
  O  O369  1  0.85368248  0.75084621  0.72174860  1
  O  O370  1  0.37305281  0.48508132  0.50066270  1
  O  O371  1  0.34639450  0.47263956  1.00468791  1
  O  O372  1  0.37680293  0.99900047  0.50054870  1
  O  O373  1  0.37690288  0.98372634  0.99116602  1
  O  O374  1  0.88397931  0.48444615  0.48477722  1
  O  O375  1  0.82461685  0.52944221  0.92402912  1
  O  O376  1  0.88297377  0.99931058  0.50314693  1
  O  O377  1  0.88346980  0.98834222  0.98514062  1
  O  O378  1  0.11147861  0.00350399  -0.01295575  1
  O  O379  1  0.12268120  0.02051580  0.51437330  1
  O  O380  1  0.14973547  0.51708320  0.02775306  1
  O  O381  1  0.10409364  0.49837599  0.49716896  1
  O  O382  1  0.61234303  -0.01484162  -0.01130224  1
  O  O383  1  0.64311662  0.02727971  0.51630692  1
  O  O384  1  0.63308758  0.50349327  0.00127571  1
  O  O385  1  0.60730192  0.53514376  0.48134585  1
  O  O386  1  0.39343912  0.37396080  0.11922569  1
  O  O387  1  0.36994465  0.37072945  0.61437712  1
  O  O388  1  0.36849070  0.87880942  0.11369607  1
  O  O389  1  0.35346156  0.86608543  0.63378333  1
  O  O390  1  0.87822475  0.45037300  0.07217704  1
  O  O391  1  0.89049352  0.37006832  0.60262736  1
  O  O392  1  0.87091963  0.86429045  0.10945494  1
  O  O393  1  0.86230876  0.86806657  0.61587070  1
  O  O394  1  0.12864698  0.12791936  0.38637735  1
  O  O395  1  0.14073598  0.13426942  0.88929397  1
  O  O396  1  0.10886839  0.63710510  0.39084650  1
  O  O397  1  0.12806294  0.61254808  0.90323883  1
  O  O398  1  0.63248465  0.13846761  0.39292296  1
  O  O399  1  0.62045361  0.13000783  0.86152715  1
  O  O400  1  0.64261104  0.64175038  0.35771371  1
  O  O401  1  0.62569248  0.61844433  0.89287037  1
