# generated using pymatgen
data_V73Zn73O256
_symmetry_space_group_name_H-M   'P 1'
_cell_length_a   16.88467778
_cell_length_b   16.86264862
_cell_length_c   16.85308232
_cell_angle_alpha   89.99194375
_cell_angle_beta   90.08213305
_cell_angle_gamma   89.98293364
_symmetry_Int_Tables_number   1
_chemical_formula_structural   V73Zn73O256
_chemical_formula_sum   'V73 Zn73 O256'
_cell_volume   4798.41095162
_cell_formula_units_Z   1
loop_
 _symmetry_equiv_pos_site_id
 _symmetry_equiv_pos_as_xyz
  1  'x, y, z'
loop_
 _atom_site_type_symbol
 _atom_site_label
 _atom_site_symmetry_multiplicity
 _atom_site_fract_x
 _atom_site_fract_y
 _atom_site_fract_z
 _atom_site_occupancy
  V  V0  1  0.50088707  0.12531351  0.62350693  1
  V  V1  1  0.50022543  0.26430399  0.75064536  1
  V  V2  1  0.75397178  0.76407882  0.00350402  1
  V  V3  1  0.86385012  0.25281181  0.61387621  1
  V  V4  1  0.37279621  0.10944890  0.75267676  1
  V  V5  1  0.86767472  0.74881181  0.62040517  1
  V  V6  1  0.50535138  -0.00810552  -0.00491876  1
  V  V7  1  0.48237261  0.87812401  0.36700005  1
  V  V8  1  0.24484717  0.88389483  0.12300098  1
  V  V9  1  0.12836427  0.49769802  0.14042650  1
  V  V10  1  0.74158418  0.62094403  0.88758788  1
  V  V11  1  0.62989087  -0.01688346  0.12545865  1
  V  V12  1  0.25865923  0.00302410  0.25915672  1
  V  V13  1  0.62683373  -0.00007209  0.62187647  1
  V  V14  1  0.49450678  0.74453676  0.73025487  1
  V  V15  1  0.87402689  0.49770106  0.87235500  1
  V  V16  1  0.11430354  0.88031904  0.25504734  1
  V  V17  1  0.35396354  0.62982493  0.25792407  1
  V  V18  1  0.56931859  0.17670800  0.05335057  1
  V  V19  1  0.13081301  0.62554553  0.49802473  1
  V  V20  1  0.62703602  0.64565285  0.50156992  1
  V  V21  1  0.00662845  0.24850600  0.23221356  1
  V  V22  1  0.12357375  0.75294688  0.88191466  1
  V  V23  1  0.28633516  0.86362591  0.59541978  1
  V  V24  1  0.00372529  0.24696451  0.74397430  1
  V  V25  1  0.74355384  0.00545116  0.26016708  1
  V  V26  1  0.86621369  0.62234012  0.26258202  1
  V  V27  1  0.24964534  0.25539948  -0.00227895  1
  V  V28  1  0.37950694  0.49315085  0.88336906  1
  V  V29  1  0.51255829  0.48758662  0.50351026  1
  V  V30  1  0.37054556  0.74981503  0.12633591  1
  V  V31  1  0.64562610  0.50539378  0.13533453  1
  V  V32  1  0.37575603  0.87886666  -0.00657884  1
  V  V33  1  0.02968931  0.00110656  0.53277394  1
  V  V34  1  0.35538753  0.50090602  0.37256735  1
  V  V35  1  0.87543190  0.37435931  0.01056278  1
  V  V36  1  0.61454454  0.75306295  0.88052718  1
  V  V37  1  0.12544708  0.75296434  0.37867678  1
  V  V38  1  0.11449775  0.11468512  0.00663339  1
  V  V39  1  0.62176299  0.26047722  0.87014442  1
  V  V40  1  0.87777627  -0.00376089  0.88264463  1
  V  V41  1  0.38106826  0.14010722  0.23545624  1
  V  V42  1  -0.00022595  0.36161819  0.37788238  1
  V  V43  1  0.50877591  0.51683248  0.01602441  1
  V  V44  1  0.87645883  0.12209636  0.74360758  1
  V  V45  1  0.48943752  -0.00222809  0.49051093  1
  V  V46  1  -0.00478737  0.37461525  0.87066863  1
  V  V47  1  0.66182010  0.36420080  0.24661335  1
  V  V48  1  0.00260372  0.62032263  0.62679296  1
  V  V49  1  0.38293376  0.36803711  0.00691212  1
  V  V50  1  0.87709995  0.13370129  0.24724623  1
  V  V51  1  0.49366337  0.36762968  0.34729216  1
  V  V52  1  0.25247745  0.13104633  0.39095281  1
  V  V53  1  0.75520952  0.25032932  0.00637686  1
  V  V54  1  -0.00205824  0.62378283  0.13076165  1
  V  V55  1  0.13022164  0.89211847  0.74737552  1
  V  V56  1  0.86340435  0.62617541  0.75070961  1
  V  V57  1  0.50742106  0.74863290  0.25278300  1
  V  V58  1  0.63217238  0.14367410  0.48672287  1
  V  V59  1  -0.01670400  0.50619166  0.48383222  1
  V  V60  1  0.11993099  0.61189856  -0.00631288  1
  V  V61  1  0.74199952  0.12095859  0.87941894  1
  V  V62  1  0.75078904  0.87307925  0.62071967  1
  V  V63  1  0.35916355  0.25132008  0.62161352  1
  V  V64  1  0.26156528  0.63628958  0.88119785  1
  V  V65  1  0.36371378  0.36804355  0.49651896  1
  V  V66  1  -0.00705845  0.87552408  0.88916783  1
  V  V67  1  0.87721117  0.75931573  0.12411732  1
  V  V68  1  0.68370900  0.82591982  0.30308733  1
  V  V69  1  0.24336285  0.37313699  0.13313624  1
  V  V70  1  0.12722440  0.25331592  0.86871103  1
  V  V71  1  0.25413191  0.11159963  0.86894496  1
  V  V72  1  0.89367254  -0.00256520  0.37285369  1
  Zn  Zn73  1  0.36878999  0.62846276  0.72926581  1
  Zn  Zn74  1  0.61906385  0.87341792  0.75143021  1
  Zn  Zn75  1  0.74835206  -0.00252762  0.74666445  1
  Zn  Zn76  1  0.13191588  0.25191868  0.37042907  1
  Zn  Zn77  1  0.75183575  0.75165863  0.47241649  1
  Zn  Zn78  1  0.88540307  0.87628474  0.48769765  1
  Zn  Zn79  1  0.82787155  0.45442044  0.32737674  1
  Zn  Zn80  1  -0.00050089  0.75663741  0.74690136  1
  Zn  Zn81  1  0.23940580  0.50309342  0.73059448  1
  Zn  Zn82  1  0.18866447  0.18405140  0.18513359  1
  Zn  Zn83  1  0.18490129  0.33307600  0.67973581  1
  Zn  Zn84  1  0.18077049  0.69766687  0.18587639  1
  Zn  Zn85  1  0.18975767  0.70092524  0.69280205  1
  Zn  Zn86  1  0.69282689  0.17973565  0.19073693  1
  Zn  Zn87  1  0.68797494  0.19187658  0.68668596  1
  Zn  Zn88  1  0.69277097  0.68394746  0.18344182  1
  Zn  Zn89  1  0.64886594  0.62420382  0.71159077  1
  Zn  Zn90  1  0.30928727  0.30701197  0.31221903  1
  Zn  Zn91  1  0.31502768  0.31515062  0.81035203  1
  Zn  Zn92  1  0.30609083  0.81223562  0.31483476  1
  Zn  Zn93  1  0.31424554  0.81237686  0.80344850  1
  Zn  Zn94  1  0.81662705  0.28608607  0.34501654  1
  Zn  Zn95  1  0.80928413  0.31018855  0.80834488  1
  Zn  Zn96  1  0.93930434  0.81281170  0.30129378  1
  Zn  Zn97  1  0.80600648  0.80935300  0.80843199  1
  Zn  Zn98  1  0.15210892  0.41076003  0.49320485  1
  Zn  Zn99  1  0.17278641  0.45555156  0.88849254  1
  Zn  Zn100  1  0.18963429  0.93667757  0.44054783  1
  Zn  Zn101  1  0.18776841  0.93465669  0.93503688  1
  Zn  Zn102  1  0.68200274  0.38561605  0.42981565  1
  Zn  Zn103  1  0.68613725  0.43849989  0.94259690  1
  Zn  Zn104  1  0.68620458  0.94464941  0.44540577  1
  Zn  Zn105  1  0.68842601  0.93540506  0.93789499  1
  Zn  Zn106  1  0.31030832  0.06216131  0.05908433  1
  Zn  Zn107  1  0.30158299  0.04702416  0.57229398  1
  Zn  Zn108  1  0.30772772  0.56298339  0.06164387  1
  Zn  Zn109  1  0.31912722  0.56368090  0.54796083  1
  Zn  Zn110  1  0.82458213  0.05366102  0.07318958  1
  Zn  Zn111  1  0.81287822  0.06540959  0.55226343  1
  Zn  Zn112  1  0.81950146  0.56080010  0.05776547  1
  Zn  Zn113  1  0.77108768  0.52688765  0.50139579  1
  Zn  Zn114  1  0.41912526  0.45505400  0.18560898  1
  Zn  Zn115  1  0.40672202  0.45200868  0.67472174  1
  Zn  Zn116  1  0.43993524  0.94416426  0.18068618  1
  Zn  Zn117  1  0.43835863  0.92636707  0.68383564  1
  Zn  Zn118  1  0.94866707  0.43787337  0.19087117  1
  Zn  Zn119  1  0.91936435  0.44024100  0.68785242  1
  Zn  Zn120  1  0.93618209  0.95240523  0.17744644  1
  Zn  Zn121  1  0.94388844  0.93454224  0.69236518  1
  Zn  Zn122  1  0.07108352  0.06871256  0.30892133  1
  Zn  Zn123  1  0.06104337  0.06412065  0.81896473  1
  Zn  Zn124  1  0.06711662  0.56484191  0.31557124  1
  Zn  Zn125  1  0.05969329  0.56248903  0.80391485  1
  Zn  Zn126  1  0.55924152  0.06925098  0.30965849  1
  Zn  Zn127  1  0.55904810  0.06175704  0.80890255  1
  Zn  Zn128  1  0.68495767  0.55747400  0.32833397  1
  Zn  Zn129  1  0.52893966  0.53789228  0.79983492  1
  Zn  Zn130  1  0.43252555  0.18399449  0.43033296  1
  Zn  Zn131  1  0.43543707  0.18700521  0.93515369  1
  Zn  Zn132  1  0.50752194  0.59934016  0.36659539  1
  Zn  Zn133  1  0.44087076  0.68646886  0.95238283  1
  Zn  Zn134  1  0.94175243  0.16927834  0.43938400  1
  Zn  Zn135  1  0.93487505  0.18635962  0.93515811  1
  Zn  Zn136  1  0.94512933  0.69561999  0.43907696  1
  Zn  Zn137  1  0.93809287  0.68645144  0.94202839  1
  Zn  Zn138  1  0.06605278  0.31333106  0.05206043  1
  Zn  Zn139  1  0.01345547  0.34081840  0.58734350  1
  Zn  Zn140  1  0.06311081  0.81002050  0.06373985  1
  Zn  Zn141  1  0.06171122  0.81639846  0.56288669  1
  Zn  Zn142  1  0.52721274  0.34893344  0.12999041  1
  Zn  Zn143  1  0.55144777  0.32101642  0.56168721  1
  Zn  Zn144  1  0.56233255  0.80832158  0.06572475  1
  Zn  Zn145  1  0.55435080  0.81698348  0.55909049  1
  O  O146  1  0.13059252  0.12635182  0.10573677  1
  O  O147  1  0.13057774  0.16251543  0.56735375  1
  O  O148  1  0.12406951  0.61756634  0.11514851  1
  O  O149  1  0.10814352  0.63723123  0.62014769  1
  O  O150  1  0.62618158  0.11939618  0.11519851  1
  O  O151  1  0.61506740  0.12077885  0.62333162  1
  O  O152  1  0.62639226  0.60520311  0.13698448  1
  O  O153  1  0.62567315  0.62113658  0.60077240  1
  O  O154  1  0.37145509  0.38559219  0.37174756  1
  O  O155  1  0.37237177  0.38609965  0.89317379  1
  O  O156  1  0.38379921  0.87360771  0.37500217  1
  O  O157  1  0.36701130  0.86565231  0.89606952  1
  O  O158  1  0.89468788  0.37347121  0.37528135  1
  O  O159  1  0.87792024  0.37990842  0.87587655  1
  O  O160  1  0.87901331  0.88983671  0.36568317  1
  O  O161  1  0.88278846  0.88430256  0.86421595  1
  O  O162  1  0.24780440  0.00765272  0.36397739  1
  O  O163  1  0.25416291  0.01383276  0.87922429  1
  O  O164  1  0.25992264  0.50476044  0.38104224  1
  O  O165  1  0.27322318  0.51298464  0.88038056  1
  O  O166  1  0.74736308  0.00008992  0.36213073  1
  O  O167  1  0.75321512  0.00744854  0.86880056  1
  O  O168  1  0.74384682  0.48325312  0.39686656  1
  O  O169  1  0.75647905  0.51350798  0.88533448  1
  O  O170  1  0.23607127  0.49036834  0.11773741  1
  O  O171  1  0.32565629  0.54094364  0.65861677  1
  O  O172  1  0.25032131  0.98843488  0.13386310  1
  O  O173  1  0.26560540  0.95994131  0.63201891  1
  O  O174  1  0.74356841  0.49877926  0.11397007  1
  O  O175  1  0.73788175  0.46994725  0.60480326  1
  O  O176  1  0.73696155  1.00480017  0.13225174  1
  O  O177  1  0.74343876  0.99319472  0.62195338  1
  O  O178  1  -0.00032928  0.35889820  0.26289701  1
  O  O179  1  -0.01239494  0.35777554  0.75767342  1
  O  O180  1  0.01119923  0.88487025  0.23512182  1
  O  O181  1  0.01092315  0.87412831  0.76612487  1
  O  O182  1  0.47862025  0.37219365  0.24348210  1
  O  O183  1  0.49611927  0.36116940  0.74565910  1
  O  O184  1  0.49443738  0.87648185  0.26022622  1
  O  O185  1  0.50419924  0.85384759  0.74647956  1
  O  O186  1  0.47997940  0.12291583  0.25197736  1
  O  O187  1  0.49059701  0.12886891  0.74174619  1
  O  O188  1  0.49394533  0.64737757  0.25597723  1
  O  O189  1  0.48591844  0.63703485  0.75267706  1
  O  O190  1  0.99168790  0.13719938  0.25061157  1
  O  O191  1  0.98620708  0.13521957  0.76229974  1
  O  O192  1  1.00311008  0.62460639  0.23397085  1
  O  O193  1  0.98999476  0.62713532  0.73859419  1
  O  O194  1  0.36746029  0.26105744  -0.00659028  1
  O  O195  1  0.37587975  0.24975317  0.51454709  1
  O  O196  1  0.38266058  0.76244045  0.01972740  1
  O  O197  1  0.38526667  0.72644916  0.48829656  1
  O  O198  1  0.86338031  0.25778733  -0.00814694  1
  O  O199  1  0.88119911  0.22992396  0.51762056  1
  O  O200  1  0.86794629  0.74707145  0.01207759  1
  O  O201  1  0.87124404  0.75472206  0.50847619  1
  O  O202  1  0.12277612  0.22211476  0.52632999  1
  O  O203  1  0.13324813  0.24042339  0.98754896  1
  O  O204  1  0.11559898  0.74236930  0.48999563  1
  O  O205  1  0.12191669  0.74103687  0.98892244  1
  O  O206  1  0.61297402  0.24190689  0.50717295  1
  O  O207  1  0.63288987  0.23708084  0.98628055  1
  O  O208  1  0.62441140  0.74860929  0.49727658  1
  O  O209  1  0.64076829  0.75523302  0.99651064  1
  O  O210  1  0.51404408  0.23772286  0.10893176  1
  O  O211  1  0.49864185  0.24201029  0.63730965  1
  O  O212  1  0.48466926  0.76460382  0.14279011  1
  O  O213  1  0.50705819  0.74143850  0.63115242  1
  O  O214  1  1.00203206  0.25887433  0.13390327  1
  O  O215  1  0.99154823  0.23867912  0.64173581  1
  O  O216  1  0.99051348  0.73502943  0.11612302  1
  O  O217  1  0.98587744  0.74203318  0.62296867  1
  O  O218  1  0.00317113  0.25601306  0.38568904  1
  O  O219  1  0.00619596  0.25310846  0.86533597  1
  O  O220  1  0.01120590  0.75728031  0.37049611  1
  O  O221  1  0.00078255  0.76179005  0.87701685  1
  O  O222  1  0.48157824  0.26978902  0.36939589  1
  O  O223  1  0.51103780  0.24359415  0.86400050  1
  O  O224  1  0.50354827  0.76941991  0.35850107  1
  O  O225  1  0.51514615  0.74893646  0.89401036  1
  O  O226  1  0.26208362  0.11512400  0.48980722  1
  O  O227  1  0.25268028  0.13536187  0.98528768  1
  O  O228  1  0.22923867  0.62170590  0.51177797  1
  O  O229  1  0.23683686  0.62423136  0.98967909  1
  O  O230  1  0.73065295  0.12774257  0.50416431  1
  O  O231  1  0.76216240  0.13276852  0.98399610  1
  O  O232  1  0.73338762  0.63436192  0.49013061  1
  O  O233  1  0.76007799  0.63422365  0.99009640  1
  O  O234  1  0.25561771  0.36309545  0.00187072  1
  O  O235  1  0.26433620  0.38192464  0.49640610  1
  O  O236  1  0.26132328  0.88443450  0.01349018  1
  O  O237  1  0.25958561  0.86635192  0.49652883  1
  O  O238  1  0.76077031  0.36048981  -0.00608024  1
  O  O239  1  0.70320298  0.39843650  0.59149710  1
  O  O240  1  0.75734383  0.86326646  -0.00106390  1
  O  O241  1  0.75430279  0.87204844  0.50969630  1
  O  O242  1  0.13042072  0.50407870  0.23927433  1
  O  O243  1  0.13913776  0.48980997  0.78049665  1
  O  O244  1  0.13650221  0.98706244  0.25034762  1
  O  O245  1  0.12149122  0.99256496  0.75674706  1
  O  O246  1  0.64554526  0.48761710  0.24275996  1
  O  O247  1  0.63053568  0.52715433  0.76505804  1
  O  O248  1  0.63455038  1.01238891  0.23904933  1
  O  O249  1  0.62322836  0.99882418  0.73420201  1
  O  O250  1  0.36087851  0.00077766  0.24772092  1
  O  O251  1  0.38697551  0.01101985  0.74706566  1
  O  O252  1  0.36382110  0.51953141  0.25631593  1
  O  O253  1  0.40825087  0.49829494  0.78363323  1
  O  O254  1  0.86344213  0.00748924  0.25611423  1
  O  O255  1  0.87266729  0.01135123  0.75556054  1
  O  O256  1  0.88338889  0.51546509  0.24826050  1
  O  O257  1  0.86971242  0.51180117  0.75931406  1
  O  O258  1  0.10842410  0.36749886  0.39218122  1
  O  O259  1  0.11061753  0.35985840  0.88513921  1
  O  O260  1  0.12258884  0.87218286  0.36250026  1
  O  O261  1  0.11035117  0.87133153  0.87685583  1
  O  O262  1  0.60146646  0.37617558  0.34159465  1
  O  O263  1  0.62681632  0.35864665  0.87998622  1
  O  O264  1  0.62512315  0.87947880  0.36736951  1
  O  O265  1  0.63602759  0.85681189  0.86981592  1
  O  O266  1  0.36838292  0.12075899  0.13537782  1
  O  O267  1  0.37984752  0.13161121  0.63480802  1
  O  O268  1  0.36339393  0.64056135  0.13729448  1
  O  O269  1  0.38128112  0.68233939  0.54682222  1
  O  O270  1  0.86844152  0.13498419  0.14586620  1
  O  O271  1  0.86716844  0.12867870  0.64002159  1
  O  O272  1  0.88999687  0.62098861  0.12783739  1
  O  O273  1  0.87908551  0.63830616  0.63415464  1
  O  O274  1  0.23604907  0.26492532  0.11278691  1
  O  O275  1  0.26219550  0.24610578  0.63421253  1
  O  O276  1  0.26300706  0.76518108  0.13377705  1
  O  O277  1  0.25553680  0.77241655  0.63767316  1
  O  O278  1  0.74607667  0.24032171  0.10368969  1
  O  O279  1  0.76421000  0.25375087  0.62993122  1
  O  O280  1  0.76377503  0.74260868  0.11396088  1
  O  O281  1  0.76347165  0.75706912  0.62320395  1
  O  O282  1  0.24780502  0.23971639  0.38155225  1
  O  O283  1  0.24322169  0.24880670  0.87683778  1
  O  O284  1  0.22713411  0.75565162  0.37403006  1
  O  O285  1  0.24439666  0.73972809  0.87765158  1
  O  O286  1  0.74310728  0.29374354  0.42486967  1
  O  O287  1  0.73835076  0.23900867  0.87809679  1
  O  O288  1  0.74577589  0.76914161  0.35717768  1
  O  O289  1  0.75221071  0.74280813  0.88910426  1
  O  O290  1  0.01610274  0.13039755  -0.01163345  1
  O  O291  1  0.00509524  0.09293243  0.49337914  1
  O  O292  1  0.01311919  0.62318423  0.00841488  1
  O  O293  1  0.00127307  0.62195051  0.51025964  1
  O  O294  1  0.50167834  0.11535376  0.00010426  1
  O  O295  1  0.50372080  0.11862041  0.50610961  1
  O  O296  1  0.49919804  0.61595263  0.02229222  1
  O  O297  1  0.51850664  0.59442525  0.49228075  1
  O  O298  1  0.48149084  0.37357261  0.48348263  1
  O  O299  1  0.48285190  0.37053723  1.01528339  1
  O  O300  1  0.50667047  0.88997815  0.48409605  1
  O  O301  1  0.48976287  0.88240970  1.00492507  1
  O  O302  1  0.99413106  0.39815531  0.48987381  1
  O  O303  1  0.98284368  0.36082002  0.98443071  1
  O  O304  1  0.99868235  0.89818803  0.50942620  1
  O  O305  1  0.99904218  0.87401992  0.98927058  1
  O  O306  1  0.48518834  0.48153401  0.37671960  1
  O  O307  1  0.49098384  0.50566154  0.90654616  1
  O  O308  1  0.50180240  0.99320688  0.38195589  1
  O  O309  1  0.51272361  1.00089946  0.89474868  1
  O  O310  1  0.99932478  0.49730737  0.37970977  1
  O  O311  1  0.98729380  0.48657548  0.86654265  1
  O  O312  1  0.99313060  0.99971013  0.36233821  1
  O  O313  1  0.98598734  0.99184425  0.87726929  1
  O  O314  1  -0.06091104  0.02670106  0.09682101  1
  O  O315  1  0.00419082  0.00894733  0.63134750  1
  O  O316  1  0.01780927  0.50967773  0.12428034  1
  O  O317  1  -0.01165762  0.51650892  0.61848440  1
  O  O318  1  0.51769913  -0.00107880  0.11520618  1
  O  O319  1  0.50655856  0.00659965  0.61436271  1
  O  O320  1  0.50699386  0.48561919  0.11977719  1
  O  O321  1  0.49531714  0.47866679  0.60354527  1
  O  O322  1  0.24838740  0.37006533  0.23183493  1
  O  O323  1  0.26310493  0.38696206  0.74092567  1
  O  O324  1  0.24414101  0.88580670  0.24372336  1
  O  O325  1  0.22825362  0.87660191  0.77472373  1
  O  O326  1  0.76241662  0.36941404  0.26314710  1
  O  O327  1  0.73630609  0.37534279  0.75751961  1
  O  O328  1  0.74266297  0.89195004  0.24864226  1
  O  O329  1  0.74208929  0.87528431  0.73539060  1
  O  O330  1  0.25381871  0.11249101  0.24951906  1
  O  O331  1  0.26613678  0.12175978  0.75985744  1
  O  O332  1  0.25566190  0.63923457  0.25773354  1
  O  O333  1  0.25137255  0.62689099  0.77060507  1
  O  O334  1  0.76091881  0.11560435  0.25480468  1
  O  O335  1  0.76105185  0.12718116  0.76135323  1
  O  O336  1  0.76188106  0.62269238  0.25740426  1
  O  O337  1  0.75922150  0.63633735  0.76920042  1
  O  O338  1  0.35774736  0.12933601  0.35864098  1
  O  O339  1  0.36769713  0.12894727  0.86320766  1
  O  O340  1  0.38112399  0.61382990  0.36433830  1
  O  O341  1  0.36648203  0.62443028  0.88971770  1
  O  O342  1  0.87724853  0.10929780  0.36280630  1
  O  O343  1  0.86702388  0.11335230  0.86759679  1
  O  O344  1  0.88502656  0.63287008  0.35985669  1
  O  O345  1  0.87450458  0.61659803  0.87043522  1
  O  O346  1  0.12980090  0.38949648  0.11658801  1
  O  O347  1  0.12053620  0.37058189  0.59750910  1
  O  O348  1  0.13930948  0.86545950  0.13219732  1
  O  O349  1  0.12071655  0.86612345  0.64903376  1
  O  O350  1  0.63552640  0.38303306  0.14312010  1
  O  O351  1  0.63916506  0.38313629  0.63366553  1
  O  O352  1  0.62763815  0.88344514  0.12930630  1
  O  O353  1  0.63156670  0.88508075  0.61973804  1
  O  O354  1  0.10929213  0.24145261  0.25074379  1
  O  O355  1  0.11161339  0.25265011  0.75410045  1
  O  O356  1  0.12351021  0.76720663  0.25781165  1
  O  O357  1  0.11855541  0.75121277  0.77072640  1
  O  O358  1  0.64183812  0.26469508  0.24372191  1
  O  O359  1  0.61372198  0.24645304  0.75957198  1
  O  O360  1  0.61962923  0.75848887  0.24182997  1
  O  O361  1  0.60835316  0.73590153  0.76819230  1
  O  O362  1  0.36544308  0.24013218  0.23900128  1
  O  O363  1  0.38657696  0.24390522  0.74286645  1
  O  O364  1  0.37990468  0.74483287  0.24775813  1
  O  O365  1  0.38745866  0.74720283  0.74943974  1
  O  O366  1  0.88349926  0.23907720  0.26439229  1
  O  O367  1  0.88074476  0.23767781  0.74856211  1
  O  O368  1  0.87976371  0.73216475  0.23261064  1
  O  O369  1  0.87727033  0.74338368  0.74191281  1
  O  O370  1  0.38179376  0.49169176  0.48543673  1
  O  O371  1  0.38451369  0.49321595  1.00355441  1
  O  O372  1  0.39246023  1.00707729  0.50250492  1
  O  O373  1  0.38965067  0.98854290  1.00708125  1
  O  O374  1  0.88508148  0.51751949  0.49420581  1
  O  O375  1  0.87200157  0.48264997  0.98723735  1
  O  O376  1  0.87143518  0.99930825  0.47931208  1
  O  O377  1  0.85776297  0.99373871  0.97854386  1
  O  O378  1  0.12925981  0.01564356  -0.00978428  1
  O  O379  1  0.13069895  -0.00570698  0.51909524  1
  O  O380  1  0.12653991  0.51107901  -0.01037906  1
  O  O381  1  0.10613364  0.52140865  0.49768095  1
  O  O382  1  0.61826427  -0.00946910  0.01122043  1
  O  O383  1  0.61601191  0.01405909  0.50844432  1
  O  O384  1  0.61352516  0.49214396  0.01538205  1
  O  O385  1  0.60936557  0.45785160  0.48926871  1
  O  O386  1  0.35480900  0.38397482  0.11298205  1
  O  O387  1  0.37839949  0.35695938  0.61440947  1
  O  O388  1  0.36388565  0.86984343  0.12327490  1
  O  O389  1  0.38963371  0.86235778  0.60365416  1
  O  O390  1  0.88493749  0.38163871  0.10894540  1
  O  O391  1  0.89313290  0.35517189  0.61857708  1
  O  O392  1  0.88151523  0.85675165  0.13369067  1
  O  O393  1  0.86925341  0.86350809  0.63014744  1
  O  O394  1  0.14451556  0.12878305  0.37338836  1
  O  O395  1  0.14012231  0.13391758  0.87446237  1
  O  O396  1  0.11947884  0.63860119  0.38641335  1
  O  O397  1  0.12742254  0.63091884  0.88394508  1
  O  O398  1  0.61672643  0.12953472  0.38768763  1
  O  O399  1  0.63906977  0.12572537  0.86881715  1
  O  O400  1  0.61726034  0.62353586  0.38840598  1
  O  O401  1  0.64083600  0.63818699  0.88599549  1
