# generated using pymatgen
data_V73Zn73O256
_symmetry_space_group_name_H-M   'P 1'
_cell_length_a   16.88355123
_cell_length_b   16.85447539
_cell_length_c   16.87889189
_cell_angle_alpha   89.89742893
_cell_angle_beta   89.93477865
_cell_angle_gamma   89.98619791
_symmetry_Int_Tables_number   1
_chemical_formula_structural   V73Zn73O256
_chemical_formula_sum   'V73 Zn73 O256'
_cell_volume   4803.10389733
_cell_formula_units_Z   1
loop_
 _symmetry_equiv_pos_site_id
 _symmetry_equiv_pos_as_xyz
  1  'x, y, z'
loop_
 _atom_site_type_symbol
 _atom_site_label
 _atom_site_symmetry_multiplicity
 _atom_site_fract_x
 _atom_site_fract_y
 _atom_site_fract_z
 _atom_site_occupancy
  V  V0  1  -0.01467683  -0.01000870  -0.00849294  1
  V  V1  1  0.24013436  0.25564310  0.48006517  1
  V  V2  1  0.24564389  0.36227065  0.63410249  1
  V  V3  1  0.63161143  0.75068199  0.87853231  1
  V  V4  1  0.25031072  0.52154512  0.24337436  1
  V  V5  1  0.12301904  0.36902952  0.26079303  1
  V  V6  1  0.85063934  0.74768497  0.62238513  1
  V  V7  1  0.37168658  0.01009651  0.87409721  1
  V  V8  1  -0.01571269  0.36826435  0.37590165  1
  V  V9  1  0.87640930  0.62134200  0.75275735  1
  V  V10  1  0.37368424  0.37700136  0.50148625  1
  V  V11  1  0.37931780  0.62797202  0.74441267  1
  V  V12  1  0.61143847  0.37692834  0.75311687  1
  V  V13  1  0.61762136  0.24977544  0.40334475  1
  V  V14  1  -0.01646260  0.13123010  0.13376539  1
  V  V15  1  0.00119685  0.86494445  0.37284240  1
  V  V16  1  0.23877049  0.49670681  0.75285540  1
  V  V17  1  0.28713854  0.62845294  0.39620502  1
  V  V18  1  0.74888561  0.50092029  0.76494306  1
  V  V19  1  0.61736595  0.50538903  0.12908887  1
  V  V20  1  0.87501860  0.37602420  0.00268937  1
  V  V21  1  0.84952591  0.88480900  0.49633182  1
  V  V22  1  0.11532698  0.75507254  0.86722252  1
  V  V23  1  -0.00137959  0.37933924  0.87365242  1
  V  V24  1  0.49056635  0.87086613  0.88221816  1
  V  V25  1  0.75292399  -0.01703115  0.75288537  1
  V  V26  1  0.75427536  0.37822257  0.62065763  1
  V  V27  1  0.50916022  0.02855113  0.51635273  1
  V  V28  1  0.87620345  0.63013689  0.27308636  1
  V  V29  1  0.49721911  0.38172757  0.37096818  1
  V  V30  1  0.12269502  0.13534161  0.50209632  1
  V  V31  1  0.12756647  0.25254868  0.86671866  1
  V  V32  1  0.24603728  0.87737686  0.15048712  1
  V  V33  1  0.38688669  0.49316331  0.88119027  1
  V  V34  1  0.38905833  0.37268523  -0.00045525  1
  V  V35  1  -0.00088746  0.49761242  0.00220645  1
  V  V36  1  0.24008549  0.38042106  0.12288096  1
  V  V37  1  -0.01302986  0.00627166  0.49330774  1
  V  V38  1  0.25913981  0.76035642  -0.00276604  1
  V  V39  1  0.74942750  0.37684698  0.13568515  1
  V  V40  1  0.75085992  0.88133496  0.11363517  1
  V  V41  1  0.61914577  0.89318730  0.24259366  1
  V  V42  1  0.74669007  0.12224855  0.87457278  1
  V  V43  1  0.12486376  0.62115094  0.00528360  1
  V  V44  1  0.50729975  0.73434833  0.23971856  1
  V  V45  1  0.74221046  0.13283373  0.37040166  1
  V  V46  1  0.75358872  0.25260934  0.00001023  1
  V  V47  1  0.61703143  0.61492734  0.00063729  1
  V  V48  1  0.12718003  0.50472902  0.60821132  1
  V  V49  1  0.48493601  0.88439222  0.35783611  1
  V  V50  1  0.30271979  -0.03245179  0.69197596  1
  V  V51  1  0.62054532  0.12355386  0.01800846  1
  V  V52  1  0.50040882  0.00101696  0.01263742  1
  V  V53  1  -0.01928365  0.50261854  0.48956009  1
  V  V54  1  0.37358324  0.12240778  0.27603181  1
  V  V55  1  0.09300560  0.88079441  0.74789666  1
  V  V56  1  0.37474895  0.23789941  0.12524419  1
  V  V57  1  0.38058515  0.73842927  0.12646962  1
  V  V58  1  0.20008343  0.06550746  0.33980180  1
  V  V59  1  0.87501960  0.12727056  0.76203496  1
  V  V60  1  -0.00543246  0.12472511  0.62814666  1
  V  V61  1  0.49878634  0.75019157  0.74400836  1
  V  V62  1  0.12450719  0.11739523  0.01048063  1
  V  V63  1  0.76182618  0.01108728  0.24449789  1
  V  V64  1  0.48775809  0.22451002  0.74418752  1
  V  V65  1  0.51211580  0.24841169  0.24725452  1
  V  V66  1  0.24982642  0.62344611  0.87689587  1
  V  V67  1  0.00134635  0.25765788  0.74873181  1
  V  V68  1  0.24993688  0.24320261  -0.00476259  1
  V  V69  1  0.75725028  0.50117711  0.26257928  1
  V  V70  1  -0.01298100  0.63017261  0.12205824  1
  V  V71  1  0.63209169  0.62950750  0.50948781  1
  V  V72  1  0.49686482  0.51082823  0.53005052  1
  Zn  Zn73  1  0.63740388  0.00574877  0.62194908  1
  Zn  Zn74  1  0.75045447  0.73903192  0.00828660  1
  Zn  Zn75  1  0.01064614  0.63488590  0.62056418  1
  Zn  Zn76  1  0.74844532  0.71802361  0.43973737  1
  Zn  Zn77  1  0.60793261  0.25599775  0.87975064  1
  Zn  Zn78  1  0.86983073  0.25522565  0.61283091  1
  Zn  Zn79  1  0.87900444  0.76278727  0.13045852  1
  Zn  Zn80  1  0.13341676  0.00282442  0.62934836  1
  Zn  Zn81  1  0.24252467  0.10321268  0.83215378  1
  Zn  Zn82  1  0.18862113  0.18842664  0.19051996  1
  Zn  Zn83  1  0.32111149  0.16194462  0.66635215  1
  Zn  Zn84  1  0.17318226  0.71006456  0.17882651  1
  Zn  Zn85  1  0.18866701  0.69012781  0.68688446  1
  Zn  Zn86  1  0.80544502  0.19560063  0.18811158  1
  Zn  Zn87  1  0.67587533  0.19467611  0.68038620  1
  Zn  Zn88  1  0.70942936  0.71246685  0.22797096  1
  Zn  Zn89  1  0.68227145  0.67942926  0.69497250  1
  Zn  Zn90  1  0.31821198  0.31712096  0.30746038  1
  Zn  Zn91  1  0.32224237  0.30590826  0.81110524  1
  Zn  Zn92  1  0.31638012  0.79854578  0.31325122  1
  Zn  Zn93  1  0.31325606  0.81850310  0.81016483  1
  Zn  Zn94  1  0.80494226  0.31551232  0.44105837  1
  Zn  Zn95  1  0.81138645  0.31508435  0.81351825  1
  Zn  Zn96  1  0.81750902  0.82507536  0.30693006  1
  Zn  Zn97  1  0.82961912  0.79814448  0.82237565  1
  Zn  Zn98  1  0.19699022  0.44912941  0.42794019  1
  Zn  Zn99  1  0.18678564  0.43500041  0.93911056  1
  Zn  Zn100  1  0.17454097  0.92551199  0.45617203  1
  Zn  Zn101  1  0.18064346  0.93613927  0.93242888  1
  Zn  Zn102  1  0.67320287  0.44346467  0.44333690  1
  Zn  Zn103  1  0.68378460  0.43709053  0.93670343  1
  Zn  Zn104  1  0.67418319  0.94394011  0.41926133  1
  Zn  Zn105  1  0.68036085  0.93821940  0.93229832  1
  Zn  Zn106  1  0.30865697  0.05000410  0.06264480  1
  Zn  Zn107  1  0.31543657  0.02576138  0.51679560  1
  Zn  Zn108  1  0.31544961  0.56076386  0.06106688  1
  Zn  Zn109  1  0.31524676  0.55852549  0.56487416  1
  Zn  Zn110  1  0.81386661  0.05771967  0.05602781  1
  Zn  Zn111  1  0.79217918  0.07987313  0.57495045  1
  Zn  Zn112  1  0.80485861  0.55754003  0.05265179  1
  Zn  Zn113  1  0.80146657  0.55528915  0.56648462  1
  Zn  Zn114  1  0.42932635  0.43548387  0.18863715  1
  Zn  Zn115  1  0.42406389  0.43156553  0.69367098  1
  Zn  Zn116  1  0.41894080  0.93679828  0.18351479  1
  Zn  Zn117  1  0.49535668  0.91689524  0.66202754  1
  Zn  Zn118  1  0.93603317  0.43937591  0.18863222  1
  Zn  Zn119  1  0.93701512  0.44164120  0.68376172  1
  Zn  Zn120  1  0.93743787  0.94615170  0.17438157  1
  Zn  Zn121  1  0.91514073  0.94342176  0.68316744  1
  Zn  Zn122  1  0.03001948  0.01889350  0.28506071  1
  Zn  Zn123  1  0.06201381  0.06562112  0.81698399  1
  Zn  Zn124  1  0.05706184  0.54267001  0.29500452  1
  Zn  Zn125  1  0.05706499  0.56537794  0.80995155  1
  Zn  Zn126  1  0.56060180  0.06886232  0.31141231  1
  Zn  Zn127  1  0.56834166  0.05591584  0.81808104  1
  Zn  Zn128  1  0.57668937  0.56294958  0.31609218  1
  Zn  Zn129  1  0.56695947  0.56475482  0.81277530  1
  Zn  Zn130  1  0.41065747  0.17033515  0.48591757  1
  Zn  Zn131  1  0.43773323  0.18563458  0.93229235  1
  Zn  Zn132  1  0.48314618  0.67978489  0.42292221  1
  Zn  Zn133  1  0.43979538  0.68068855  0.94155228  1
  Zn  Zn134  1  0.93869944  0.19224448  0.43142925  1
  Zn  Zn135  1  0.93926047  0.19038202  0.94240931  1
  Zn  Zn136  1  0.94050700  0.69952934  0.46416694  1
  Zn  Zn137  1  0.93770925  0.68252866  0.93564995  1
  Zn  Zn138  1  0.06233668  0.30528947  0.06146078  1
  Zn  Zn139  1  0.05922236  0.32126504  0.56285274  1
  Zn  Zn140  1  0.07033742  0.81352148  0.06424911  1
  Zn  Zn141  1  0.02089455  0.83344664  0.58472893  1
  Zn  Zn142  1  0.56904976  0.30902527  0.07285514  1
  Zn  Zn143  1  0.55740289  0.32174359  0.57659222  1
  Zn  Zn144  1  0.56872833  0.81372359  0.06318049  1
  Zn  Zn145  1  0.65726114  0.82022908  0.57736369  1
  O  O146  1  0.12312656  0.12848495  0.11293268  1
  O  O147  1  0.10645888  0.12332847  0.61226052  1
  O  O148  1  0.10884458  0.63571154  0.11048683  1
  O  O149  1  0.12611180  0.60946279  0.63234849  1
  O  O150  1  0.62507413  0.12536333  0.11334149  1
  O  O151  1  0.68472029  0.10915511  0.60965562  1
  O  O152  1  0.62556517  0.60943773  0.11520621  1
  O  O153  1  0.62536383  0.62676490  0.61144988  1
  O  O154  1  0.38611764  0.36995419  0.38720535  1
  O  O155  1  0.36941933  0.38619182  0.88206766  1
  O  O156  1  0.38504044  0.87718943  0.36054098  1
  O  O157  1  0.38661322  0.87858156  0.88347792  1
  O  O158  1  0.88464316  0.37118499  0.37336149  1
  O  O159  1  0.88943495  0.36824095  0.88715674  1
  O  O160  1  0.87401772  0.87878268  0.39306090  1
  O  O161  1  0.87934835  0.82425128  0.92452659  1
  O  O162  1  0.24876298  0.00650025  0.41291664  1
  O  O163  1  0.26794098  -0.00543830  0.88624341  1
  O  O164  1  0.24364802  0.53134705  0.35723338  1
  O  O165  1  0.25115722  0.50664188  0.87092998  1
  O  O166  1  0.73457513  0.01705911  0.35224116  1
  O  O167  1  0.74965906  0.01791515  0.87730401  1
  O  O168  1  0.74082137  0.49032529  0.36029132  1
  O  O169  1  0.75638760  0.49557270  0.86487957  1
  O  O170  1  0.25009650  0.48536102  0.12160051  1
  O  O171  1  0.24067029  0.49571990  0.63426734  1
  O  O172  1  0.24384761  0.97539444  0.12103935  1
  O  O173  1  0.24422701  0.97989248  0.60075177  1
  O  O174  1  0.74595675  0.49022380  0.12933088  1
  O  O175  1  0.74800495  0.48571108  0.63985816  1
  O  O176  1  0.75184232  0.99462794  0.13235500  1
  O  O177  1  0.76783956  0.98203179  0.65064131  1
  O  O178  1  0.01252361  0.39004888  0.26229571  1
  O  O179  1  -0.00686712  0.36958216  0.76029633  1
  O  O180  1  -0.00974618  0.90433430  0.27351029  1
  O  O181  1  -0.00660773  0.87747130  0.75134951  1
  O  O182  1  0.48390486  0.36085967  0.26403306  1
  O  O183  1  0.50989771  0.38111406  0.75070863  1
  O  O184  1  0.50474660  0.88138384  0.24435864  1
  O  O185  1  0.49536063  0.85810771  0.76953007  1
  O  O186  1  0.48617191  0.14150855  0.25911036  1
  O  O187  1  0.51003805  0.12698216  0.74815144  1
  O  O188  1  0.51492779  0.63608630  0.24715940  1
  O  O189  1  0.48519751  0.63138817  0.75989793  1
  O  O190  1  1.00126255  0.11552139  0.23247032  1
  O  O191  1  0.99442718  0.13395765  0.74701926  1
  O  O192  1  0.98352500  0.61099701  0.22986118  1
  O  O193  1  0.98334388  0.61429506  0.73484927  1
  O  O194  1  0.36796952  0.25340934  0.00353213  1
  O  O195  1  0.35007795  0.26512187  0.50176406  1
  O  O196  1  0.36338073  0.74952207  -0.00163484  1
  O  O197  1  0.45883214  0.78572167  0.49344539  1
  O  O198  1  0.86542196  0.26077265  0.00086478  1
  O  O199  1  0.86827774  0.24439625  0.50037463  1
  O  O200  1  0.86656807  0.76299388  -0.01873102  1
  O  O201  1  0.84150989  0.76103730  0.50209081  1
  O  O202  1  0.12982995  0.24962004  0.50233558  1
  O  O203  1  0.13160533  0.23903530  0.98981894  1
  O  O204  1  0.20717315  0.78545169  0.55079227  1
  O  O205  1  0.13605879  0.74116849  0.98511080  1
  O  O206  1  0.61458037  0.25068941  0.50154176  1
  O  O207  1  0.63082938  0.24097733  1.00026504  1
  O  O208  1  0.64549513  0.73774075  0.50125164  1
  O  O209  1  0.62685436  0.74106791  0.99296800  1
  O  O210  1  0.48697308  0.25836185  0.13928238  1
  O  O211  1  0.49749009  0.25318264  0.64495787  1
  O  O212  1  0.48630601  0.75994431  0.12467584  1
  O  O213  1  0.50285568  0.75670806  0.64845116  1
  O  O214  1  0.99957812  0.23196795  0.11933193  1
  O  O215  1  0.99882056  0.24753588  0.63442698  1
  O  O216  1  0.99368048  0.73580922  0.11358125  1
  O  O217  1  0.96982218  0.73550896  0.58453136  1
  O  O218  1  0.00634161  0.26995408  0.37894897  1
  O  O219  1  0.00810510  0.25649399  0.87040306  1
  O  O220  1  -0.01440467  0.76646540  0.37988228  1
  O  O221  1  0.01786062  0.74308510  0.87517397  1
  O  O222  1  0.51235752  0.25742376  0.36530515  1
  O  O223  1  0.49281615  0.24831754  0.85391230  1
  O  O224  1  0.49492686  0.76457220  0.34124424  1
  O  O225  1  0.50157503  0.76020744  0.88241215  1
  O  O226  1  0.23427076  0.14929190  0.49995970  1
  O  O227  1  0.24097272  0.13460304  1.00597028  1
  O  O228  1  0.26129208  0.62684133  0.49436567  1
  O  O229  1  0.24277319  0.62880356  0.99232726  1
  O  O230  1  0.77314287  0.11278865  0.46217383  1
  O  O231  1  0.74147591  0.13165133  0.99565915  1
  O  O232  1  0.73295585  0.60646650  0.48815515  1
  O  O233  1  0.73260573  0.62583131  1.00026260  1
  O  O234  1  0.25389125  0.36479714  0.00802731  1
  O  O235  1  0.25041586  0.37224611  0.50507256  1
  O  O236  1  0.24093555  0.85913905  -0.00208591  1
  O  O237  1  0.24550077  0.83802080  0.50495598  1
  O  O238  1  0.75815956  0.37082627  0.00251579  1
  O  O239  1  0.74170834  0.38252954  0.51403825  1
  O  O240  1  0.74240019  0.88038313  0.01211348  1
  O  O241  1  0.74824609  0.89101890  0.49697627  1
  O  O242  1  0.14193399  0.48577204  0.24273309  1
  O  O243  1  0.13593146  0.50142248  0.74953869  1
  O  O244  1  0.14513187  1.00581014  0.28268552  1
  O  O245  1  0.11392388  0.98500116  0.74915292  1
  O  O246  1  0.64516124  0.51048621  0.23806528  1
  O  O247  1  0.63656969  0.49222430  0.75820290  1
  O  O248  1  0.62167905  0.99580943  0.24022187  1
  O  O249  1  0.65042699  1.00014253  0.75800963  1
  O  O250  1  0.37852865  0.02601558  0.24555010  1
  O  O251  1  0.38295156  -0.00317540  0.77440535  1
  O  O252  1  0.35014124  0.49973004  0.23997280  1
  O  O253  1  0.36390985  0.50796289  0.76437655  1
  O  O254  1  0.86015712  0.00512696  0.25066540  1
  O  O255  1  0.86823980  0.01934240  0.75905339  1
  O  O256  1  0.86628029  0.50945776  0.25220327  1
  O  O257  1  0.86543145  0.51221300  0.74385442  1
  O  O258  1  0.13216005  0.37953816  0.36218365  1
  O  O259  1  0.11302064  0.36348947  0.88486085  1
  O  O260  1  0.10055118  0.87373491  0.38786690  1
  O  O261  1  0.12535288  0.86329160  0.86202591  1
  O  O262  1  0.60796580  0.36229254  0.38630066  1
  O  O263  1  0.62962300  0.37123941  0.86068006  1
  O  O264  1  0.61733628  0.87272739  0.34630480  1
  O  O265  1  0.61351015  0.85899034  0.87939215  1
  O  O266  1  0.36378728  0.13675137  0.12278526  1
  O  O267  1  0.36487318  0.11302037  0.57531356  1
  O  O268  1  0.37990866  0.63849230  0.11005333  1
  O  O269  1  0.36896889  0.62083403  0.64668318  1
  O  O270  1  0.87698260  0.13104789  0.12187447  1
  O  O271  1  0.88003149  0.13370014  0.63990649  1
  O  O272  1  0.88429375  0.62878452  0.10703452  1
  O  O273  1  0.85951035  0.63886734  0.62466191  1
  O  O274  1  0.25516861  0.25751541  0.11545249  1
  O  O275  1  0.24502413  0.26280912  0.62895686  1
  O  O276  1  0.26340311  0.74651806  0.10808524  1
  O  O277  1  0.25269954  0.75850454  0.61128867  1
  O  O278  1  0.74991056  0.26654661  0.11638245  1
  O  O279  1  0.75215370  0.27193566  0.63892963  1
  O  O280  1  0.75554023  0.76720281  0.12779036  1
  O  O281  1  0.74770241  0.76073471  0.63460177  1
  O  O282  1  0.24487782  0.26144426  0.38194098  1
  O  O283  1  0.24375741  0.25484982  0.88288772  1
  O  O284  1  0.25361358  0.71818872  0.35994567  1
  O  O285  1  0.24920912  0.74192056  0.88133115  1
  O  O286  1  0.72588346  0.24869766  0.38018248  1
  O  O287  1  0.74797605  0.24586508  0.88916440  1
  O  O288  1  0.73968859  0.74914747  0.33469146  1
  O  O289  1  0.73204229  0.75188711  0.87301671  1
  O  O290  1  0.01250381  0.12110339  0.00213177  1
  O  O291  1  -0.00313726  0.12234021  0.50672816  1
  O  O292  1  0.00467570  0.61645617  0.00152444  1
  O  O293  1  0.00085163  0.60510483  0.50110981  1
  O  O294  1  0.51228591  0.11899915  -0.00373085  1
  O  O295  1  0.51182506  0.12406919  0.47892914  1
  O  O296  1  0.51529451  0.62501957  0.00452991  1
  O  O297  1  0.48971502  0.61277071  0.52326487  1
  O  O298  1  0.49022455  0.38189633  0.49679128  1
  O  O299  1  0.48766205  0.36458403  1.00575383  1
  O  O300  1  0.50180305  0.84497536  0.47136502  1
  O  O301  1  0.50935722  0.88937601  0.99207171  1
  O  O302  1  1.00674749  0.38916183  0.48539517  1
  O  O303  1  0.99508956  0.37912608  0.99777686  1
  O  O304  1  0.98536294  0.89223392  0.48963358  1
  O  O305  1  1.01270636  0.89303023  1.01201359  1
  O  O306  1  0.50610010  0.48118780  0.36452216  1
  O  O307  1  0.48424791  0.50215887  0.87204715  1
  O  O308  1  0.50663145  0.98391960  0.36897046  1
  O  O309  1  0.49506323  0.98851140  0.88113087  1
  O  O310  1  1.00259377  0.49450680  0.38423890  1
  O  O311  1  1.00746624  0.48964043  0.88471890  1
  O  O312  1  0.98375370  1.01419175  0.39356015  1
  O  O313  1  1.00557194  1.00325786  0.89188642  1
  O  O314  1  -0.00489963  0.02006487  0.10759581  1
  O  O315  1  -0.01082905  0.01459466  0.62065115  1
  O  O316  1  -0.00257190  0.50992518  0.11013139  1
  O  O317  1  0.01627518  0.49049489  0.60940565  1
  O  O318  1  0.49455732  -0.00619870  0.11085585  1
  O  O319  1  0.51630837  0.02853854  0.62098737  1
  O  O320  1  0.51949751  0.48718547  0.14052103  1
  O  O321  1  0.49555068  0.49455290  0.62802682  1
  O  O322  1  0.24449239  0.37643661  0.23518681  1
  O  O323  1  0.25814963  0.38175812  0.74079897  1
  O  O324  1  0.25481804  0.87451899  0.25042282  1
  O  O325  1  0.25463192  0.89274288  0.74532355  1
  O  O326  1  0.75844872  0.38620043  0.23669137  1
  O  O327  1  0.74758478  0.38662562  0.74839797  1
  O  O328  1  0.73885440  0.89385241  0.24218348  1
  O  O329  1  0.77278833  0.88838839  0.77932993  1
  O  O330  1  0.25375719  0.12751154  0.26833770  1
  O  O331  1  0.26586248  0.07574199  0.72296233  1
  O  O332  1  0.23887689  0.61809604  0.22055526  1
  O  O333  1  0.25791041  0.62048357  0.76017389  1
  O  O334  1  0.74453131  0.11852140  0.25015726  1
  O  O335  1  0.75742926  0.13124154  0.76702973  1
  O  O336  1  0.76825551  0.61243867  0.24651348  1
  O  O337  1  0.75689316  0.61010258  0.74759268  1
  O  O338  1  0.37249572  0.12749618  0.37484302  1
  O  O339  1  0.36381091  0.11458687  0.87716089  1
  O  O340  1  0.38656354  0.62794569  0.38619143  1
  O  O341  1  0.36543287  0.61160107  0.87657565  1
  O  O342  1  0.85656350  0.16477328  0.34434865  1
  O  O343  1  0.86192938  0.13634866  0.87383939  1
  O  O344  1  0.88369896  0.63149938  0.37095257  1
  O  O345  1  0.87619862  0.63650518  0.85179968  1
  O  O346  1  0.13698238  0.37072987  0.12359204  1
  O  O347  1  0.13887769  0.38843299  0.62237718  1
  O  O348  1  0.14805864  0.82777359  0.14622229  1
  O  O349  1  0.10794721  0.87389710  0.64210567  1
  O  O350  1  0.64183717  0.38662402  0.11844305  1
  O  O351  1  0.63547727  0.37543961  0.64504610  1
  O  O352  1  0.63846223  0.87807854  0.13119159  1
  O  O353  1  0.60542593  0.89466670  0.63737410  1
  O  O354  1  0.12771277  0.26951233  0.24508479  1
  O  O355  1  0.11191111  0.24903928  0.76221985  1
  O  O356  1  0.10763993  0.71587440  0.28447600  1
  O  O357  1  0.12917077  0.76047408  0.75898908  1
  O  O358  1  0.60812287  0.25107568  0.23948594  1
  O  O359  1  0.61182534  0.26012838  0.75229540  1
  O  O360  1  0.60711616  0.76559530  0.22580938  1
  O  O361  1  0.60714490  0.73310504  0.76870078  1
  O  O362  1  0.37129492  0.23660837  0.24306345  1
  O  O363  1  0.37697427  0.23119274  0.74482652  1
  O  O364  1  0.38507310  0.74068991  0.23179019  1
  O  O365  1  0.38106022  0.73611683  0.76034834  1
  O  O366  1  0.86999629  0.21739549  0.28368444  1
  O  O367  1  0.88808409  0.24441522  0.75547504  1
  O  O368  1  0.87671238  0.73181275  0.24652708  1
  O  O369  1  0.87137477  0.73942244  0.73080526  1
  O  O370  1  0.38647997  0.48931015  0.50398019  1
  O  O371  1  0.37135003  0.48952677  0.98876049  1
  O  O372  1  0.42040602  0.98044436  0.49674834  1
  O  O373  1  0.39369736  1.00933328  0.99234877  1
  O  O374  1  0.88241605  0.49911444  0.50217364  1
  O  O375  1  0.88516712  0.48885290  0.99765937  1
  O  O376  1  0.87635097  0.99173791  0.51439528  1
  O  O377  1  0.88404438  0.99622026  0.99233333  1
  O  O378  1  0.12843763  0.01661660  -0.00436350  1
  O  O379  1  0.09978542  0.00634074  0.50831072  1
  O  O380  1  0.11771414  0.51236525  -0.00545780  1
  O  O381  1  0.13564534  0.50624512  0.50850335  1
  O  O382  1  0.61472637  0.01448198  -0.00515875  1
  O  O383  1  0.60394961  -0.01460439  0.49646505  1
  O  O384  1  0.62611882  0.50576680  0.00915002  1
  O  O385  1  0.60113653  0.50812276  0.50340129  1
  O  O386  1  0.36332634  0.36508073  0.11653794  1
  O  O387  1  0.35514580  0.38066714  0.61600161  1
  O  O388  1  0.35430607  0.85850363  0.12766809  1
  O  O389  1  0.38168253  0.92198957  0.64824933  1
  O  O390  1  0.86443097  0.38115087  0.11530756  1
  O  O391  1  0.86186578  0.37570316  0.62721226  1
  O  O392  1  0.85901000  0.87732357  0.13062611  1
  O  O393  1  0.88029018  0.85935322  0.60804168  1
  O  O394  1  0.12621751  0.11968536  0.38979713  1
  O  O395  1  0.13726334  0.13382176  0.87765598  1
  O  O396  1  0.10545856  0.65805299  0.33294585  1
  O  O397  1  0.13337986  0.63383973  0.87609306  1
  O  O398  1  0.63188314  0.14074718  0.37069865  1
  O  O399  1  0.63909413  0.13334207  0.87889540  1
  O  O400  1  0.58999914  0.63138238  0.40506425  1
  O  O401  1  0.61776107  0.63473542  0.88882142  1
