# generated using pymatgen
data_V73Zn73O256
_symmetry_space_group_name_H-M   'P 1'
_cell_length_a   17.01416004
_cell_length_b   16.90811769
_cell_length_c   16.95929248
_cell_angle_alpha   90.15949149
_cell_angle_beta   89.73469345
_cell_angle_gamma   90.54940712
_symmetry_Int_Tables_number   1
_chemical_formula_structural   V73Zn73O256
_chemical_formula_sum   'V73 Zn73 O256'
_cell_volume   4878.51060879
_cell_formula_units_Z   1
loop_
 _symmetry_equiv_pos_site_id
 _symmetry_equiv_pos_as_xyz
  1  'x, y, z'
loop_
 _atom_site_type_symbol
 _atom_site_label
 _atom_site_symmetry_multiplicity
 _atom_site_fract_x
 _atom_site_fract_y
 _atom_site_fract_z
 _atom_site_occupancy
  V  V0  1  0.12911796  0.38604109  0.24435291  1
  V  V1  1  0.62820899  0.49061060  0.62333514  1
  V  V2  1  0.24604104  0.62485257  0.86703341  1
  V  V3  1  0.12387019  0.74623997  0.36242553  1
  V  V4  1  0.23930707  0.88203791  0.12447329  1
  V  V5  1  0.48036195  0.25531197  0.24809123  1
  V  V6  1  0.86870039  0.49926405  0.35444601  1
  V  V7  1  0.12732910  0.50628564  0.12304369  1
  V  V8  1  0.76081044  0.74439319  0.51339685  1
  V  V9  1  0.48625468  0.01066699  0.49928170  1
  V  V10  1  0.86328434  0.35035797  -0.00910775  1
  V  V11  1  0.88727308  0.88115608  0.02767432  1
  V  V12  1  0.12865498  0.88654303  0.74925892  1
  V  V13  1  0.37710242  0.38254844  0.51272978  1
  V  V14  1  0.37281925  0.88126963  0.48971178  1
  V  V15  1  0.25583147  0.11011265  0.86185913  1
  V  V16  1  -0.02207656  0.74467671  0.24685327  1
  V  V17  1  0.25033586  0.61832768  0.36344515  1
  V  V18  1  0.00217219  0.87209208  0.37401399  1
  V  V19  1  0.01982027  0.00920828  0.00427180  1
  V  V20  1  -0.00510616  0.37713793  0.37509527  1
  V  V21  1  0.62375180  0.63119692  0.49489417  1
  V  V22  1  0.13738555  0.24559771  0.89433055  1
  V  V23  1  0.88517925  -0.00261234  0.37485323  1
  V  V24  1  0.13180788  0.25441544  0.37139851  1
  V  V25  1  0.62664295  0.11832746  0.50190866  1
  V  V26  1  0.73936349  0.86830499  0.13514976  1
  V  V27  1  0.87725572  0.12474644  0.23496096  1
  V  V28  1  0.11651949  0.35945226  0.75169637  1
  V  V29  1  0.25543971  0.37663241  0.11160086  1
  V  V30  1  -0.00378962  0.25361915  0.24030983  1
  V  V31  1  0.52628118  0.88952943  0.37054482  1
  V  V32  1  0.61604484  0.49980267  0.13302022  1
  V  V33  1  0.38231909  0.22825507  0.62136609  1
  V  V34  1  0.24854959  0.74802094  0.49761036  1
  V  V35  1  0.37429055  0.50571667  0.37203935  1
  V  V36  1  0.74726603  -0.00701024  0.25096004  1
  V  V37  1  -0.01508744  0.62712543  0.12593631  1
  V  V38  1  0.24486109  0.11780671  0.36673238  1
  V  V39  1  -0.00568073  0.63321230  0.63600796  1
  V  V40  1  0.63548835  0.12762922  0.00982651  1
  V  V41  1  0.11900984  0.62877832  -0.00542662  1
  V  V42  1  0.50006697  0.37995329  0.38128127  1
  V  V43  1  0.52693136  0.74760722  0.26934493  1
  V  V44  1  0.03154135  0.13003549  0.11889860  1
  V  V45  1  0.87571809  0.87279819  0.50977228  1
  V  V46  1  0.10574516  -0.00505683  0.61081621  1
  V  V47  1  -0.00614750  0.88382878  0.87232081  1
  V  V48  1  0.86078082  0.63361515  0.75787910  1
  V  V49  1  0.24893187  0.88611320  0.62141943  1
  V  V50  1  0.74208867  0.00430233  0.72062552  1
  V  V51  1  0.75534086  0.74757166  -0.00927134  1
  V  V52  1  0.49935983  0.62236439  0.61632128  1
  V  V53  1  0.51795826  0.75987908  0.75650353  1
  V  V54  1  0.37927131  0.73841332  0.15668516  1
  V  V55  1  0.38278051  0.75508286  0.61701056  1
  V  V56  1  0.76561670  0.12255669  0.87318765  1
  V  V57  1  0.63074203  0.25769870  0.37794819  1
  V  V58  1  0.75168336  0.12345216  0.37335973  1
  V  V59  1  0.23842426  0.35669671  0.61238055  1
  V  V60  1  0.37182491  0.63145381  0.74345045  1
  V  V61  1  0.10611885  0.16492322  0.53336039  1
  V  V62  1  0.79117718  0.34311417  0.61469995  1
  V  V63  1  0.12868097  0.49751248  0.62862214  1
  V  V64  1  0.25629776  0.75139164  -0.00054671  1
  V  V65  1  -0.01121897  0.49490866  -0.01395580  1
  V  V66  1  0.75408838  0.62594596  0.36205575  1
  V  V67  1  0.61198396  0.62162391  -0.00360448  1
  V  V68  1  0.26516815  0.48280750  0.75894811  1
  V  V69  1  0.11573400  0.75438226  0.86465048  1
  V  V70  1  0.48056469  0.10867915  0.14397535  1
  V  V71  1  0.12244446  0.62345290  0.50068170  1
  V  V72  1  -0.01186191  0.49801711  0.50306453  1
  Zn  Zn73  1  0.83802753  0.50148719  0.87688347  1
  Zn  Zn74  1  0.74548202  0.48251263  0.74609025  1
  Zn  Zn75  1  0.96338638  0.18579066  0.68995127  1
  Zn  Zn76  1  0.75213205  0.38366411  0.11969415  1
  Zn  Zn77  1  0.40495494  0.88940958  0.96696630  1
  Zn  Zn78  1  0.60248666  0.99110294  0.13926156  1
  Zn  Zn79  1  0.40536133  0.46394074  0.90668260  1
  Zn  Zn80  1  0.53054882  0.35206066  0.85300432  1
  Zn  Zn81  1  0.51389988  0.11056448  0.66333344  1
  Zn  Zn82  1  0.20705178  0.19804710  0.19025595  1
  Zn  Zn83  1  0.19260262  0.17492967  0.69483619  1
  Zn  Zn84  1  0.18727747  0.68249332  0.18128638  1
  Zn  Zn85  1  0.18496082  0.69047222  0.68640295  1
  Zn  Zn86  1  0.66008864  0.19926049  0.18429927  1
  Zn  Zn87  1  0.70523828  0.18140827  0.67854352  1
  Zn  Zn88  1  0.68912707  0.68366683  0.17864692  1
  Zn  Zn89  1  0.68600473  0.68481250  0.68585916  1
  Zn  Zn90  1  0.30948962  0.33046164  0.31231238  1
  Zn  Zn91  1  0.32004468  0.30532824  0.80948505  1
  Zn  Zn92  1  0.30692605  0.83509244  0.29979174  1
  Zn  Zn93  1  0.30438804  0.80980660  0.80788835  1
  Zn  Zn94  1  0.81668805  0.30865217  0.31729617  1
  Zn  Zn95  1  0.81387333  0.31040319  0.80153588  1
  Zn  Zn96  1  0.80919883  0.81112037  0.32037661  1
  Zn  Zn97  1  0.82099005  0.81490684  0.81146873  1
  Zn  Zn98  1  0.18454522  0.43747622  0.43746841  1
  Zn  Zn99  1  0.18024045  0.43795732  0.93512683  1
  Zn  Zn100  1  0.18339794  0.93370162  0.43189703  1
  Zn  Zn101  1  0.19320237  0.93581021  0.93983948  1
  Zn  Zn102  1  0.69375862  0.43907167  0.45331339  1
  Zn  Zn103  1  0.67390113  0.41580933  0.94928703  1
  Zn  Zn104  1  0.66297196  0.90747634  0.49332118  1
  Zn  Zn105  1  0.69731660  0.94946448  0.96063761  1
  Zn  Zn106  1  0.33007955  0.05030702  0.05118851  1
  Zn  Zn107  1  0.29215480  0.07560851  0.53161326  1
  Zn  Zn108  1  0.34451545  0.53362596  0.09063831  1
  Zn  Zn109  1  0.31042296  0.56087589  0.56242684  1
  Zn  Zn110  1  0.81455389  0.05925697  0.05564539  1
  Zn  Zn111  1  0.82660247  0.07143320  0.54921790  1
  Zn  Zn112  1  0.80261533  0.56035821  0.06381481  1
  Zn  Zn113  1  0.81066459  0.56367225  0.56840394  1
  Zn  Zn114  1  0.44648748  0.43782180  0.19402876  1
  Zn  Zn115  1  0.46924740  0.45711499  0.73124880  1
  Zn  Zn116  1  0.42348336  0.91594373  0.19384309  1
  Zn  Zn117  1  0.42593605  0.93934163  0.78514157  1
  Zn  Zn118  1  0.93463242  0.43429128  0.17327595  1
  Zn  Zn119  1  0.93444903  0.44357436  0.69859851  1
  Zn  Zn120  1  0.97197893  0.94952629  0.20063308  1
  Zn  Zn121  1  0.95212116  0.98784311  0.72164878  1
  Zn  Zn122  1  0.07302993  0.06090699  0.30554915  1
  Zn  Zn123  1  0.05591707  0.09336469  0.83516208  1
  Zn  Zn124  1  0.05628946  0.56453101  0.31113344  1
  Zn  Zn125  1  0.06735721  0.55583554  0.80695766  1
  Zn  Zn126  1  0.56083782  0.07519245  0.30217162  1
  Zn  Zn127  1  0.60675850  -0.02250758  0.83380335  1
  Zn  Zn128  1  0.56325874  0.55842866  0.31756196  1
  Zn  Zn129  1  0.60803363  0.52878155  0.84260522  1
  Zn  Zn130  1  0.42674696  0.19574836  0.43810492  1
  Zn  Zn131  1  0.47012403  0.08110974  0.94073884  1
  Zn  Zn132  1  0.44235097  0.69273160  0.42466883  1
  Zn  Zn133  1  0.41375584  0.63843102  0.96034397  1
  Zn  Zn134  1  0.95105840  0.17796203  0.42835457  1
  Zn  Zn135  1  0.92680805  0.21503311  0.87097769  1
  Zn  Zn136  1  0.93494592  0.68235395  0.43757886  1
  Zn  Zn137  1  0.92897050  0.69385651  0.93623581  1
  Zn  Zn138  1  0.05909028  0.31867325  0.05771599  1
  Zn  Zn139  1  -0.02088922  0.30554033  0.56568699  1
  Zn  Zn140  1  0.06080337  0.80761873  0.06142295  1
  Zn  Zn141  1  0.05908964  0.81318795  0.55993356  1
  Zn  Zn142  1  0.57548249  0.30882279  0.05650822  1
  Zn  Zn143  1  0.55406924  0.30092486  0.56524031  1
  Zn  Zn144  1  0.56628871  0.80116743  -0.04907241  1
  Zn  Zn145  1  0.56398688  0.91849126  0.65311319  1
  O  O146  1  0.12863186  0.13250660  0.13108248  1
  O  O147  1  0.13132541  0.10149478  0.62352408  1
  O  O148  1  0.11348142  0.62360663  0.11185220  1
  O  O149  1  0.11860232  0.61732661  0.61890965  1
  O  O150  1  0.59480665  0.10511845  0.18385393  1
  O  O151  1  0.62528008  0.13140625  0.60468297  1
  O  O152  1  0.63725021  0.61339657  0.10907701  1
  O  O153  1  0.61650262  0.62520143  0.61117560  1
  O  O154  1  0.37681576  0.38639448  0.39052765  1
  O  O155  1  0.32741130  0.42124238  0.82723706  1
  O  O156  1  0.36363843  0.86654355  0.39227412  1
  O  O157  1  0.36853840  0.88420109  0.85954289  1
  O  O158  1  0.88441957  0.38555241  0.37035651  1
  O  O159  1  0.86291748  0.38278012  0.88843655  1
  O  O160  1  0.88524446  0.88073676  0.37438695  1
  O  O161  1  0.89476806  0.87853576  0.88039472  1
  O  O162  1  0.22419408  0.01821847  0.37096965  1
  O  O163  1  0.25170029  0.01061934  0.87922761  1
  O  O164  1  0.26153986  0.50524167  0.38298938  1
  O  O165  1  0.22668721  0.51922336  0.86374689  1
  O  O166  1  0.76895921  0.00550405  0.36107182  1
  O  O167  1  0.71802262  0.01989701  0.86581583  1
  O  O168  1  0.76602565  0.49900724  0.37843589  1
  O  O169  1  0.71952701  0.47789893  0.86122605  1
  O  O170  1  0.22763970  0.51030628  0.12040730  1
  O  O171  1  0.23960960  0.49752862  0.63223289  1
  O  O172  1  0.25926813  0.97909229  0.10249184  1
  O  O173  1  0.24520685  0.98599739  0.60738161  1
  O  O174  1  0.73845207  0.49741346  0.12541765  1
  O  O175  1  0.73464016  0.50143696  0.62622053  1
  O  O176  1  0.76169642  0.99040516  0.14394697  1
  O  O177  1  0.76072406  1.01393073  0.62312602  1
  O  O178  1  0.00207671  0.37062146  0.25093840  1
  O  O179  1  0.02002726  0.38120246  0.74281982  1
  O  O180  1  -0.00503375  0.85026309  0.26161306  1
  O  O181  1  0.00751400  0.89007827  0.76896111  1
  O  O182  1  0.49952160  0.37193427  0.27287013  1
  O  O183  1  0.50252559  0.35118445  0.74577908  1
  O  O184  1  0.50859413  0.87000483  0.26624355  1
  O  O185  1  0.49826420  0.86420569  0.73279410  1
  O  O186  1  0.47492048  0.14713899  0.25634278  1
  O  O187  1  0.56217505  0.17548884  0.76307162  1
  O  O188  1  0.50133820  0.65151348  0.29707459  1
  O  O189  1  0.48538255  0.64998424  0.73160985  1
  O  O190  1  0.99702184  0.13418671  0.23283295  1
  O  O191  1  0.98654300  0.09215440  0.74974447  1
  O  O192  1  1.00003913  0.63182125  0.23575166  1
  O  O193  1  1.00192392  0.61969143  0.73785038  1
  O  O194  1  0.40304209  0.29488723  -0.03772298  1
  O  O195  1  0.37209257  0.26661869  0.51612166  1
  O  O196  1  0.35298224  0.73469632  -0.01310988  1
  O  O197  1  0.36536640  0.75461777  0.50136813  1
  O  O198  1  0.89171158  0.25557646  -0.02318534  1
  O  O199  1  0.89845397  0.21769964  0.52487722  1
  O  O200  1  0.87275237  0.77443317  0.00123372  1
  O  O201  1  0.86944691  0.75483692  0.49692437  1
  O  O202  1  0.11512144  0.25992211  0.47346734  1
  O  O203  1  0.13405413  0.26316327  0.99239904  1
  O  O204  1  0.12820353  0.73800611  0.49275289  1
  O  O205  1  0.12654332  0.74349308  0.98711834  1
  O  O206  1  0.60993931  0.23158826  0.48478083  1
  O  O207  1  0.64733761  0.21478211  1.06730215  1
  O  O208  1  0.64926715  0.73185598  0.49250394  1
  O  O209  1  0.64960629  0.73854122  1.00563241  1
  O  O210  1  0.50723604  0.25981272  0.14910384  1
  O  O211  1  0.48744684  0.22142648  0.62120040  1
  O  O212  1  0.48266510  0.74795882  0.17049759  1
  O  O213  1  0.48445862  0.74780172  0.62027603  1
  O  O214  1  1.00893098  0.24028113  0.12881564  1
  O  O215  1  1.04538931  0.22354751  0.60559978  1
  O  O216  1  1.00132081  0.73934182  0.13651705  1
  O  O217  1  1.00670495  0.73142469  0.62181289  1
  O  O218  1  0.00569539  0.26110487  0.36193980  1
  O  O219  1  0.04008297  0.21802164  0.86902801  1
  O  O220  1  0.00353686  0.74331104  0.36190768  1
  O  O221  1  0.00874739  0.77076894  0.88522205  1
  O  O222  1  0.49615109  0.26285611  0.37368178  1
  O  O223  1  0.42187366  0.28733916  0.88198921  1
  O  O224  1  0.50239399  0.77794886  0.37609087  1
  O  O225  1  0.50628311  0.75459995  0.85446500  1
  O  O226  1  0.20068870  0.13243797  0.48935824  1
  O  O227  1  0.30697832  0.13978239  0.96673521  1
  O  O228  1  0.23758515  0.62931236  0.49572016  1
  O  O229  1  0.22884387  0.63475407  0.98389647  1
  O  O230  1  0.73686231  0.11444890  0.48382785  1
  O  O231  1  0.74760035  0.12066210  0.98507149  1
  O  O232  1  0.75211358  0.63092333  0.49621525  1
  O  O233  1  0.77430859  0.64862606  0.99604496  1
  O  O234  1  0.24647033  0.38960533  0.01223851  1
  O  O235  1  0.25292454  0.37863265  0.50873195  1
  O  O236  1  0.25526599  0.85660500  -0.00415654  1
  O  O237  1  0.25035654  0.86508999  0.50165256  1
  O  O238  1  0.75989482  0.35495299  0.00166824  1
  O  O239  1  0.75775785  0.37853895  0.52598429  1
  O  O240  1  0.76886437  0.88033127  0.02471012  1
  O  O241  1  0.76671290  0.85491806  0.48988277  1
  O  O242  1  0.10740993  0.49465700  0.23592756  1
  O  O243  1  0.13788456  0.48735004  0.74329241  1
  O  O244  1  0.07967665  0.97958675  0.23325468  1
  O  O245  1  0.12708969  0.98673056  0.73383961  1
  O  O246  1  0.61989068  0.50970123  0.23480621  1
  O  O247  1  0.62227078  0.50769043  0.72666158  1
  O  O248  1  0.64898966  0.99045440  0.26029451  1
  O  O249  1  0.64013748  0.97820200  0.72343560  1
  O  O250  1  0.33989230  -0.05637473  0.26494291  1
  O  O251  1  0.46371473  0.04561282  0.76330971  1
  O  O252  1  0.37782929  0.49853492  0.27378582  1
  O  O253  1  0.36913739  0.52303237  0.72781655  1
  O  O254  1  0.88183773  0.01067461  0.25744091  1
  O  O255  1  0.84268065  -0.02709280  0.76228312  1
  O  O256  1  0.87729175  0.49596381  0.25609832  1
  O  O257  1  0.86486689  0.50950433  0.75698892  1
  O  O258  1  0.11407106  0.37728761  0.36288481  1
  O  O259  1  0.13378173  0.35971458  0.85995864  1
  O  O260  1  0.11281098  0.85646859  0.38237064  1
  O  O261  1  0.12387748  0.87186607  0.86636934  1
  O  O262  1  0.61823077  0.36361678  0.39622456  1
  O  O263  1  0.58673190  0.34082745  0.94665433  1
  O  O264  1  0.62356768  0.88554026  0.38533617  1
  O  O265  1  0.61395903  0.89388936  0.90672980  1
  O  O266  1  0.38314976  0.12138627  0.12848114  1
  O  O267  1  0.35611778  0.13126969  0.60966215  1
  O  O268  1  0.36527240  0.64230766  0.12454424  1
  O  O269  1  0.37898365  0.63674288  0.61905794  1
  O  O270  1  0.86803420  0.12567591  0.13554802  1
  O  O271  1  0.89993286  0.15400089  0.58281182  1
  O  O272  1  0.88814526  0.62201640  0.12021350  1
  O  O273  1  0.88950586  0.61753047  0.63739176  1
  O  O274  1  0.25688862  0.27731234  0.12604909  1
  O  O275  1  0.23540582  0.25628231  0.61520677  1
  O  O276  1  0.24585868  0.74782327  0.10673749  1
  O  O277  1  0.24897549  0.75299927  0.60782883  1
  O  O278  1  0.75058324  0.27405929  0.18130482  1
  O  O279  1  0.76874087  0.24449298  0.61305974  1
  O  O280  1  0.75409247  0.76568773  0.12288593  1
  O  O281  1  0.75667349  0.74238509  0.61198388  1
  O  O282  1  0.23245272  0.26234449  0.36768946  1
  O  O283  1  0.23992935  0.24072563  0.86329627  1
  O  O284  1  0.23995546  0.74020132  0.38518562  1
  O  O285  1  0.23477018  0.74293520  0.87747359  1
  O  O286  1  0.73785814  0.24215061  0.37340655  1
  O  O287  1  0.74907067  0.22142785  0.85234492  1
  O  O288  1  0.76117245  0.72834955  0.38182850  1
  O  O289  1  0.75525411  0.77338846  0.89354907  1
  O  O290  1  0.01580569  0.11785195  0.01180638  1
  O  O291  1  0.03546364  0.11804772  0.48174837  1
  O  O292  1  0.00302946  0.62694538  0.00649849  1
  O  O293  1  0.00696722  0.61745327  0.50725810  1
  O  O294  1  0.51751000  0.12574136  0.04379979  1
  O  O295  1  0.50412407  0.11438464  0.48218372  1
  O  O296  1  0.51524722  0.64426401  0.00338882  1
  O  O297  1  0.51607645  0.63744441  0.50039930  1
  O  O298  1  0.48291722  0.37213517  0.49857488  1
  O  O299  1  0.42187090  0.36437703  0.99095049  1
  O  O300  1  0.48841117  0.89759803  0.48188277  1
  O  O301  1  0.47884162  0.82535740  1.01553518  1
  O  O302  1  1.00371990  0.38472182  0.48341977  1
  O  O303  1  0.99113306  0.39164815  1.00013564  1
  O  O304  1  0.98575227  0.85807511  0.48357435  1
  O  O305  1  0.99741143  0.88500623  1.00001524  1
  O  O306  1  0.48752396  0.49275987  0.38167769  1
  O  O307  1  0.50305180  0.47559132  0.84546864  1
  O  O308  1  0.50452010  0.99554994  0.37304548  1
  O  O309  1  0.51353078  1.04798552  0.83432139  1
  O  O310  1  0.98763559  0.49692274  0.38030513  1
  O  O311  1  1.00554992  0.50454924  0.88789842  1
  O  O312  1  0.99436044  0.98701664  0.37078624  1
  O  O313  1  1.01045495  0.99284989  0.89389886  1
  O  O314  1  0.00087092  0.02258898  0.11441037  1
  O  O315  1  0.00690887  -0.01046209  0.61970502  1
  O  O316  1  0.00359412  0.51389456  0.11248836  1
  O  O317  1  0.01129405  0.50619091  0.61869536  1
  O  O318  1  0.48579075  0.00335785  0.15321478  1
  O  O319  1  0.49952808  0.00858948  0.60399754  1
  O  O320  1  0.51224369  0.49697682  0.12332021  1
  O  O321  1  0.50452352  0.51968257  0.63022880  1
  O  O322  1  0.23226368  0.38344654  0.24153171  1
  O  O323  1  0.23516447  0.37502429  0.72612537  1
  O  O324  1  0.23147235  0.87695054  0.22798806  1
  O  O325  1  0.23984681  0.86924331  0.73067921  1
  O  O326  1  0.74301310  0.33972524  0.23550078  1
  O  O327  1  0.76005535  0.36724983  0.71397192  1
  O  O328  1  0.76461859  0.88209826  0.24313333  1
  O  O329  1  0.79342317  0.90344477  0.74020455  1
  O  O330  1  0.25834418  0.13719974  0.26839636  1
  O  O331  1  0.26099444  0.11696199  0.76106208  1
  O  O332  1  0.23909779  0.62128037  0.26523250  1
  O  O333  1  0.25204215  0.61857538  0.75013123  1
  O  O334  1  0.76078022  0.11266751  0.25921450  1
  O  O335  1  0.74948871  0.10616239  0.75090299  1
  O  O336  1  0.74706011  0.62652844  0.26423948  1
  O  O337  1  0.75988593  0.62356511  0.74608825  1
  O  O338  1  0.33610432  0.13122787  0.41133808  1
  O  O339  1  0.36125620  0.13540079  0.90203768  1
  O  O340  1  0.36431506  0.61250077  0.39028233  1
  O  O341  1  0.35741322  0.63595812  0.85316179  1
  O  O342  1  0.87205125  0.11757878  0.37061381  1
  O  O343  1  0.86340357  0.11204051  0.87551666  1
  O  O344  1  0.86805604  0.60767105  0.37500303  1
  O  O345  1  0.87864198  0.62185784  0.86156793  1
  O  O346  1  0.13051769  0.38699742  0.12646921  1
  O  O347  1  0.13111083  0.38397955  0.62409266  1
  O  O348  1  0.14053427  0.86909400  0.10901923  1
  O  O349  1  0.12779866  0.87788958  0.62876739  1
  O  O350  1  0.63059791  0.39332549  0.11431773  1
  O  O351  1  0.60965303  0.39212773  0.61006729  1
  O  O352  1  0.64239432  0.87937052  0.13023720  1
  O  O353  1  0.62815561  0.86106456  0.58670717  1
  O  O354  1  0.11444758  0.26787594  0.25169795  1
  O  O355  1  0.12501800  0.25921124  0.74008151  1
  O  O356  1  0.12338908  0.73952555  0.26148187  1
  O  O357  1  0.12515504  0.76098033  0.75784114  1
  O  O358  1  0.60482279  0.24951527  0.27821136  1
  O  O359  1  0.61421229  0.22893291  0.74929991  1
  O  O360  1  0.62448718  0.74608194  0.25294831  1
  O  O361  1  0.61552148  0.75393802  0.73996190  1
  O  O362  1  0.38180494  0.27327921  0.24840205  1
  O  O363  1  0.36010827  0.25144715  0.71647243  1
  O  O364  1  0.35103636  0.73998586  0.25363621  1
  O  O365  1  0.36293628  0.74453972  0.72861738  1
  O  O366  1  0.89083781  0.23887782  0.25870490  1
  O  O367  1  0.90334974  0.24938659  0.76460442  1
  O  O368  1  0.88096576  0.74126830  0.25302112  1
  O  O369  1  0.87396529  0.73419234  0.75235836  1
  O  O370  1  0.37275421  0.48812386  0.49926498  1
  O  O371  1  0.36871660  0.53626146  0.98160004  1
  O  O372  1  0.37981551  0.99756260  0.49841231  1
  O  O373  1  0.40757213  0.99931624  0.98791870  1
  O  O374  1  0.88810528  0.50413247  0.50255787  1
  O  O375  1  0.88477919  0.50900157  0.99101444  1
  O  O376  1  0.87046509  0.98452201  0.48495829  1
  O  O377  1  0.88896893  0.98607020  1.00603199  1
  O  O378  1  0.11643630  -0.00674158  0.00589274  1
  O  O379  1  0.11729957  -0.01887145  0.51297847  1
  O  O380  1  0.10971166  0.51050673  0.00298508  1
  O  O381  1  0.11777709  0.50826393  0.50613537  1
  O  O382  1  0.63883534  0.02308397  0.03372666  1
  O  O383  1  0.61044831  0.01434434  0.49365011  1
  O  O384  1  0.62332807  0.51536749  0.00351150  1
  O  O385  1  0.63052282  0.51747034  0.51220334  1
  O  O386  1  0.35005703  0.41844806  0.13145456  1
  O  O387  1  0.35379002  0.37537821  0.61567202  1
  O  O388  1  0.35750746  0.84294867  0.12636416  1
  O  O389  1  0.36125268  0.86610401  0.60834298  1
  O  O390  1  0.87351425  0.37590660  0.09905667  1
  O  O391  1  0.89552410  0.36374949  0.62013986  1
  O  O392  1  0.89499105  0.88071988  0.12684170  1
  O  O393  1  0.88197531  0.88029178  0.60449450  1
  O  O394  1  0.12702581  0.14957546  0.35264405  1
  O  O395  1  0.15130545  0.12869237  0.88819047  1
  O  O396  1  0.12834002  0.62512006  0.38357130  1
  O  O397  1  0.12249676  0.63657780  0.87451660  1
  O  O398  1  0.63539105  0.13193192  0.37771221  1
  O  O399  1  0.60361082  0.14354823  0.91887595  1
  O  O400  1  0.64551371  0.60781113  0.38917449  1
  O  O401  1  0.63149002  0.62663178  0.89557117  1
