# generated using pymatgen
data_V73Zn73O256
_symmetry_space_group_name_H-M   'P 1'
_cell_length_a   16.84287382
_cell_length_b   16.86441168
_cell_length_c   16.83939149
_cell_angle_alpha   90.01231182
_cell_angle_beta   90.06932006
_cell_angle_gamma   90.12094233
_symmetry_Int_Tables_number   1
_chemical_formula_structural   V73Zn73O256
_chemical_formula_sum   'V73 Zn73 O256'
_cell_volume   4783.13334545
_cell_formula_units_Z   1
loop_
 _symmetry_equiv_pos_site_id
 _symmetry_equiv_pos_as_xyz
  1  'x, y, z'
loop_
 _atom_site_type_symbol
 _atom_site_label
 _atom_site_symmetry_multiplicity
 _atom_site_fract_x
 _atom_site_fract_y
 _atom_site_fract_z
 _atom_site_occupancy
  V  V0  1  0.12816161  0.49886433  0.62975214  1
  V  V1  1  0.74161393  -0.01142042  0.74017581  1
  V  V2  1  0.62722470  0.13619967  0.48514331  1
  V  V3  1  0.86918251  0.37465546  0.49669655  1
  V  V4  1  0.50695759  0.36886051  0.37081512  1
  V  V5  1  0.37959528  0.50715468  0.37903477  1
  V  V6  1  0.25295482  0.88395065  0.62165711  1
  V  V7  1  0.24554473  0.63480881  0.36934521  1
  V  V8  1  0.60642125  0.86111124  0.74394154  1
  V  V9  1  0.61512186  0.87707754  0.24438756  1
  V  V10  1  0.37911561  0.24802725  0.63130301  1
  V  V11  1  0.71349191  0.12201966  0.86829198  1
  V  V12  1  0.13141281  0.75494900  0.88081879  1
  V  V13  1  0.76234497  0.63284418  0.36123657  1
  V  V14  1  -0.01190235  0.87645894  0.87430904  1
  V  V15  1  0.86312229  0.24084220  0.61643149  1
  V  V16  1  0.00801799  0.37351468  0.36533067  1
  V  V17  1  0.87865116  0.61653823  0.74140276  1
  V  V18  1  0.50538034  0.51300267  0.00200461  1
  V  V19  1  0.62994977  0.51042060  0.11798983  1
  V  V20  1  0.51096619  0.37174914  0.87915239  1
  V  V21  1  0.75877343  0.62058207  0.89005433  1
  V  V22  1  0.13209175  -0.01967595  0.12808423  1
  V  V23  1  0.36547138  0.00906377  0.88109946  1
  V  V24  1  0.74894068  -0.00742101  0.25069258  1
  V  V25  1  0.51598218  0.11137737  0.12232027  1
  V  V26  1  0.36803492  0.49601107  0.86833754  1
  V  V27  1  0.37780226  0.64213133  0.75261033  1
  V  V28  1  0.12326904  0.25088636  0.87487946  1
  V  V29  1  0.37993048  -0.00069422  0.40214650  1
  V  V30  1  0.86860690  0.12253791  0.76282794  1
  V  V31  1  0.12651126  0.37351504  0.75402334  1
  V  V32  1  0.60396949  0.49851839  0.62641538  1
  V  V33  1  0.24566863  0.11617558  0.37900685  1
  V  V34  1  0.12933490  0.49025947  0.12764665  1
  V  V35  1  0.87504173  0.12192413  0.23986205  1
  V  V36  1  0.00344313  0.49801017  0.50530091  1
  V  V37  1  0.48679485  0.64286942  0.62150364  1
  V  V38  1  0.00981292  0.86016569  0.36336834  1
  V  V39  1  0.37710092  0.10915390  0.24669762  1
  V  V40  1  -0.01480461  0.00755981  -0.01247920  1
  V  V41  1  0.00123360  0.12463166  0.11980835  1
  V  V42  1  0.76308936  0.13807404  0.37900975  1
  V  V43  1  0.38680358  0.25778949  0.13640912  1
  V  V44  1  0.75491259  0.39153378  0.63135301  1
  V  V45  1  0.12667274  0.88803059  0.74157949  1
  V  V46  1  0.25109945  0.62629626  0.87689361  1
  V  V47  1  0.38165750  0.37905637  0.50123132  1
  V  V48  1  0.34917050  0.86989138  -0.00237995  1
  V  V49  1  0.76269382  0.36329954  0.11224231  1
  V  V50  1  0.62384663  0.75582874  0.88206801  1
  V  V51  1  0.12950918  0.24939293  0.38198553  1
  V  V52  1  -0.00341563  0.74606654  0.73683364  1
  V  V53  1  0.51025640  0.24740023  0.75293124  1
  V  V54  1  0.12070522  0.63348430  0.50707787  1
  V  V55  1  0.26756208  0.75044478  0.51252915  1
  V  V56  1  0.37133478  0.37386422  0.00783906  1
  V  V57  1  0.13718093  0.11566282  -0.00691786  1
  V  V58  1  -0.00991271  0.62882704  0.15582229  1
  V  V59  1  0.75337820  0.49410294  0.24508399  1
  V  V60  1  0.74350405  0.22950727  -0.00364158  1
  V  V61  1  0.24890699  0.47889140  0.24987160  1
  V  V62  1  0.25157806  0.37833397  0.62952765  1
  V  V63  1  0.00614666  0.24681340  0.24930008  1
  V  V64  1  0.61717692  0.74500563  0.36637811  1
  V  V65  1  0.38008924  0.75183254  0.13724187  1
  V  V66  1  0.87003558  0.86355487  0.50989495  1
  V  V67  1  0.50862706  0.11649717  0.61710955  1
  V  V68  1  0.11835802  0.61968769  0.00413487  1
  V  V69  1  0.01037423  0.12433949  0.61842813  1
  V  V70  1  0.25810400  0.24660380  0.00290197  1
  V  V71  1  0.66952179  0.64424964  0.53445780  1
  V  V72  1  0.88009286  0.50058677  0.36136753  1
  Zn  Zn73  1  0.61827347  0.36796569  0.24108119  1
  Zn  Zn74  1  -0.11007015  0.48193108  0.88389603  1
  Zn  Zn75  1  0.24638732  0.24790489  0.50459982  1
  Zn  Zn76  1  0.81330548  -0.05139042  0.91682844  1
  Zn  Zn77  1  0.62055450  -0.02374483  0.60159282  1
  Zn  Zn78  1  0.49711046  0.88298744  0.38592489  1
  Zn  Zn79  1  0.63198450  0.38413101  0.76115633  1
  Zn  Zn80  1  -0.01600150  0.25353162  0.75904739  1
  Zn  Zn81  1  -0.00384448  -0.00055720  0.49785745  1
  Zn  Zn82  1  0.19200519  0.18069075  0.18871289  1
  Zn  Zn83  1  0.19946861  0.17699604  0.69591314  1
  Zn  Zn84  1  0.22807851  0.67371181  0.15938802  1
  Zn  Zn85  1  0.18866880  0.68985028  0.69298235  1
  Zn  Zn86  1  0.68551313  0.19482700  0.19350701  1
  Zn  Zn87  1  0.68682507  0.19309533  0.68016260  1
  Zn  Zn88  1  0.69627475  0.69289111  0.18548237  1
  Zn  Zn89  1  0.67880223  0.66366376  0.71424900  1
  Zn  Zn90  1  0.31749988  0.31050929  0.31613888  1
  Zn  Zn91  1  0.31179881  0.30840477  0.81716981  1
  Zn  Zn92  1  0.31629431  0.81345982  0.32214605  1
  Zn  Zn93  1  0.31288049  0.82453544  0.81258195  1
  Zn  Zn94  1  0.81849266  0.31194106  0.30280167  1
  Zn  Zn95  1  0.80155624  0.30483819  0.81436077  1
  Zn  Zn96  1  0.79488958  0.84343167  0.35889024  1
  Zn  Zn97  1  0.80515960  0.79668531  0.80270092  1
  Zn  Zn98  1  0.19145909  0.43701356  0.44031133  1
  Zn  Zn99  1  0.07250688  0.43406818  0.94095644  1
  Zn  Zn100  1  0.18195017  0.93554634  0.44187478  1
  Zn  Zn101  1  0.19279684  0.94351380  0.92461492  1
  Zn  Zn102  1  0.68552348  0.45518026  0.44492807  1
  Zn  Zn103  1  0.69774798  0.43972070  0.94253618  1
  Zn  Zn104  1  0.68788479  0.94984099  0.43373134  1
  Zn  Zn105  1  0.75164952  0.79865092  1.00170043  1
  Zn  Zn106  1  0.31717079  0.05446236  0.06847314  1
  Zn  Zn107  1  0.29672825  0.06987613  0.57814423  1
  Zn  Zn108  1  0.31355935  0.56088733  0.05920492  1
  Zn  Zn109  1  0.31096084  0.56490390  0.56475702  1
  Zn  Zn110  1  0.72738178  0.01522364  0.04128559  1
  Zn  Zn111  1  0.80745439  0.05003940  0.55483820  1
  Zn  Zn112  1  0.82030986  0.56892913  0.06146015  1
  Zn  Zn113  1  0.82353912  0.56745842  0.55813232  1
  Zn  Zn114  1  0.45660948  0.48744099  0.20897856  1
  Zn  Zn115  1  0.43712659  0.43233402  0.69482555  1
  Zn  Zn116  1  0.43830290  0.93005451  0.18361543  1
  Zn  Zn117  1  0.43332450  0.93917588  0.69563405  1
  Zn  Zn118  1  0.94545575  0.44486245  0.07373873  1
  Zn  Zn119  1  0.94071629  0.43494828  0.69571707  1
  Zn  Zn120  1  0.94199848  0.94053237  0.18963957  1
  Zn  Zn121  1  0.93310903  0.94114157  0.68308323  1
  Zn  Zn122  1  0.06688404  0.05317675  0.31188944  1
  Zn  Zn123  1  0.05759149  0.06892494  0.80779795  1
  Zn  Zn124  1  0.07121735  0.56104992  0.31686426  1
  Zn  Zn125  1  0.06217033  0.56397697  0.81035323  1
  Zn  Zn126  1  0.56018029  0.06600541  0.31167168  1
  Zn  Zn127  1  0.53992669  0.03977749  0.80366750  1
  Zn  Zn128  1  0.57138465  0.56911897  0.30640418  1
  Zn  Zn129  1  0.56352552  0.56986918  0.81562025  1
  Zn  Zn130  1  0.43543797  0.18886301  0.43775976  1
  Zn  Zn131  1  0.45084221  0.18557603  0.94512709  1
  Zn  Zn132  1  0.43794025  0.68463855  0.43742892  1
  Zn  Zn133  1  0.43774505  0.69530670  0.94014697  1
  Zn  Zn134  1  0.93844970  0.18770522  0.43624605  1
  Zn  Zn135  1  0.92640511  0.30506741  0.94706973  1
  Zn  Zn136  1  0.93939386  0.69158877  0.43573392  1
  Zn  Zn137  1  0.93436491  0.69019963  0.94121809  1
  Zn  Zn138  1  0.07574073  0.30314288  0.06960240  1
  Zn  Zn139  1  0.05578861  0.30756270  0.56587753  1
  Zn  Zn140  1  0.02679515  0.80612312  0.06080428  1
  Zn  Zn141  1  0.05840048  0.81837069  0.55810362  1
  Zn  Zn142  1  0.56695227  0.31319452  0.06588508  1
  Zn  Zn143  1  0.56660632  0.31486735  0.55463434  1
  Zn  Zn144  1  0.56152906  0.80274619  0.06453728  1
  Zn  Zn145  1  0.56716117  0.80894091  0.55713218  1
  O  O146  1  0.12003977  0.11549047  0.11190087  1
  O  O147  1  0.10718294  0.14519094  0.63190999  1
  O  O148  1  0.13549200  0.62177733  0.11082924  1
  O  O149  1  0.13381629  0.61277007  0.61625293  1
  O  O150  1  0.61526891  0.12115274  0.14337649  1
  O  O151  1  0.61496743  0.12859479  0.61602501  1
  O  O152  1  0.63702379  0.61015589  0.12717526  1
  O  O153  1  0.59940335  0.61696419  0.63265929  1
  O  O154  1  0.38137193  0.38526038  0.38260852  1
  O  O155  1  0.38306796  0.38498930  0.88199621  1
  O  O156  1  0.37009483  0.89607115  0.37786878  1
  O  O157  1  0.37145696  0.88492644  0.88857418  1
  O  O158  1  0.88317487  0.38067019  0.38021336  1
  O  O159  1  0.88087456  0.36624532  0.86232996  1
  O  O160  1  0.89754614  0.87570691  0.38765986  1
  O  O161  1  0.88627246  0.87618377  0.86290515  1
  O  O162  1  0.25859733  0.01134373  0.38168959  1
  O  O163  1  0.26608626  0.00450073  0.85909202  1
  O  O164  1  0.25020995  0.50718186  0.36482920  1
  O  O165  1  0.26843912  0.50632396  0.87865756  1
  O  O166  1  0.74540409  0.02324076  0.35764621  1
  O  O167  1  0.74551848  0.01838519  0.85330850  1
  O  O168  1  0.75878990  0.50437366  0.36341451  1
  O  O169  1  0.75403530  0.51649536  0.88051314  1
  O  O170  1  0.24678993  0.50463172  0.14155723  1
  O  O171  1  0.24140748  0.48893281  0.62127522  1
  O  O172  1  0.23249579  0.99230686  0.11632498  1
  O  O173  1  0.22712730  0.97806137  0.59962333  1
  O  O174  1  0.74484350  0.49364798  0.12498999  1
  O  O175  1  0.75888045  0.49242170  0.62918281  1
  O  O176  1  0.73802680  1.00975599  0.15170440  1
  O  O177  1  0.73541638  1.01129019  0.63805692  1
  O  O178  1  -0.00303743  0.36120694  0.26302814  1
  O  O179  1  0.02150244  0.36316731  0.74075886  1
  O  O180  1  -0.00292559  0.87683777  0.26189345  1
  O  O181  1  0.00729638  0.87062022  0.75584643  1
  O  O182  1  0.50123438  0.39236716  0.26732215  1
  O  O183  1  0.50450621  0.36845284  0.76282351  1
  O  O184  1  0.51243074  0.88085900  0.26503135  1
  O  O185  1  0.50729243  0.86101234  0.74237458  1
  O  O186  1  0.48343709  0.12490436  0.24563310  1
  O  O187  1  0.50744418  0.14300953  0.73269350  1
  O  O188  1  0.48943947  0.59353971  0.23722327  1
  O  O189  1  0.48397699  0.62057943  0.74350089  1
  O  O190  1  0.99406274  0.12368187  0.24331557  1
  O  O191  1  0.98171086  0.12972360  0.74213210  1
  O  O192  1  0.99749876  0.62071237  0.25676409  1
  O  O193  1  0.99464711  0.63954406  0.75619248  1
  O  O194  1  0.37562769  0.25488151  0.00924791  1
  O  O195  1  0.37669716  0.26319253  0.51200114  1
  O  O196  1  0.37335619  0.76634817  -0.00418321  1
  O  O197  1  0.36651962  0.74919248  0.50354712  1
  O  O198  1  0.84698479  0.23831364  -0.00522598  1
  O  O199  1  0.87822887  0.26224808  0.50856478  1
  O  O200  1  0.92132840  0.77430769  0.01196567  1
  O  O201  1  0.87737119  0.76030530  0.50066922  1
  O  O202  1  0.12369451  0.25182804  0.48771409  1
  O  O203  1  0.13644268  0.23805287  0.99360348  1
  O  O204  1  0.12474852  0.73366135  0.50909811  1
  O  O205  1  0.11870396  0.74097354  0.98361848  1
  O  O206  1  0.63068112  0.23671038  0.50393877  1
  O  O207  1  0.64206991  0.24980359  1.00829835  1
  O  O208  1  0.62840301  0.72960156  0.48859983  1
  O  O209  1  0.63627839  0.76207987  0.98892613  1
  O  O210  1  0.48974944  0.24200993  0.12683761  1
  O  O211  1  0.49341347  0.26150277  0.63444281  1
  O  O212  1  0.48054046  0.74397882  0.11430133  1
  O  O213  1  0.49763890  0.74066246  0.62453915  1
  O  O214  1  1.01299831  0.23409003  0.13531842  1
  O  O215  1  0.98041593  0.24377817  0.63009123  1
  O  O216  1  1.01826921  0.72505026  0.14008106  1
  O  O217  1  1.00756862  0.75001594  0.63868830  1
  O  O218  1  0.00949046  0.25396112  0.37094816  1
  O  O219  1  0.02013396  0.24995242  0.87649360  1
  O  O220  1  0.00388265  0.75747671  0.37247134  1
  O  O221  1  0.00956120  0.76684318  0.86775614  1
  O  O222  1  0.49376901  0.26901514  0.37593454  1
  O  O223  1  0.49432057  0.25655249  0.86141863  1
  O  O224  1  0.51569306  0.73848118  0.37281185  1
  O  O225  1  0.52562008  0.73121431  0.87809929  1
  O  O226  1  0.25926483  0.13285171  0.48335070  1
  O  O227  1  0.24054651  0.12618405  1.00412968  1
  O  O228  1  0.24249342  0.63561755  0.49996073  1
  O  O229  1  0.24279526  0.62206232  0.98364569  1
  O  O230  1  0.74590354  0.12604745  0.48557946  1
  O  O231  1  0.73161681  0.11702057  0.98103237  1
  O  O232  1  0.75552965  0.61632979  0.47475277  1
  O  O233  1  0.75525089  0.63328279  0.99174139  1
  O  O234  1  0.26964248  0.36514756  0.00230306  1
  O  O235  1  0.25866677  0.37047053  0.51130573  1
  O  O236  1  0.24893222  0.87097247  -0.00564552  1
  O  O237  1  0.24188287  0.85576964  0.50855813  1
  O  O238  1  0.75182920  0.36221249  0.00663633  1
  O  O239  1  0.76388224  0.38940325  0.50793391  1
  O  O240  1  0.74164744  0.91357468  -0.00437625  1
  O  O241  1  0.76708052  0.87682130  0.47467554  1
  O  O242  1  0.14003034  0.50419427  0.24159671  1
  O  O243  1  0.12167869  0.49031994  0.73801999  1
  O  O244  1  0.11893379  0.99847861  0.22701043  1
  O  O245  1  0.12030168  0.98691612  0.75385368  1
  O  O246  1  0.63813759  0.49412766  0.23790923  1
  O  O247  1  0.61918899  0.50043783  0.73196142  1
  O  O248  1  0.63096570  0.98425038  0.26386412  1
  O  O249  1  0.62800031  0.97866867  0.74901716  1
  O  O250  1  0.37076296  0.00860785  0.24714398  1
  O  O251  1  0.42929169  0.00123332  0.79176973  1
  O  O252  1  0.35691090  0.49741941  0.26704038  1
  O  O253  1  0.37916070  0.50097437  0.76648540  1
  O  O254  1  0.86556438  0.01194180  0.24712986  1
  O  O255  1  0.85754509  0.01600326  0.74020831  1
  O  O256  1  0.87073173  0.49328158  0.26002405  1
  O  O257  1  0.88906121  0.51323180  0.76028720  1
  O  O258  1  0.11752840  0.36702965  0.37956127  1
  O  O259  1  0.13374437  0.36095088  0.86916066  1
  O  O260  1  0.11331500  0.87052252  0.38053441  1
  O  O261  1  0.12331263  0.86679237  0.86383808  1
  O  O262  1  0.60618533  0.39416317  0.38932898  1
  O  O263  1  0.61561504  0.38258173  0.87943746  1
  O  O264  1  0.63012447  0.85300744  0.37453991  1
  O  O265  1  0.62462989  0.85919744  0.85644863  1
  O  O266  1  0.37856685  0.13050940  0.13559193  1
  O  O267  1  0.39653131  0.14541617  0.61352117  1
  O  O268  1  0.34605153  0.64721893  0.12696413  1
  O  O269  1  0.37575061  0.62131259  0.64309628  1
  O  O270  1  0.88792543  0.12424475  0.13662173  1
  O  O271  1  0.86593788  0.13727590  0.62053899  1
  O  O272  1  0.89140784  0.62243585  0.13363682  1
  O  O273  1  0.88177053  0.61736935  0.64068349  1
  O  O274  1  0.26254391  0.24101555  0.11268868  1
  O  O275  1  0.26640837  0.25823532  0.62647071  1
  O  O276  1  0.26792708  0.76909403  0.11752463  1
  O  O277  1  0.25001039  0.75426829  0.61739634  1
  O  O278  1  0.75246030  0.25655656  0.11766578  1
  O  O279  1  0.75975567  0.26366111  0.62057248  1
  O  O280  1  0.76761483  0.75982270  0.11703087  1
  O  O281  1  0.72905172  0.67974609  0.60582743  1
  O  O282  1  0.24293836  0.24573548  0.37685439  1
  O  O283  1  0.24720133  0.24862375  0.89190525  1
  O  O284  1  0.25503979  0.73939370  0.39097634  1
  O  O285  1  0.23626244  0.74561407  0.86814965  1
  O  O286  1  0.75687016  0.23861641  0.36887666  1
  O  O287  1  0.73645234  0.23075077  0.88074996  1
  O  O288  1  0.75366227  0.73449497  0.36215197  1
  O  O289  1  0.74999220  0.74817567  0.88856341  1
  O  O290  1  0.01363649  0.11512806  0.00337555  1
  O  O291  1  -0.00653551  0.12834552  0.51520421  1
  O  O292  1  0.01816284  0.62234658  0.00059052  1
  O  O293  1  0.01365506  0.61309123  0.49395600  1
  O  O294  1  0.51068729  0.12933842  0.02190563  1
  O  O295  1  0.51168588  0.13267189  0.50791931  1
  O  O296  1  0.49543022  0.61046866  -0.00034893  1
  O  O297  1  0.48328319  0.62118361  0.52220547  1
  O  O298  1  0.48837329  0.37850169  0.49325522  1
  O  O299  1  0.49270686  0.37545591  0.99244899  1
  O  O300  1  0.51006830  0.87874502  0.49589472  1
  O  O301  1  0.50110249  0.88333732  0.99698751  1
  O  O302  1  0.99152311  0.38046657  0.49222314  1
  O  O303  1  1.00385999  0.36668108  1.00836205  1
  O  O304  1  0.99045792  0.87579744  0.49329484  1
  O  O305  1  1.00444811  0.89544726  0.98014495  1
  O  O306  1  0.48089687  0.50501989  0.37886294  1
  O  O307  1  0.49706434  0.49480897  0.88678182  1
  O  O308  1  0.48200453  1.00816023  0.37900141  1
  O  O309  1  0.51055335  0.99471736  0.92424223  1
  O  O310  1  0.99955774  0.49085369  0.38181472  1
  O  O311  1  1.00654202  0.49615313  0.87684358  1
  O  O312  1  1.01122513  0.98756508  0.38231889  1
  O  O313  1  1.00136169  0.99275306  0.87738419  1
  O  O314  1  0.00213395  0.00524828  0.10633599  1
  O  O315  1  -0.00234355  0.02135037  0.63000979  1
  O  O316  1  0.02365924  0.51579871  0.13174747  1
  O  O317  1  0.01068752  0.48878209  0.61308385  1
  O  O318  1  0.49929168  0.01132960  0.12902794  1
  O  O319  1  0.50136716  0.01569706  0.63034609  1
  O  O320  1  0.51638037  0.49118391  0.10993800  1
  O  O321  1  0.50402422  0.49117852  0.61922340  1
  O  O322  1  0.24672869  0.38043079  0.25394566  1
  O  O323  1  0.24272514  0.36900667  0.74021822  1
  O  O324  1  0.20711966  0.84606908  0.25505131  1
  O  O325  1  0.23516272  0.87049132  0.73769704  1
  O  O326  1  0.75242615  0.38269044  0.23858578  1
  O  O327  1  0.74542415  0.37129088  0.73400175  1
  O  O328  1  0.74486169  0.88774113  0.26251996  1
  O  O329  1  0.75794849  0.88978650  0.74998200  1
  O  O330  1  0.26564308  0.13066398  0.26459188  1
  O  O331  1  0.27533830  0.09781167  0.68801712  1
  O  O332  1  0.23871757  0.63600782  0.26936341  1
  O  O333  1  0.26306563  0.62758256  0.76286068  1
  O  O334  1  0.76608011  0.12833651  0.25416498  1
  O  O335  1  0.74863392  0.12732232  0.75644636  1
  O  O336  1  0.75454423  0.61269277  0.25417290  1
  O  O337  1  0.77581741  0.63255732  0.76344652  1
  O  O338  1  0.37021939  0.11717035  0.36737605  1
  O  O339  1  0.38353252  0.10832622  0.89643377  1
  O  O340  1  0.35859606  0.61421914  0.38495098  1
  O  O341  1  0.37414020  0.61698915  0.86945200  1
  O  O342  1  0.86900367  0.12597935  0.36743935  1
  O  O343  1  0.87070178  0.12750319  0.85930881  1
  O  O344  1  0.86937085  0.61537101  0.37464413  1
  O  O345  1  0.86969087  0.62733855  0.87424579  1
  O  O346  1  0.12926392  0.39129375  0.12209454  1
  O  O347  1  0.13432723  0.37636770  0.62933479  1
  O  O348  1  0.10374227  0.88475827  0.10831939  1
  O  O349  1  0.12550488  0.86869264  0.63878690  1
  O  O350  1  0.63960082  0.38633950  0.12357042  1
  O  O351  1  0.63841031  0.39199537  0.61161311  1
  O  O352  1  0.61860621  0.86801174  0.14490062  1
  O  O353  1  0.62845618  0.86664894  0.63689236  1
  O  O354  1  0.11503949  0.23918261  0.26080993  1
  O  O355  1  0.13868783  0.24864688  0.76721661  1
  O  O356  1  0.15749706  0.79364429  0.24065362  1
  O  O357  1  0.11416310  0.75222735  0.76093061  1
  O  O358  1  0.63156954  0.26043776  0.26364984  1
  O  O359  1  0.61301887  0.26200235  0.74155273  1
  O  O360  1  0.63251498  0.75906696  0.25881162  1
  O  O361  1  0.63815844  0.75954207  0.75664759  1
  O  O362  1  0.37263135  0.24656907  0.23840671  1
  O  O363  1  0.38569205  0.25799594  0.73814330  1
  O  O364  1  0.37604873  0.76915543  0.23860794  1
  O  O365  1  0.37648206  0.74075070  0.76040299  1
  O  O366  1  0.89330895  0.23488541  0.25442750  1
  O  O367  1  0.86579069  0.23700467  0.73706600  1
  O  O368  1  0.83080489  0.80000699  0.16221256  1
  O  O369  1  0.89130223  0.74376901  0.75002251  1
  O  O370  1  0.36075938  0.49151687  0.48812297  1
  O  O371  1  0.38774146  0.49350388  0.99744014  1
  O  O372  1  0.37112267  1.01125039  0.50034670  1
  O  O373  1  0.36741207  0.98471516  0.99312189  1
  O  O374  1  0.88705503  0.49489921  0.48957523  1
  O  O375  1  0.87895417  0.49686570  0.99871227  1
  O  O376  1  0.88141900  0.98544481  0.50348503  1
  O  O377  1  0.88656902  1.01149125  0.99046279  1
  O  O378  1  0.12343894  0.00976034  -0.00493564  1
  O  O379  1  0.11013546  0.00640253  0.49093116  1
  O  O380  1  0.13381152  0.50940665  0.01266941  1
  O  O381  1  0.12062267  0.50238185  0.50947016  1
  O  O382  1  0.54561870  -0.05381660  -0.02634940  1
  O  O383  1  0.62932311  0.02216178  0.49847517  1
  O  O384  1  0.61738597  0.50107223  0.00663597  1
  O  O385  1  0.64039533  0.53121498  0.52512814  1
  O  O386  1  0.38519712  0.36192246  0.12079818  1
  O  O387  1  0.37016443  0.37270894  0.62099915  1
  O  O388  1  0.37943285  0.86871111  0.10686782  1
  O  O389  1  0.35273317  0.88982035  0.63595408  1
  O  O390  1  0.86112306  0.37930125  0.12573885  1
  O  O391  1  0.86787159  0.37121077  0.62088466  1
  O  O392  1  0.85888620  0.86119409  0.12470842  1
  O  O393  1  0.87422353  0.87428620  0.61307463  1
  O  O394  1  0.14069700  0.12987631  0.36863366  1
  O  O395  1  0.12446949  0.13200248  0.88529958  1
  O  O396  1  0.13926148  0.61686579  0.39519686  1
  O  O397  1  0.13178896  0.63323043  0.87960936  1
  O  O398  1  0.63058717  0.13119726  0.38055895  1
  O  O399  1  0.61557238  0.11562411  0.85743744  1
  O  O400  1  0.64338006  0.63344874  0.36726411  1
  O  O401  1  0.64911614  0.63826301  0.85627488  1
