# generated using pymatgen
data_V73Zn73O256
_symmetry_space_group_name_H-M   'P 1'
_cell_length_a   16.87274115
_cell_length_b   16.88141249
_cell_length_c   16.88513080
_cell_angle_alpha   90.07423815
_cell_angle_beta   90.21702344
_cell_angle_gamma   89.95041290
_symmetry_Int_Tables_number   1
_chemical_formula_structural   V73Zn73O256
_chemical_formula_sum   'V73 Zn73 O256'
_cell_volume   4809.44778594
_cell_formula_units_Z   1
loop_
 _symmetry_equiv_pos_site_id
 _symmetry_equiv_pos_as_xyz
  1  'x, y, z'
loop_
 _atom_site_type_symbol
 _atom_site_label
 _atom_site_symmetry_multiplicity
 _atom_site_fract_x
 _atom_site_fract_y
 _atom_site_fract_z
 _atom_site_occupancy
  V  V0  1  0.01794813  0.26073071  0.25765184  1
  V  V1  1  0.49988963  0.64005089  0.62690085  1
  V  V2  1  0.12281369  0.25490777  0.88741272  1
  V  V3  1  0.24031037  0.87356277  0.12652031  1
  V  V4  1  0.85663178  0.49580805  0.86619895  1
  V  V5  1  0.86149311  0.25689234  0.61974395  1
  V  V6  1  0.63230905  0.87938320  0.76726413  1
  V  V7  1  0.11406925  0.75301202  0.87065063  1
  V  V8  1  0.12096712  0.86346281  0.25218554  1
  V  V9  1  0.62002533  0.34550046  0.76749280  1
  V  V10  1  0.86805232  0.13237409  0.24269479  1
  V  V11  1  0.00343601  0.25728241  0.74892906  1
  V  V12  1  0.61660996  0.00163427  0.62490017  1
  V  V13  1  0.01917050  0.12302558  0.12090233  1
  V  V14  1  0.62998754  0.90054698  0.22161901  1
  V  V15  1  -0.00630084  0.62313062  0.12107297  1
  V  V16  1  0.38264989  -0.01128678  0.88118372  1
  V  V17  1  0.25648668  0.50634059  0.75186473  1
  V  V18  1  -0.00129469  0.89846310  0.88739102  1
  V  V19  1  0.38477910  0.25119819  0.63564301  1
  V  V20  1  0.38136989  0.12818392  0.75131002  1
  V  V21  1  0.61973425  0.13273659  0.49896870  1
  V  V22  1  0.85332505  0.63012457  0.75613458  1
  V  V23  1  0.64217680  0.49939695  0.63822498  1
  V  V24  1  0.87000451  0.11608794  0.75338834  1
  V  V25  1  0.61480726  0.49366556  0.12857373  1
  V  V26  1  0.26899716  0.86466003  0.61358280  1
  V  V27  1  0.62775955  0.62829739  0.50146361  1
  V  V28  1  0.86338593  0.37434057  0.48720467  1
  V  V29  1  0.38365742  0.50714712  0.38401041  1
  V  V30  1  0.37188101  0.62494887  0.25554458  1
  V  V31  1  0.00687315  0.12638300  0.61756934  1
  V  V32  1  0.12287250  0.48623137  0.12002106  1
  V  V33  1  -0.00297372  0.86857509  0.37670511  1
  V  V34  1  0.76011238  0.62417347  0.37495876  1
  V  V35  1  -0.00626873  0.49530006  0.48914976  1
  V  V36  1  0.87998996  0.75202421  0.62965604  1
  V  V37  1  0.49623245  0.34988791  0.38027279  1
  V  V38  1  0.24348314  -0.00136884  0.25276808  1
  V  V39  1  0.23132360  0.48751175  0.27768521  1
  V  V40  1  0.27379790  0.38029261  0.12009484  1
  V  V41  1  0.61800924  0.36075037  0.26060426  1
  V  V42  1  0.37769837  -0.00981870  0.37022527  1
  V  V43  1  0.24876589  0.74996280  -0.00248826  1
  V  V44  1  0.37446317  0.37293964  0.50837147  1
  V  V45  1  0.74262702  0.49686215  0.25729361  1
  V  V46  1  0.24819368  0.37785169  0.63220201  1
  V  V47  1  0.12165463  0.50733187  0.62433014  1
  V  V48  1  0.12301427  0.62698098  -0.00180187  1
  V  V49  1  0.64157016  0.62422865  0.00198192  1
  V  V50  1  0.38738785  0.49258175  0.88482023  1
  V  V51  1  0.00014522  0.62641178  0.63658608  1
  V  V52  1  0.11760105  0.87433243  0.74113522  1
  V  V53  1  0.61389124  0.75626047  0.36175612  1
  V  V54  1  0.49571849  -0.01149792  0.49183624  1
  V  V55  1  0.49473785  0.61943705  0.12186762  1
  V  V56  1  0.75596581  0.88532028  0.62176297  1
  V  V57  1  0.86199152  -0.00290801  0.37302587  1
  V  V58  1  0.23858373  0.63684462  0.39727211  1
  V  V59  1  0.87388502  0.61584273  0.24982460  1
  V  V60  1  0.38666704  0.87346823  -0.00073377  1
  V  V61  1  0.25179609  0.00074271  0.74346283  1
  V  V62  1  0.50356424  0.75825295  0.77302965  1
  V  V63  1  0.74638143  0.14369456  0.38207271  1
  V  V64  1  0.37638223  0.74701239  0.13170922  1
  V  V65  1  -0.00055605  0.48444593  -0.01834466  1
  V  V66  1  0.27444019  0.25459512  0.00610649  1
  V  V67  1  0.76241121  0.75335590  0.49726694  1
  V  V68  1  0.23373053  0.10622669  0.90233310  1
  V  V69  1  0.00320653  0.00541556  0.48939542  1
  V  V70  1  0.62590999  0.13228237  0.00473578  1
  V  V71  1  0.23583383  0.24387011  0.50444480  1
  V  V72  1  0.86476835  0.76479246  0.11604435  1
  Zn  Zn73  1  0.50491115  0.49812197  0.51108638  1
  Zn  Zn74  1  0.81789483  0.32759395  0.05305008  1
  Zn  Zn75  1  0.76137607  0.13744624  0.87891724  1
  Zn  Zn76  1  0.37698329  0.63630770  0.75111880  1
  Zn  Zn77  1  0.24501108  0.13053720  0.38148990  1
  Zn  Zn78  1  0.11570561  0.38548481  0.75688726  1
  Zn  Zn79  1  0.13612209  0.00403372  0.61001688  1
  Zn  Zn80  1  -0.00157075  0.74290193  0.25191027  1
  Zn  Zn81  1  0.25369973  0.62813385  0.87194143  1
  Zn  Zn82  1  0.21623021  0.20975152  0.20961482  1
  Zn  Zn83  1  0.19057519  0.18759128  0.69070488  1
  Zn  Zn84  1  0.18859729  0.67993755  0.19309265  1
  Zn  Zn85  1  0.18804817  0.69082623  0.68148849  1
  Zn  Zn86  1  0.69861887  0.18754255  0.19031161  1
  Zn  Zn87  1  0.68498278  0.18635458  0.69093060  1
  Zn  Zn88  1  0.68906674  0.68727971  0.18130716  1
  Zn  Zn89  1  0.68351364  0.69911148  0.68822843  1
  Zn  Zn90  1  0.30392963  0.32089387  0.32088990  1
  Zn  Zn91  1  0.30934680  0.31244245  0.81996246  1
  Zn  Zn92  1  0.31024019  0.81079143  0.32216524  1
  Zn  Zn93  1  0.31025420  0.81377010  0.80553090  1
  Zn  Zn94  1  0.81221923  0.31308182  0.31000436  1
  Zn  Zn95  1  0.81068159  0.31887585  0.80182498  1
  Zn  Zn96  1  0.80754919  0.81074378  0.29849357  1
  Zn  Zn97  1  0.82468907  0.82942954  0.80256972  1
  Zn  Zn98  1  0.18928888  0.44846651  0.44882711  1
  Zn  Zn99  1  0.19525087  0.43580106  0.93646807  1
  Zn  Zn100  1  0.18282863  0.93163626  0.43378135  1
  Zn  Zn101  1  0.19086520  0.92978297  0.93113434  1
  Zn  Zn102  1  0.68196304  0.43573437  0.44018004  1
  Zn  Zn103  1  0.67204039  0.44422106  0.93211414  1
  Zn  Zn104  1  0.68474929  0.93345918  0.43741173  1
  Zn  Zn105  1  0.69165158  0.93444080  0.96582319  1
  Zn  Zn106  1  0.19568545  0.06476646  0.07511363  1
  Zn  Zn107  1  0.32181686  0.06442865  0.56284609  1
  Zn  Zn108  1  0.31253076  0.56161258  0.05932424  1
  Zn  Zn109  1  0.31644214  0.56849520  0.56713087  1
  Zn  Zn110  1  0.80348845  0.04511598  0.07099958  1
  Zn  Zn111  1  0.81788413  0.06843555  0.55739791  1
  Zn  Zn112  1  0.81456900  0.52395606  0.06576903  1
  Zn  Zn113  1  0.81975822  0.56516946  0.56011651  1
  Zn  Zn114  1  0.43602070  0.43823646  0.20239127  1
  Zn  Zn115  1  0.45029755  0.44613058  0.69489495  1
  Zn  Zn116  1  0.43534329  0.91863201  0.20050467  1
  Zn  Zn117  1  0.44348402  0.93465905  0.69225627  1
  Zn  Zn118  1  0.92737046  0.42607800  0.18583338  1
  Zn  Zn119  1  0.92510116  0.44156722  0.68784782  1
  Zn  Zn120  1  0.93827843  0.94657997  0.19027278  1
  Zn  Zn121  1  0.94017992  0.94200340  0.68345912  1
  Zn  Zn122  1  0.06357703  0.06754501  0.30256535  1
  Zn  Zn123  1  0.06480400  0.06759643  0.80578792  1
  Zn  Zn124  1  0.06298118  0.55570492  0.31011802  1
  Zn  Zn125  1  0.06485272  0.56824110  0.80889774  1
  Zn  Zn126  1  0.56468321  0.06513648  0.30981231  1
  Zn  Zn127  1  0.56333482  0.05853671  0.81313141  1
  Zn  Zn128  1  0.56268182  0.57243533  0.31498387  1
  Zn  Zn129  1  0.56808797  0.56363236  0.81402617  1
  Zn  Zn130  1  0.40588367  0.16614433  0.28946060  1
  Zn  Zn131  1  0.42506152  0.16605283  0.94643153  1
  Zn  Zn132  1  0.43380480  0.69965260  0.44343396  1
  Zn  Zn133  1  0.43774122  0.67863179  0.93841864  1
  Zn  Zn134  1  0.93720776  0.19236189  0.43294118  1
  Zn  Zn135  1  0.94493461  0.18349707  0.93580074  1
  Zn  Zn136  1  0.97737706  0.69859034  0.46274775  1
  Zn  Zn137  1  0.93134492  0.68714106  0.93709902  1
  Zn  Zn138  1  0.04924898  0.30494185  0.07163215  1
  Zn  Zn139  1  0.05689579  0.32129285  0.56613450  1
  Zn  Zn140  1  0.05241286  0.81184439  0.06292392  1
  Zn  Zn141  1  0.07324626  0.81244637  0.55685598  1
  Zn  Zn142  1  0.65668754  0.31212824  0.07080563  1
  Zn  Zn143  1  0.56563063  0.31657455  0.57384252  1
  Zn  Zn144  1  0.56692184  0.80399282  0.06974626  1
  Zn  Zn145  1  0.57009681  0.81450420  0.56033931  1
  O  O146  1  0.12242232  0.13114865  0.12987624  1
  O  O147  1  0.11026449  0.12105976  0.63174688  1
  O  O148  1  0.11778374  0.62314879  0.11142772  1
  O  O149  1  0.11542821  0.61746090  0.62981664  1
  O  O150  1  0.64719340  0.11001526  0.10867796  1
  O  O151  1  0.63960904  0.10554575  0.61563325  1
  O  O152  1  0.61177996  0.61304125  0.12986469  1
  O  O153  1  0.62339644  0.62546005  0.61861693  1
  O  O154  1  0.38242932  0.38439646  0.38625326  1
  O  O155  1  0.36823864  0.39261594  0.87045375  1
  O  O156  1  0.36986033  0.88795724  0.37913103  1
  O  O157  1  0.36950699  0.88032804  0.88264108  1
  O  O158  1  0.87587484  0.36888636  0.38810825  1
  O  O159  1  0.87716599  0.39811836  0.85378244  1
  O  O160  1  0.88255804  0.89065301  0.36056279  1
  O  O161  1  0.90104691  0.87598717  0.86770380  1
  O  O162  1  0.25353247  -0.01076779  0.36265416  1
  O  O163  1  0.26106305  -0.00410503  0.85734759  1
  O  O164  1  0.27095675  0.51573749  0.38935543  1
  O  O165  1  0.25298959  0.50436434  0.86321973  1
  O  O166  1  0.76101507  -0.00150995  0.38030930  1
  O  O167  1  0.79094875  0.00301504  0.90520176  1
  O  O168  1  0.73977021  0.51364557  0.36922745  1
  O  O169  1  0.75903550  0.50020615  0.87988377  1
  O  O170  1  0.23808645  0.48834639  0.11216547  1
  O  O171  1  0.24335262  0.49812591  0.63133608  1
  O  O172  1  0.25095023  0.98132268  0.13541589  1
  O  O173  1  0.25251348  0.99467465  0.63034633  1
  O  O174  1  0.72431208  0.50111503  0.14744336  1
  O  O175  1  0.74095099  0.51614441  0.62425917  1
  O  O176  1  0.75064306  0.95058104  0.05972339  1
  O  O177  1  0.75030464  0.98779385  0.61537018  1
  O  O178  1  -0.00547777  0.36128715  0.24391808  1
  O  O179  1  -0.00253871  0.36003816  0.74101532  1
  O  O180  1  0.00644790  0.87677865  0.25938894  1
  O  O181  1  0.01555298  0.88471208  0.75264372  1
  O  O182  1  0.50238687  0.37308771  0.27158754  1
  O  O183  1  0.52734301  0.37238669  0.72571178  1
  O  O184  1  0.52789222  0.87468495  0.24079800  1
  O  O185  1  0.51679437  0.86843088  0.75436109  1
  O  O186  1  0.50331021  0.13685944  0.25249407  1
  O  O187  1  0.47974912  0.12500730  0.76776107  1
  O  O188  1  0.47819397  0.61924168  0.24584529  1
  O  O189  1  0.51249067  0.64512599  0.74308931  1
  O  O190  1  0.98732854  0.13444750  0.24159696  1
  O  O191  1  0.99263076  0.13266904  0.73604893  1
  O  O192  1  0.99159402  0.61732780  0.24050082  1
  O  O193  1  0.99505929  0.62924374  0.74037572  1
  O  O194  1  0.37378324  0.24951448  0.00541791  1
  O  O195  1  0.36114800  0.26733073  0.51750860  1
  O  O196  1  0.36464717  0.75198422  0.00661308  1
  O  O197  1  0.37054867  0.76628143  0.50347429  1
  O  O198  1  0.85489849  0.25848714  -0.03898247  1
  O  O199  1  0.88274010  0.26180335  0.51128144  1
  O  O200  1  0.88400920  0.74946360  0.01671010  1
  O  O201  1  0.86823989  0.74242555  0.51106625  1
  O  O202  1  0.13718028  0.25642623  0.51953436  1
  O  O203  1  0.11556501  0.25394880  0.98677308  1
  O  O204  1  0.08426802  0.73218309  0.48501328  1
  O  O205  1  0.13038379  0.74520932  0.99315082  1
  O  O206  1  0.61687878  0.23112818  0.51575745  1
  O  O207  1  0.65283150  0.22405566  0.95639873  1
  O  O208  1  0.64001750  0.74323651  0.49552851  1
  O  O209  1  0.62694959  0.72463675  1.01659056  1
  O  O210  1  0.58462402  0.21992864  0.07146892  1
  O  O211  1  0.48296791  0.25302962  0.62470027  1
  O  O212  1  0.48179205  0.73859474  0.12593437  1
  O  O213  1  0.51261685  0.74352120  0.63072736  1
  O  O214  1  0.99569908  0.23606104  0.14147826  1
  O  O215  1  0.99678382  0.24008306  0.63070127  1
  O  O216  1  0.99267361  0.73541374  0.12760757  1
  O  O217  1  0.98636999  0.74382360  0.61900400  1
  O  O218  1  0.00073056  0.24381275  0.35773024  1
  O  O219  1  0.01357347  0.24414252  0.85993458  1
  O  O220  1  -0.02301118  0.76775865  0.36928399  1
  O  O221  1  0.01296774  0.75600574  0.87981408  1
  O  O222  1  0.48445750  0.25457025  0.37942422  1
  O  O223  1  0.48453241  0.26003601  0.88255391  1
  O  O224  1  0.51561293  0.74169479  0.37729621  1
  O  O225  1  0.50698641  0.74637163  0.87176504  1
  O  O226  1  0.25211439  0.14100361  0.51035981  1
  O  O227  1  0.25502204  0.14803234  1.00892450  1
  O  O228  1  0.24941766  0.62867720  0.49818801  1
  O  O229  1  0.23944027  0.63497835  1.00054704  1
  O  O230  1  0.74125749  0.12111404  0.48918409  1
  O  O231  1  0.73614477  0.12130713  1.00080854  1
  O  O232  1  0.74895297  0.63331886  0.49262925  1
  O  O233  1  0.73954069  0.60329070  1.01847763  1
  O  O234  1  0.25448175  0.36601567  0.00715322  1
  O  O235  1  0.25424318  0.37695225  0.51663215  1
  O  O236  1  0.25255987  0.86451228  0.00815681  1
  O  O237  1  0.24055011  0.88309227  0.51749996  1
  O  O238  1  0.72069098  0.37255907  0.00454687  1
  O  O239  1  0.76330335  0.37950195  0.49589562  1
  O  O240  1  0.74474767  0.81201407  -0.04211827  1
  O  O241  1  0.74898453  0.86584405  0.51290280  1
  O  O242  1  0.12896324  0.51254577  0.22137101  1
  O  O243  1  0.13673244  0.50197079  0.74359101  1
  O  O244  1  0.13542117  0.97990759  0.25420678  1
  O  O245  1  0.13605342  0.99025251  0.74662823  1
  O  O246  1  0.62440277  0.49503853  0.25350578  1
  O  O247  1  0.63157238  0.50467157  0.73926688  1
  O  O248  1  0.63068914  0.99999778  0.24417705  1
  O  O249  1  0.61937679  0.99239522  0.73535854  1
  O  O250  1  0.36295385  -0.01304966  0.25924794  1
  O  O251  1  0.37085208  0.00765808  0.75475871  1
  O  O252  1  0.36266159  0.50338056  0.26907127  1
  O  O253  1  0.36575516  0.50513478  0.75064558  1
  O  O254  1  0.88080174  0.01775156  0.26747898  1
  O  O255  1  0.87522723  0.01665629  0.73936485  1
  O  O256  1  0.85881907  0.50668859  0.24667381  1
  O  O257  1  0.87128856  0.51890244  0.75491742  1
  O  O258  1  0.16709459  0.43245168  0.33771636  1
  O  O259  1  0.13759332  0.35800554  0.86878586  1
  O  O260  1  0.10622838  0.87259227  0.36824126  1
  O  O261  1  0.11800113  0.87184454  0.86294046  1
  O  O262  1  0.60561750  0.37134851  0.37603134  1
  O  O263  1  0.61313963  0.37714790  0.86434280  1
  O  O264  1  0.62830254  0.85719013  0.37600689  1
  O  O265  1  0.64440961  0.90007869  0.86491071  1
  O  O266  1  0.42495798  0.09551034  0.11413414  1
  O  O267  1  0.37300016  0.13230748  0.64437200  1
  O  O268  1  0.37400486  0.62696635  0.13340495  1
  O  O269  1  0.39604092  0.62596142  0.62999390  1
  O  O270  1  0.85556440  0.11288358  0.14227912  1
  O  O271  1  0.88390056  0.13574007  0.62928966  1
  O  O272  1  0.88542000  0.61365111  0.12874857  1
  O  O273  1  0.87701036  0.63291942  0.64003021  1
  O  O274  1  0.24874225  0.27078962  0.11297370  1
  O  O275  1  0.25692044  0.26129364  0.62636664  1
  O  O276  1  0.25452684  0.75162760  0.11621549  1
  O  O277  1  0.25227145  0.76550556  0.62915873  1
  O  O278  1  0.74780548  0.26163042  0.12094297  1
  O  O279  1  0.76408850  0.24059131  0.62398894  1
  O  O280  1  0.76535965  0.74686131  0.12375142  1
  O  O281  1  0.75833339  0.75877744  0.61686834  1
  O  O282  1  0.24719544  0.26096967  0.40368917  1
  O  O283  1  0.24391844  0.24261988  0.89435414  1
  O  O284  1  0.24648626  0.73547145  0.37560314  1
  O  O285  1  0.24085707  0.75399708  0.88413010  1
  O  O286  1  0.74850943  0.24226462  0.38162278  1
  O  O287  1  0.79722165  0.25239170  0.90112269  1
  O  O288  1  0.74964740  0.74314658  0.38200537  1
  O  O289  1  0.75438975  0.77182647  0.89545837  1
  O  O290  1  -0.00676037  0.13554418  0.02247098  1
  O  O291  1  -0.00392374  0.12092175  0.50898724  1
  O  O292  1  0.00959412  0.61877004  0.00228711  1
  O  O293  1  -0.01957685  0.60127782  0.52301949  1
  O  O294  1  0.52438036  0.12711006  -0.01345766  1
  O  O295  1  0.52130132  0.10442604  0.49811343  1
  O  O296  1  0.50062896  0.62221181  0.01905591  1
  O  O297  1  0.51071910  0.63333700  0.51329692  1
  O  O298  1  0.49208156  0.37440220  0.49329198  1
  O  O299  1  0.50147833  0.31298457  0.93140671  1
  O  O300  1  0.50595513  0.88890024  0.50180978  1
  O  O301  1  0.48498488  0.86399512  1.00748172  1
  O  O302  1  0.98907733  0.38866802  0.50631145  1
  O  O303  1  1.00260590  0.38620916  0.99908952  1
  O  O304  1  0.99762645  0.89005981  0.48463210  1
  O  O305  1  1.01425876  0.88540228  0.98715284  1
  O  O306  1  0.48946492  0.50954664  0.38541810  1
  O  O307  1  0.48580110  0.50167425  0.86453959  1
  O  O308  1  0.48990515  0.99953012  0.38092352  1
  O  O309  1  0.48134766  0.99901392  0.86980919  1
  O  O310  1  0.99949577  0.50504523  0.39062017  1
  O  O311  1  1.01484196  0.49481318  0.88095837  1
  O  O312  1  0.99357850  0.99968056  0.38041087  1
  O  O313  1  1.00851259  0.99813792  0.87425882  1
  O  O314  1  0.00016752  0.02258993  0.13386294  1
  O  O315  1  -0.00354004  0.01184150  0.60877272  1
  O  O316  1  0.01245551  0.50563514  0.10824479  1
  O  O317  1  0.00864038  0.50567196  0.63445975  1
  O  O318  1  0.46720655  0.03690312  0.12856088  1
  O  O319  1  0.51178255  -0.00243426  0.61619259  1
  O  O320  1  0.50513412  0.50734810  0.14080245  1
  O  O321  1  0.51604478  0.52133093  0.62765034  1
  O  O322  1  0.26060249  0.38782886  0.22878334  1
  O  O323  1  0.25084961  0.38527443  0.74174206  1
  O  O324  1  0.24082341  0.87219530  0.24359084  1
  O  O325  1  0.24347090  0.88294985  0.73741488  1
  O  O326  1  0.72834078  0.38396013  0.27023956  1
  O  O327  1  0.72231019  0.35934802  0.74620618  1
  O  O328  1  0.72629916  0.86807802  0.24704220  1
  O  O329  1  0.74043836  0.87401690  0.73685299  1
  O  O330  1  0.24100756  0.09653413  0.23623791  1
  O  O331  1  0.25506694  0.11232628  0.75409943  1
  O  O332  1  0.25557825  0.60666344  0.25622374  1
  O  O333  1  0.25351881  0.61916611  0.74708645  1
  O  O334  1  0.75620131  0.12740638  0.26854997  1
  O  O335  1  0.76427023  0.13450551  0.76064362  1
  O  O336  1  0.75434799  0.61749776  0.25699057  1
  O  O337  1  0.75431556  0.63579967  0.75572556  1
  O  O338  1  0.35582120  0.09955350  0.37187551  1
  O  O339  1  0.35576129  0.10906185  0.87477716  1
  O  O340  1  0.36774532  0.62562345  0.37296091  1
  O  O341  1  0.37114121  0.61556024  0.86884094  1
  O  O342  1  0.86090551  0.12034303  0.37350941  1
  O  O343  1  0.88578132  0.12636696  0.85578829  1
  O  O344  1  0.86533018  0.62836654  0.36317070  1
  O  O345  1  0.87852810  0.62347958  0.85913848  1
  O  O346  1  0.12391043  0.38625932  0.11834116  1
  O  O347  1  0.13326866  0.38824338  0.63199483  1
  O  O348  1  0.13281499  0.86508149  0.13174320  1
  O  O349  1  0.12427653  0.87923234  0.63367991  1
  O  O350  1  0.60638296  0.38528063  0.14899898  1
  O  O351  1  0.63095778  0.40109749  0.60866887  1
  O  O352  1  0.62505591  0.88685121  0.11772907  1
  O  O353  1  0.63832214  0.88605896  0.62981042  1
  O  O354  1  0.11897783  0.25453505  0.24987221  1
  O  O355  1  0.11288583  0.25362832  0.74869602  1
  O  O356  1  0.11958266  0.75638465  0.24760735  1
  O  O357  1  0.13155068  0.76636314  0.75655592  1
  O  O358  1  0.62669442  0.26321001  0.24807924  1
  O  O359  1  0.61521485  0.24129184  0.75887519  1
  O  O360  1  0.62563199  0.73934483  0.26178354  1
  O  O361  1  0.62188902  0.76964095  0.75741968  1
  O  O362  1  0.32298864  0.23181336  0.25674534  1
  O  O363  1  0.36352688  0.23588812  0.75193858  1
  O  O364  1  0.35879668  0.73865391  0.24038612  1
  O  O365  1  0.39770060  0.75596931  0.75637984  1
  O  O366  1  0.87342287  0.23634250  0.25129229  1
  O  O367  1  0.88691205  0.24511277  0.73803288  1
  O  O368  1  0.87536923  0.73167899  0.23584530  1
  O  O369  1  0.87048277  0.74133976  0.74152524  1
  O  O370  1  0.37895560  0.48945018  0.50332149  1
  O  O371  1  0.37423429  0.50523365  0.98511032  1
  O  O372  1  0.38976960  1.00310789  0.49326835  1
  O  O373  1  0.37030303  0.98709032  0.98498535  1
  O  O374  1  0.88244560  0.48515893  0.50661903  1
  O  O375  1  0.89403786  0.51163329  0.97245980  1
  O  O376  1  0.88687361  1.00717768  0.48321886  1
  O  O377  1  0.84886689  1.01177686  0.95426160  1
  O  O378  1  0.17451635  0.03542143  -0.03306774  1
  O  O379  1  0.10835684  0.00114106  0.49555890  1
  O  O380  1  0.12075486  0.50634523  0.00180474  1
  O  O381  1  0.10723129  0.49468158  0.51444407  1
  O  O382  1  0.61875964  0.02181238  0.00142798  1
  O  O383  1  0.61946300  -0.00224320  0.50936464  1
  O  O384  1  0.61734203  0.50078470  0.02591395  1
  O  O385  1  0.62500890  0.51871268  0.50197239  1
  O  O386  1  0.37250029  0.38719755  0.11919494  1
  O  O387  1  0.36896389  0.37390116  0.62653991  1
  O  O388  1  0.36538321  0.86378824  0.12060660  1
  O  O389  1  0.36774889  0.88078948  0.62744045  1
  O  O390  1  0.86055588  0.42013201  0.09841674  1
  O  O391  1  0.87274163  0.36108104  0.62393028  1
  O  O392  1  0.88216366  0.86322794  0.13529209  1
  O  O393  1  0.86375325  0.86802155  0.63565001  1
  O  O394  1  0.13533439  0.11982668  0.36940391  1
  O  O395  1  0.13776605  0.14310276  0.86107810  1
  O  O396  1  0.14307827  0.60961040  0.37251852  1
  O  O397  1  0.12785002  0.63563555  0.88213855  1
  O  O398  1  0.63732575  0.12044857  0.38695252  1
  O  O399  1  0.63790311  0.10496683  0.89168864  1
  O  O400  1  0.63590703  0.63603940  0.38335542  1
  O  O401  1  0.62389519  0.60639616  0.90370727  1
