# generated using pymatgen
data_V73Zn73O256
_symmetry_space_group_name_H-M   'P 1'
_cell_length_a   16.89034071
_cell_length_b   16.95774506
_cell_length_c   16.91420488
_cell_angle_alpha   89.83138527
_cell_angle_beta   89.76197558
_cell_angle_gamma   90.23254484
_symmetry_Int_Tables_number   1
_chemical_formula_structural   V73Zn73O256
_chemical_formula_sum   'V73 Zn73 O256'
_cell_volume   4844.49901723
_cell_formula_units_Z   1
loop_
 _symmetry_equiv_pos_site_id
 _symmetry_equiv_pos_as_xyz
  1  'x, y, z'
loop_
 _atom_site_type_symbol
 _atom_site_label
 _atom_site_symmetry_multiplicity
 _atom_site_fract_x
 _atom_site_fract_y
 _atom_site_fract_z
 _atom_site_occupancy
  V  V0  1  0.74573680  0.88061841  0.61863640  1
  V  V1  1  0.25782309  0.25097317  0.50003526  1
  V  V2  1  0.49130747  0.39689949  0.38006048  1
  V  V3  1  0.73938138  0.37485459  0.13039949  1
  V  V4  1  0.62122040  0.50787882  0.62082794  1
  V  V5  1  0.11825028  0.25639321  0.36784954  1
  V  V6  1  0.75272940  0.00613616  0.24635098  1
  V  V7  1  0.75870214  0.77809485  -0.00464938  1
  V  V8  1  0.38782632  -0.00534889  0.37043564  1
  V  V9  1  0.61963127  0.75443491  0.87190311  1
  V  V10  1  0.87787679  0.49999789  0.89345281  1
  V  V11  1  -0.00769188  0.62253724  0.62438060  1
  V  V12  1  0.88056025  0.13154983  0.25189142  1
  V  V13  1  0.64077865  0.62033620  -0.01021239  1
  V  V14  1  0.74132468  0.25491526  -0.00685821  1
  V  V15  1  0.37898636  0.24080981  0.62962747  1
  V  V16  1  0.25526799  0.24134254  -0.01260846  1
  V  V17  1  0.38131165  0.75202177  0.13154045  1
  V  V18  1  0.74926477  0.00451879  0.75112708  1
  V  V19  1  0.11747054  0.61894299  -0.00387552  1
  V  V20  1  0.25165341  0.75146599  0.49165509  1
  V  V21  1  -0.00837801  0.75286489  0.75776007  1
  V  V22  1  0.00397681  0.49063540  0.49636717  1
  V  V23  1  0.63219293  0.00225590  0.12515883  1
  V  V24  1  0.61168062  0.09473959  0.50071831  1
  V  V25  1  0.88279756  0.76895342  0.12082518  1
  V  V26  1  0.24840011  0.87383147  0.12947063  1
  V  V27  1  -0.01332867  0.11551051  0.62804946  1
  V  V28  1  0.12154832  0.62708467  0.49406742  1
  V  V29  1  0.62098453  0.37933939  0.25410515  1
  V  V30  1  0.63182737  0.37664097  0.75449114  1
  V  V31  1  0.50217283  0.86167334  0.36090630  1
  V  V32  1  0.13115542  0.12646546  -0.01191931  1
  V  V33  1  0.36734270  0.38476054  0.00150783  1
  V  V34  1  -0.00261505  0.62047397  0.13782861  1
  V  V35  1  0.87108735  0.50605378  0.38210560  1
  V  V36  1  0.50100055  0.62926570  0.12785818  1
  V  V37  1  0.87544284  0.00204158  0.38506412  1
  V  V38  1  0.50060017  0.25310576  0.26013359  1
  V  V39  1  0.61188108  0.87219213  0.74719662  1
  V  V40  1  0.87599464  0.26140137  0.12457166  1
  V  V41  1  0.25574419  0.12077959  0.38100618  1
  V  V42  1  0.24894934  -0.00571126  0.24793083  1
  V  V43  1  0.76107545  0.51658864  0.75174602  1
  V  V44  1  0.37441900  0.74192124  0.63092795  1
  V  V45  1  0.00188823  0.12562085  0.12109461  1
  V  V46  1  0.36708606  0.61830790  0.26081557  1
  V  V47  1  0.50119308  0.24543082  0.75178665  1
  V  V48  1  0.84519671  0.32910296  0.50685814  1
  V  V49  1  0.24502272  0.74241891  -0.00599424  1
  V  V50  1  0.49800700  0.38285504  0.87400187  1
  V  V51  1  0.37509447  0.38803444  0.50426745  1
  V  V52  1  0.24480518  0.00121834  0.76791213  1
  V  V53  1  0.37711870  0.12417071  0.24910243  1
  V  V54  1  0.12457241  0.10663053  0.50603737  1
  V  V55  1  0.12777787  0.00243570  0.12795225  1
  V  V56  1  0.62983822  0.86574994  0.24441436  1
  V  V57  1  0.62564578  0.62793873  0.48636725  1
  V  V58  1  0.23469689  0.47958413  0.24896395  1
  V  V59  1  0.87312712  0.75597737  0.62059539  1
  V  V60  1  0.37070157  0.25381004  0.12660598  1
  V  V61  1  0.62353226  0.13390521  -0.01125941  1
  V  V62  1  0.50537981  0.12682093  0.12748550  1
  V  V63  1  0.37867540  0.87611166  -0.01363910  1
  V  V64  1  0.75395111  0.74707707  0.48229586  1
  V  V65  1  0.23208277  0.87983709  0.62327506  1
  V  V66  1  0.49590758  -0.00018195  -0.01122482  1
  V  V67  1  0.11439451  0.75551977  0.36075587  1
  V  V68  1  0.42277562  0.92085323  0.54611715  1
  V  V69  1  0.00375081  0.88680762  0.37404267  1
  V  V70  1  0.50392068  0.50433011  0.00066115  1
  V  V71  1  0.67912850  0.55108119  0.17753461  1
  V  V72  1  0.11717185  0.86499265  0.76145389  1
  Zn  Zn73  1  0.68988796  0.23210015  0.43795680  1
  Zn  Zn74  1  0.75262347  0.37796237  0.62762365  1
  Zn  Zn75  1  0.12709686  0.41721547  0.73034623  1
  Zn  Zn76  1  -0.01261341  0.37097612  0.85813081  1
  Zn  Zn77  1  0.01377252  0.25305035  0.73686260  1
  Zn  Zn78  1  -0.01850076  -0.03327503  -0.02219967  1
  Zn  Zn79  1  0.49922935  0.62735501  0.62924532  1
  Zn  Zn80  1  0.38963224  0.61746455  0.78402476  1
  Zn  Zn81  1  0.86375302  -0.00217904  0.87886662  1
  Zn  Zn82  1  0.19081957  0.18742720  0.18847949  1
  Zn  Zn83  1  0.19570093  0.17657953  0.68345385  1
  Zn  Zn84  1  0.18818459  0.67784337  0.18155469  1
  Zn  Zn85  1  0.17729756  0.68965344  0.67921669  1
  Zn  Zn86  1  0.71654549  0.21976326  0.24897147  1
  Zn  Zn87  1  0.68323720  0.16961610  0.64918018  1
  Zn  Zn88  1  0.74070919  0.71717173  0.20756639  1
  Zn  Zn89  1  0.69017585  0.69079051  0.68652564  1
  Zn  Zn90  1  0.31218287  0.31612249  0.31593842  1
  Zn  Zn91  1  0.31383014  0.31824681  0.81296667  1
  Zn  Zn92  1  0.31456220  0.80649906  0.31112017  1
  Zn  Zn93  1  0.30520211  0.80536659  0.81050222  1
  Zn  Zn94  1  0.82167215  0.34770401  0.32023847  1
  Zn  Zn95  1  0.84008668  0.29161630  0.82377065  1
  Zn  Zn96  1  0.82511208  0.82877929  0.30728983  1
  Zn  Zn97  1  0.80862443  0.81817430  0.81261671  1
  Zn  Zn98  1  0.18860107  0.44541802  0.42055842  1
  Zn  Zn99  1  0.18343097  0.43924358  0.94513370  1
  Zn  Zn100  1  0.19210183  0.93093231  0.43131880  1
  Zn  Zn101  1  0.16525035  0.92244296  0.94779031  1
  Zn  Zn102  1  0.68467852  0.43168365  0.44118590  1
  Zn  Zn103  1  0.69480852  0.43800126  0.93303561  1
  Zn  Zn104  1  0.69264267  0.93172813  0.42800181  1
  Zn  Zn105  1  0.67692369  0.94367821  0.93206622  1
  Zn  Zn106  1  0.31315431  0.05570740  -0.07345304  1
  Zn  Zn107  1  0.48551157  0.09135957  0.61555718  1
  Zn  Zn108  1  0.30763394  0.56273224  0.07087403  1
  Zn  Zn109  1  0.30436461  0.56730008  0.56114993  1
  Zn  Zn110  1  0.82119614  0.07570109  0.04398361  1
  Zn  Zn111  1  0.80237431  0.08052961  0.55837025  1
  Zn  Zn112  1  0.83066198  0.56630551  0.06234013  1
  Zn  Zn113  1  0.81065322  0.56357813  0.56076946  1
  Zn  Zn114  1  0.43425493  0.44204198  0.18447749  1
  Zn  Zn115  1  0.43888383  0.43645517  0.68146677  1
  Zn  Zn116  1  0.44118157  0.93710867  0.18135376  1
  Zn  Zn117  1  0.42298132  0.92226909  0.71620952  1
  Zn  Zn118  1  0.93381039  0.44600780  0.19123902  1
  Zn  Zn119  1  0.93678487  0.42907138  0.67934991  1
  Zn  Zn120  1  0.94474728  0.94082995  0.18960683  1
  Zn  Zn121  1  0.93263797  0.93889704  0.68711799  1
  Zn  Zn122  1  0.06398280  0.07052615  0.31308001  1
  Zn  Zn123  1  0.06105541  0.05196913  0.79906132  1
  Zn  Zn124  1  0.06190532  0.56246131  0.31287337  1
  Zn  Zn125  1  0.04536794  0.57907385  0.82313948  1
  Zn  Zn126  1  0.57074370  0.06750265  0.31847077  1
  Zn  Zn127  1  0.57280055  0.06319759  0.80601629  1
  Zn  Zn128  1  0.55140017  0.57054081  0.31384030  1
  Zn  Zn129  1  0.56515446  0.56426855  0.81087170  1
  Zn  Zn130  1  0.47965933  0.20760206  0.46348113  1
  Zn  Zn131  1  0.44066892  0.19218094  0.93322672  1
  Zn  Zn132  1  0.44246674  0.68447152  0.44224658  1
  Zn  Zn133  1  0.43699468  0.68647043  0.94143987  1
  Zn  Zn134  1  0.94542301  0.18085225  0.44182487  1
  Zn  Zn135  1  0.95180218  0.15073709  0.89911269  1
  Zn  Zn136  1  0.93575443  0.68646305  0.42991351  1
  Zn  Zn137  1  0.92989406  0.68294956  0.94516757  1
  Zn  Zn138  1  0.05897187  0.29975120  0.05037531  1
  Zn  Zn139  1  0.07260424  0.29913771  0.56668671  1
  Zn  Zn140  1  0.06227275  0.81176759  0.06487917  1
  Zn  Zn141  1  0.05714606  0.81564755  0.55250014  1
  Zn  Zn142  1  0.55945386  0.31684186  0.06692255  1
  Zn  Zn143  1  0.56408109  0.32086832  0.56772257  1
  Zn  Zn144  1  0.56714942  0.81253356  0.05888374  1
  Zn  Zn145  1  0.56645678  0.80640303  0.55715259  1
  O  O146  1  0.11898140  0.12080592  0.12764989  1
  O  O147  1  0.13879190  0.11666272  0.60517408  1
  O  O148  1  0.10618969  0.63529823  0.11773644  1
  O  O149  1  0.10317672  0.63996061  0.60393628  1
  O  O150  1  0.61068568  0.11952039  0.12307851  1
  O  O151  1  0.59554846  0.11161497  0.61167005  1
  O  O152  1  0.62294008  0.61691233  0.11664217  1
  O  O153  1  0.62624479  0.61663192  0.62314895  1
  O  O154  1  0.38546998  0.37303476  0.38670615  1
  O  O155  1  0.38555340  0.37329421  0.89262387  1
  O  O156  1  0.39173943  0.88012114  0.35976698  1
  O  O157  1  0.37464936  0.86180471  0.88840203  1
  O  O158  1  0.88362046  0.36995256  0.42241545  1
  O  O159  1  0.87193649  0.39276455  0.86274304  1
  O  O160  1  0.88385796  0.89440392  0.37810516  1
  O  O161  1  0.88329952  0.88837800  0.85699802  1
  O  O162  1  0.26271860  0.00046947  0.36583659  1
  O  O163  1  0.23424908  -0.01225683  0.87438194  1
  O  O164  1  0.25767529  0.50000472  0.35245665  1
  O  O165  1  0.24396960  0.46352691  0.84628542  1
  O  O166  1  0.76624320  -0.00347935  0.36121722  1
  O  O167  1  0.74151941  -0.00315470  0.85513219  1
  O  O168  1  0.77137887  0.49076962  0.39576416  1
  O  O169  1  0.75969335  0.49822184  0.85899222  1
  O  O170  1  0.25104080  0.50619687  0.14845101  1
  O  O171  1  0.28822844  0.50881735  0.66665623  1
  O  O172  1  0.24673803  0.99249236  0.13705539  1
  O  O173  1  0.24568990  0.97608351  0.64069503  1
  O  O174  1  0.74864782  0.49406263  0.12291167  1
  O  O175  1  0.74161339  0.49903783  0.63247587  1
  O  O176  1  0.73747684  1.01101091  0.12848522  1
  O  O177  1  0.75067411  0.98205890  0.62134998  1
  O  O178  1  0.04508549  0.37558211  0.20478453  1
  O  O179  1  0.01708984  0.37785692  0.74173935  1
  O  O180  1  -0.00488579  0.87868102  0.26973590  1
  O  O181  1  0.00590913  0.86349831  0.74330196  1
  O  O182  1  0.49929651  0.37482492  0.25931420  1
  O  O183  1  0.50408139  0.38315791  0.75985745  1
  O  O184  1  0.51275809  0.87404410  0.25255595  1
  O  O185  1  0.51219349  0.86359747  0.74484596  1
  O  O186  1  0.49747435  0.13349350  0.24836765  1
  O  O187  1  0.51000882  0.14552004  0.75363191  1
  O  O188  1  0.49322087  0.62441794  0.23320389  1
  O  O189  1  0.49290691  0.61413732  0.74222948  1
  O  O190  1  0.99072348  0.12228050  0.23538974  1
  O  O191  1  1.02213598  0.13270290  0.73017594  1
  O  O192  1  1.00131318  0.62570693  0.23878687  1
  O  O193  1  0.99949554  0.64052021  0.73041882  1
  O  O194  1  0.36971851  0.25666493  0.00669761  1
  O  O195  1  0.37708626  0.25235944  0.51030885  1
  O  O196  1  0.36888551  0.76003248  0.01197284  1
  O  O197  1  0.35566558  0.74527269  0.49853909  1
  O  O198  1  0.84729411  0.24844737  0.02331709  1
  O  O199  1  0.86276038  0.23033560  0.50134802  1
  O  O200  1  0.86649351  0.76324793  -0.00034725  1
  O  O201  1  0.86261455  0.74612463  0.50482459  1
  O  O202  1  0.14719645  0.23831348  0.49374575  1
  O  O203  1  0.14825298  0.23781702  1.01421851  1
  O  O204  1  0.13012235  0.74450286  0.48823545  1
  O  O205  1  0.14243077  0.74653869  1.00877886  1
  O  O206  1  0.58994344  0.24253897  0.49410948  1
  O  O207  1  0.62408249  0.24237877  1.00362084  1
  O  O208  1  0.63977554  0.73803272  0.49989904  1
  O  O209  1  0.63828691  0.74213937  0.99409292  1
  O  O210  1  0.49223444  0.24468584  0.13439417  1
  O  O211  1  0.48950022  0.26088041  0.63957134  1
  O  O212  1  0.49376439  0.74101724  0.11417950  1
  O  O213  1  0.47610848  0.75899627  0.61563256  1
  O  O214  1  0.98174886  0.24723748  0.11689589  1
  O  O215  1  1.00177824  0.23098918  0.62110794  1
  O  O216  1  0.98769934  0.75014589  0.12342627  1
  O  O217  1  0.98342748  0.74903056  0.61796872  1
  O  O218  1  0.01880184  0.24202482  0.38006773  1
  O  O219  1  -0.04778957  0.24877511  0.83981265  1
  O  O220  1  0.00784879  0.76107646  0.37425369  1
  O  O221  1  -0.01683446  0.74089100  0.85464543  1
  O  O222  1  0.48964338  0.25946062  0.36084422  1
  O  O223  1  0.49614982  0.26690130  0.85951143  1
  O  O224  1  0.50028755  0.76412279  0.37454308  1
  O  O225  1  0.52083907  0.74842507  0.88784669  1
  O  O226  1  0.25087023  0.12850045  0.48635520  1
  O  O227  1  0.24900841  0.13526055  0.99290437  1
  O  O228  1  0.23193211  0.63744810  0.50558296  1
  O  O229  1  0.24252189  0.63854929  1.01360163  1
  O  O230  1  0.71446460  0.14444929  0.52862729  1
  O  O231  1  0.72743658  0.14270429  1.01525957  1
  O  O232  1  0.74246207  0.63831318  0.49909627  1
  O  O233  1  0.73938193  0.61905880  1.00317977  1
  O  O234  1  0.26425635  0.36724763  0.00102926  1
  O  O235  1  0.26459294  0.35706366  0.49078860  1
  O  O236  1  0.26118833  0.86731289  0.00997138  1
  O  O237  1  0.24071309  0.86125737  0.51125836  1
  O  O238  1  0.72943047  0.36231912  0.01527349  1
  O  O239  1  0.73893890  0.34675628  0.50636447  1
  O  O240  1  0.73984463  0.87533260  0.00015247  1
  O  O241  1  0.73831007  0.85912984  0.51024245  1
  O  O242  1  0.13278292  0.49512400  0.25893679  1
  O  O243  1  0.12946561  0.53769053  0.74271357  1
  O  O244  1  0.13912639  1.00980240  0.24331816  1
  O  O245  1  0.13138949  0.97379699  0.75442014  1
  O  O246  1  0.61533149  0.49845549  0.24233147  1
  O  O247  1  0.63549357  0.49636875  0.74112345  1
  O  O248  1  0.63392749  1.00429872  0.24186635  1
  O  O249  1  0.62409289  0.97741400  0.74919754  1
  O  O250  1  0.37194344  0.00637063  0.25124249  1
  O  O251  1  0.34528051  -0.01898068  0.76320967  1
  O  O252  1  0.37511819  0.51578460  0.24660730  1
  O  O253  1  0.35338746  0.51376515  0.71325595  1
  O  O254  1  0.86876221  0.01089339  0.24761921  1
  O  O255  1  0.85272825  0.00123210  0.74551513  1
  O  O256  1  0.88248689  0.44798660  0.29038083  1
  O  O257  1  0.85916052  0.49695331  0.73385030  1
  O  O258  1  0.13271495  0.35422255  0.38629271  1
  O  O259  1  0.10279877  0.36265450  0.91125479  1
  O  O260  1  0.11711987  0.86704367  0.37028543  1
  O  O261  1  0.12780367  0.85252907  0.85759588  1
  O  O262  1  0.60615839  0.38819065  0.36653840  1
  O  O263  1  0.61615965  0.38371904  0.86114540  1
  O  O264  1  0.61328826  0.88185109  0.35716138  1
  O  O265  1  0.62602198  0.86365855  0.86211110  1
  O  O266  1  0.38898140  0.13205983  0.13976169  1
  O  O267  1  0.38581503  0.14171427  0.63356010  1
  O  O268  1  0.38470168  0.63510171  0.12683899  1
  O  O269  1  0.37770424  0.63995367  0.61160980  1
  O  O270  1  0.88434081  0.13164868  0.12932027  1
  O  O271  1  0.88612813  0.11836224  0.62507515  1
  O  O272  1  0.88863967  0.64557510  0.11536805  1
  O  O273  1  0.88445770  0.63923222  0.61590033  1
  O  O274  1  0.26772864  0.24076751  0.11939944  1
  O  O275  1  0.26824998  0.23839385  0.60854295  1
  O  O276  1  0.25987038  0.75930715  0.12315463  1
  O  O277  1  0.25440131  0.75316398  0.61493279  1
  O  O278  1  0.75284833  0.26469322  0.13761535  1
  O  O279  1  0.76467447  0.25387308  0.66720551  1
  O  O280  1  0.76124002  0.75130992  0.09911073  1
  O  O281  1  0.76146103  0.75440230  0.61910776  1
  O  O282  1  0.25846226  0.23706336  0.38476666  1
  O  O283  1  0.25317098  0.25553770  0.88920468  1
  O  O284  1  0.23818707  0.76232591  0.38668793  1
  O  O285  1  0.25350902  0.74895573  0.89491365  1
  O  O286  1  0.75240302  0.26238836  0.34996482  1
  O  O287  1  0.75189863  0.25741258  0.89533634  1
  O  O288  1  0.76108971  0.76112515  0.38403593  1
  O  O289  1  0.74270191  0.75618526  0.88880810  1
  O  O290  1  0.02096951  0.13802478  0.01148476  1
  O  O291  1  0.01782981  0.12120031  0.51108040  1
  O  O292  1  0.01190051  0.63254278  0.00876201  1
  O  O293  1  0.00502405  0.62055475  0.50363366  1
  O  O294  1  0.50726961  0.12386772  0.00780931  1
  O  O295  1  0.50206832  0.10071778  0.49436462  1
  O  O296  1  0.51481633  0.62122052  0.00805337  1
  O  O297  1  0.52103601  0.63550591  0.50918610  1
  O  O298  1  0.48922289  0.38037884  0.48852966  1
  O  O299  1  0.49814304  0.38412228  0.99342405  1
  O  O300  1  0.49602988  0.87412280  0.48739187  1
  O  O301  1  0.48735410  0.88369446  1.00667652  1
  O  O302  1  1.02534761  0.39638421  0.52257665  1
  O  O303  1  1.03661769  0.37429464  0.96880652  1
  O  O304  1  1.00258063  0.87832667  0.47810682  1
  O  O305  1  1.05935202  0.89298029  0.98847212  1
  O  O306  1  0.48954856  0.49503431  0.37529066  1
  O  O307  1  0.50157051  0.49517295  0.88780470  1
  O  O308  1  0.49174548  0.99100684  0.36431114  1
  O  O309  1  0.51002454  1.00485652  0.89001610  1
  O  O310  1  0.99892424  0.49666826  0.39222270  1
  O  O311  1  0.98322478  0.49616048  0.86619856  1
  O  O312  1  0.99050361  0.99842510  0.37060662  1
  O  O313  1  0.98301290  1.03589238  0.87959034  1
  O  O314  1  0.01466089  0.00961090  0.12324766  1
  O  O315  1  0.00092079  0.01313596  0.63357485  1
  O  O316  1  -0.01830498  0.51971240  0.12364132  1
  O  O317  1  -0.00585482  0.51868245  0.61708502  1
  O  O318  1  0.50569462  0.01012193  0.11559252  1
  O  O319  1  0.46932056  -0.02373927  0.61891663  1
  O  O320  1  0.49615689  0.51119149  0.10929953  1
  O  O321  1  0.51832244  0.49980435  0.62273908  1
  O  O322  1  0.25388003  0.37841710  0.24507084  1
  O  O323  1  0.23172566  0.40338638  0.79226881  1
  O  O324  1  0.25929234  0.88460524  0.24327560  1
  O  O325  1  0.23267545  0.86146857  0.73858708  1
  O  O326  1  0.73131565  0.38426878  0.24310740  1
  O  O327  1  0.73414698  0.38117602  0.75069366  1
  O  O328  1  0.73659629  0.89183213  0.25094738  1
  O  O329  1  0.74023621  0.88049155  0.73439531  1
  O  O330  1  0.26105315  0.11622719  0.25802388  1
  O  O331  1  0.23527211  0.09999023  0.75567851  1
  O  O332  1  0.26566798  0.62828656  0.25077647  1
  O  O333  1  0.19552391  0.58397034  0.73868112  1
  O  O334  1  0.76807832  0.11700787  0.24596295  1
  O  O335  1  0.72219737  0.09943215  0.73231916  1
  O  O336  1  0.73291935  0.60837929  0.23765100  1
  O  O337  1  0.75115370  0.61530301  0.74662213  1
  O  O338  1  0.37244450  0.11225206  0.36213581  1
  O  O339  1  0.37915787  0.12560961  0.87218997  1
  O  O340  1  0.38743446  0.63296462  0.35840545  1
  O  O341  1  0.36497995  0.62136704  0.88946821  1
  O  O342  1  0.88868653  0.11668347  0.35710903  1
  O  O343  1  0.85066587  0.10307834  0.92800125  1
  O  O344  1  0.88266469  0.60476455  0.36683180  1
  O  O345  1  0.87433351  0.60314979  0.88553173  1
  O  O346  1  0.09259277  0.37472272  0.14660010  1
  O  O347  1  0.15113642  0.33145257  0.65506514  1
  O  O348  1  0.14121673  0.88647269  0.12543037  1
  O  O349  1  0.12946597  0.86619079  0.62794814  1
  O  O350  1  0.62635663  0.37894884  0.13803991  1
  O  O351  1  0.62705478  0.39031350  0.63414944  1
  O  O352  1  0.61550261  0.89004205  0.13558712  1
  O  O353  1  0.63521395  0.85708350  0.63654792  1
  O  O354  1  0.13656905  0.24364383  0.26859531  1
  O  O355  1  0.14283733  0.27224396  0.71967064  1
  O  O356  1  0.13408427  0.74246476  0.26490483  1
  O  O357  1  0.10320334  0.75396491  0.73954235  1
  O  O358  1  0.61016940  0.26695884  0.24844234  1
  O  O359  1  0.60823607  0.27209358  0.73881165  1
  O  O360  1  0.64044621  0.76788081  0.23872563  1
  O  O361  1  0.63239770  0.75401454  0.76453366  1
  O  O362  1  0.38031937  0.24330765  0.24512051  1
  O  O363  1  0.38195255  0.26553150  0.73792121  1
  O  O364  1  0.37499177  0.74101141  0.23715900  1
  O  O365  1  0.36043798  0.73784718  0.73394274  1
  O  O366  1  0.87306405  0.23645907  0.23780090  1
  O  O367  1  0.81974751  0.23483725  0.72048892  1
  O  O368  1  0.84949488  0.75698897  0.22447531  1
  O  O369  1  0.88145333  0.75551623  0.73159417  1
  O  O370  1  0.35953641  0.48602450  0.50481726  1
  O  O371  1  0.37860752  0.48761976  1.00743840  1
  O  O372  1  0.37187296  0.98178043  0.48522237  1
  O  O373  1  0.37908025  0.98387162  0.99472721  1
  O  O374  1  0.89358200  0.50706587  0.49633558  1
  O  O375  1  0.86660086  0.48531121  0.99319734  1
  O  O376  1  0.86472165  1.01913632  0.48160204  1
  O  O377  1  0.87278352  0.98373092  1.00238788  1
  O  O378  1  0.14412142  0.02274719  0.01725518  1
  O  O379  1  0.13408997  0.00923449  0.48901178  1
  O  O380  1  0.13785112  0.51989201  0.00700596  1
  O  O381  1  0.12085587  0.51859232  0.49103872  1
  O  O382  1  0.61878149  0.01403409  0.00694748  1
  O  O383  1  0.62906544  -0.00371691  0.49736496  1
  O  O384  1  0.62033853  0.51303284  -0.00916344  1
  O  O385  1  0.63741594  0.51332187  0.51289179  1
  O  O386  1  0.38842526  0.36456531  0.11041837  1
  O  O387  1  0.37991332  0.36783291  0.60806844  1
  O  O388  1  0.36933831  0.86862002  0.12135728  1
  O  O389  1  0.36012611  0.86307884  0.61608412  1
  O  O390  1  0.86484534  0.36549165  0.13607214  1
  O  O391  1  0.87133870  0.37088566  0.60039221  1
  O  O392  1  0.88818482  0.86985067  0.11853942  1
  O  O393  1  0.86069356  0.86533925  0.62159363  1
  O  O394  1  0.13699896  0.13043895  0.38386710  1
  O  O395  1  0.12157607  0.12370985  0.89102176  1
  O  O396  1  0.11189634  0.64193741  0.38629347  1
  O  O397  1  0.11741507  0.63061059  0.89474255  1
  O  O398  1  0.63065438  0.12249820  0.39647404  1
  O  O399  1  0.62354025  0.12675592  0.89034718  1
  O  O400  1  0.62282311  0.61788563  0.38736520  1
  O  O401  1  0.62830778  0.63456192  0.88495758  1
