# generated using pymatgen
data_V73Zn73O256
_symmetry_space_group_name_H-M   'P 1'
_cell_length_a   16.92049527
_cell_length_b   16.88354384
_cell_length_c   16.87238219
_cell_angle_alpha   90.05575466
_cell_angle_beta   89.59580999
_cell_angle_gamma   89.83290325
_symmetry_Int_Tables_number   1
_chemical_formula_structural   V73Zn73O256
_chemical_formula_sum   'V73 Zn73 O256'
_cell_volume   4819.92429905
_cell_formula_units_Z   1
loop_
 _symmetry_equiv_pos_site_id
 _symmetry_equiv_pos_as_xyz
  1  'x, y, z'
loop_
 _atom_site_type_symbol
 _atom_site_label
 _atom_site_symmetry_multiplicity
 _atom_site_fract_x
 _atom_site_fract_y
 _atom_site_fract_z
 _atom_site_occupancy
  V  V0  1  0.39545791  0.00499549  0.86522033  1
  V  V1  1  0.49149051  0.62313118  0.13161411  1
  V  V2  1  0.75595450  0.38937774  0.64225499  1
  V  V3  1  0.12176884  -0.00364729  0.62170438  1
  V  V4  1  0.12741211  0.00772225  0.12063981  1
  V  V5  1  0.38044677  0.36624575  0.49770196  1
  V  V6  1  0.87983500  0.36649115  0.50370631  1
  V  V7  1  0.63591105  0.62674534  0.00323505  1
  V  V8  1  0.39581032  0.00460099  0.37582352  1
  V  V9  1  0.38816267  0.13055073  0.23697542  1
  V  V10  1  0.48959401  0.74895308  0.73319188  1
  V  V11  1  0.37964601  0.86753303  0.49416439  1
  V  V12  1  0.25793899  0.86921721  0.12123865  1
  V  V13  1  -0.01399390  0.23775344  0.74420469  1
  V  V14  1  0.00397396  0.63035591  0.12562982  1
  V  V15  1  0.62845640  0.51384208  0.63734416  1
  V  V16  1  0.25893498  0.75275143  -0.00447435  1
  V  V17  1  0.00130555  0.01204864  0.00862302  1
  V  V18  1  0.71596926  0.25513994  0.51855186  1
  V  V19  1  0.11957417  0.22400945  0.88823069  1
  V  V20  1  0.88130615  0.23870425  0.14992971  1
  V  V21  1  0.25281391  0.36675683  0.62633122  1
  V  V22  1  0.25838678  0.50706071  0.76075692  1
  V  V23  1  0.36166804  0.49940068  0.36716683  1
  V  V24  1  0.24734084  0.24336232  0.49406998  1
  V  V25  1  0.74891045  0.49135530  0.25312919  1
  V  V26  1  0.74738884  0.88162684  0.63351533  1
  V  V27  1  -0.01134887  0.88598644  0.38619092  1
  V  V28  1  0.62658400  0.25603123  0.86084550  1
  V  V29  1  0.88290619  0.49487201  0.37641560  1
  V  V30  1  0.12600593  0.75279395  0.87057399  1
  V  V31  1  0.87642878  0.37499220  0.00399120  1
  V  V32  1  0.12164821  0.39073239  0.23340774  1
  V  V33  1  0.25091931  0.63725934  0.36279720  1
  V  V34  1  0.12194385  0.50104899  0.62323974  1
  V  V35  1  0.76069184  0.01473655  0.26230389  1
  V  V36  1  0.75299197  0.62497667  0.37608926  1
  V  V37  1  0.36817665  0.35866434  -0.02584069  1
  V  V38  1  0.75734541  0.24701401  0.00351638  1
  V  V39  1  0.12398286  0.12086598  0.49103023  1
  V  V40  1  0.87993951  0.50170622  0.86820643  1
  V  V41  1  0.75947970  0.75791872  0.49818816  1
  V  V42  1  0.00244122  0.50445373  0.50105115  1
  V  V43  1  0.50244169  -0.03980303  0.00581817  1
  V  V44  1  0.25220314  0.00305385  0.25918235  1
  V  V45  1  0.87813625  0.62920396  0.24681846  1
  V  V46  1  0.61826946  0.75556964  0.36962347  1
  V  V47  1  0.13189764  0.63692023  0.49500511  1
  V  V48  1  0.62783554  0.49315824  0.13278920  1
  V  V49  1  0.12524748  0.86658389  0.25650214  1
  V  V50  1  0.24539815  0.00703679  0.75201148  1
  V  V51  1  0.62871257  0.00540881  0.12787055  1
  V  V52  1  0.00595878  0.49317440  0.00625671  1
  V  V53  1  0.76005658  0.62765199  0.85992942  1
  V  V54  1  0.48862946  0.75152829  0.24926941  1
  V  V55  1  0.87925693  0.74472973  0.62885310  1
  V  V56  1  0.59258030  0.26299968  0.33867754  1
  V  V57  1  0.61958816  0.62505895  0.49873786  1
  V  V58  1  -0.00055499  0.87512793  0.86408053  1
  V  V59  1  0.11292523  0.36855399  0.75850695  1
  V  V60  1  0.00108623  0.74970118  0.25659451  1
  V  V61  1  0.75646046  0.87459940  0.13165156  1
  V  V62  1  0.51019081  0.50177875  -0.02591808  1
  V  V63  1  0.50737983  0.01426213  0.52016822  1
  V  V64  1  -0.00240939  0.73157883  0.74867232  1
  V  V65  1  0.25675650  0.86494394  0.62405578  1
  V  V66  1  0.76004424  0.12322953  0.86534615  1
  V  V67  1  0.75979201  0.74907432  0.00631625  1
  V  V68  1  0.49961100  0.49947050  0.49572912  1
  V  V69  1  0.61328629  0.12915402  0.00187288  1
  V  V70  1  0.12654872  0.62712868  -0.00182794  1
  V  V71  1  0.87621732  0.00347648  0.86544500  1
  V  V72  1  0.88140065  0.87229357  0.00918228  1
  Zn  Zn73  1  0.74645341  0.36824047  0.13529408  1
  Zn  Zn74  1  0.59867051  0.41111658  0.77305610  1
  Zn  Zn75  1  0.60072458  0.77738800  0.88019049  1
  Zn  Zn76  1  0.45033902  0.31834606  0.78960454  1
  Zn  Zn77  1  -0.01198229  0.12780743  0.61698631  1
  Zn  Zn78  1  0.12568495  0.25077931  0.35670037  1
  Zn  Zn79  1  0.62256929  0.88453067  0.25763298  1
  Zn  Zn80  1  0.61750779  0.89210302  0.75189993  1
  Zn  Zn81  1  0.37851842  0.14002678  0.73242694  1
  Zn  Zn82  1  0.20127978  0.18701191  0.18346482  1
  Zn  Zn83  1  0.18034914  0.18212099  0.68527666  1
  Zn  Zn84  1  0.18946186  0.68395742  0.18235090  1
  Zn  Zn85  1  0.18788821  0.68438507  0.68512531  1
  Zn  Zn86  1  0.68658526  0.18987475  0.19026513  1
  Zn  Zn87  1  0.70262822  0.18506952  0.67924182  1
  Zn  Zn88  1  0.69086178  0.68332108  0.18748247  1
  Zn  Zn89  1  0.68060330  0.70251705  0.68557662  1
  Zn  Zn90  1  0.31282289  0.31150841  0.31083038  1
  Zn  Zn91  1  0.29036764  0.31330831  0.82278109  1
  Zn  Zn92  1  0.31490953  0.81698659  0.31756760  1
  Zn  Zn93  1  0.31710058  0.82558992  0.81364631  1
  Zn  Zn94  1  0.79152524  0.30160068  0.33389122  1
  Zn  Zn95  1  0.81579210  0.31746706  0.81801975  1
  Zn  Zn96  1  0.81429466  0.81728484  0.31345235  1
  Zn  Zn97  1  0.81034683  0.81620159  0.81548419  1
  Zn  Zn98  1  0.18143733  0.42748482  0.42875376  1
  Zn  Zn99  1  0.18637912  0.43147243  0.94195074  1
  Zn  Zn100  1  0.18899716  0.92830716  0.44220350  1
  Zn  Zn101  1  0.18471757  0.93418020  0.93738279  1
  Zn  Zn102  1  0.68561426  0.42858645  0.44039622  1
  Zn  Zn103  1  0.69776330  0.44030031  0.93651098  1
  Zn  Zn104  1  0.68311407  0.94234957  0.44325367  1
  Zn  Zn105  1  0.69055845  0.94034676  0.93938512  1
  Zn  Zn106  1  0.33189238  0.06199777  0.04569107  1
  Zn  Zn107  1  0.31690342  0.06185986  0.56704634  1
  Zn  Zn108  1  0.31359729  0.56650500  0.04976949  1
  Zn  Zn109  1  0.30101765  0.55262090  0.55399150  1
  Zn  Zn110  1  0.81487175  0.06537998  0.06539272  1
  Zn  Zn111  1  0.79550529  0.07742373  0.56575165  1
  Zn  Zn112  1  0.81760337  0.55899722  0.06801852  1
  Zn  Zn113  1  0.81547218  0.56783111  0.56430945  1
  Zn  Zn114  1  0.42516493  0.44365432  0.17151292  1
  Zn  Zn115  1  0.43263720  0.55475052  0.68545155  1
  Zn  Zn116  1  0.44005760  0.93586657  0.18668536  1
  Zn  Zn117  1  0.43569026  0.93283030  0.68751923  1
  Zn  Zn118  1  0.94082902  0.43130681  0.18802336  1
  Zn  Zn119  1  0.94281144  0.43832488  0.68424961  1
  Zn  Zn120  1  0.93953030  0.94363636  0.19481151  1
  Zn  Zn121  1  0.90948938  0.96046702  0.64731539  1
  Zn  Zn122  1  0.06925910  0.05934892  0.31707335  1
  Zn  Zn123  1  0.05932984  0.05858763  0.80585135  1
  Zn  Zn124  1  0.07038869  0.55839493  0.31315714  1
  Zn  Zn125  1  0.06772939  0.55779512  0.81793177  1
  Zn  Zn126  1  0.57227839  0.07914630  0.31412862  1
  Zn  Zn127  1  0.56183726  0.06364986  0.81773900  1
  Zn  Zn128  1  0.55862593  0.56278360  0.31507010  1
  Zn  Zn129  1  0.56140217  0.61025397  0.81824006  1
  Zn  Zn130  1  0.44280396  0.18848653  0.42696736  1
  Zn  Zn131  1  0.42021122  0.18400385  0.89876799  1
  Zn  Zn132  1  0.42822197  0.68908325  0.55632897  1
  Zn  Zn133  1  0.43547207  0.68361646  0.93794602  1
  Zn  Zn134  1  0.94420736  0.18998803  0.43605103  1
  Zn  Zn135  1  0.94583969  0.19415883  0.93470779  1
  Zn  Zn136  1  0.94372904  0.68900001  0.43820403  1
  Zn  Zn137  1  0.93929766  0.68617678  0.93760222  1
  Zn  Zn138  1  0.06432092  0.30435068  0.07574779  1
  Zn  Zn139  1  0.06203505  0.31187972  0.56515036  1
  Zn  Zn140  1  0.06613500  0.81472353  0.06551026  1
  Zn  Zn141  1  0.06257354  0.81721725  0.56782298  1
  Zn  Zn142  1  0.56252342  0.32142708  0.04521696  1
  Zn  Zn143  1  0.54794882  0.33481679  0.60712078  1
  Zn  Zn144  1  0.57770427  0.80387829  0.07753928  1
  Zn  Zn145  1  0.56236895  0.82430911  0.55971033  1
  O  O146  1  0.13239892  0.10611513  0.12960852  1
  O  O147  1  0.11930254  0.11085889  0.61390018  1
  O  O148  1  0.11595734  0.62765892  0.11205444  1
  O  O149  1  0.13373165  0.61078788  0.60802949  1
  O  O150  1  0.63212989  0.11841753  0.10947924  1
  O  O151  1  0.57166363  0.14668170  0.65013590  1
  O  O152  1  0.62588273  0.61454121  0.11818668  1
  O  O153  1  0.64098581  0.62012302  0.60943291  1
  O  O154  1  0.36620543  0.37968218  0.39284255  1
  O  O155  1  0.38348806  0.37695143  0.87254036  1
  O  O156  1  0.37122513  0.89171989  0.38378684  1
  O  O157  1  0.36511094  0.90923354  0.87977557  1
  O  O158  1  0.86368589  0.38566980  0.39431248  1
  O  O159  1  0.87087547  0.39112284  0.89083929  1
  O  O160  1  0.88860180  0.87362074  0.37589131  1
  O  O161  1  0.87892556  0.88728150  0.88734443  1
  O  O162  1  0.24819621  -0.00720046  0.35929770  1
  O  O163  1  0.22825462  -0.00837776  0.85083876  1
  O  O164  1  0.25884281  0.49646478  0.37656008  1
  O  O165  1  0.24015733  0.49303619  0.85937136  1
  O  O166  1  0.73905479  -0.00480573  0.36018871  1
  O  O167  1  0.76702190  0.01322839  0.88674234  1
  O  O168  1  0.75729060  0.50929544  0.37232605  1
  O  O169  1  0.76750508  0.51469551  0.87998567  1
  O  O170  1  0.28847214  0.46428579  0.09350502  1
  O  O171  1  0.23707616  0.48566672  0.62944912  1
  O  O172  1  0.24023212  0.98613983  0.12479930  1
  O  O173  1  0.24416805  0.99424423  0.63079181  1
  O  O174  1  0.74509112  0.49831481  0.13660076  1
  O  O175  1  0.74175116  0.50120826  0.62017690  1
  O  O176  1  0.74537253  0.99461519  0.13022112  1
  O  O177  1  0.75383439  0.97840347  0.60712459  1
  O  O178  1  0.01773448  0.37774823  0.24747259  1
  O  O179  1  0.00957943  0.36435389  0.74203568  1
  O  O180  1  0.00995066  0.86930048  0.25327364  1
  O  O181  1  -0.00306937  0.87220037  0.76538948  1
  O  O182  1  0.47119342  0.32953292  0.18849640  1
  O  O183  1  0.51597351  0.36246573  0.71449447  1
  O  O184  1  0.50948226  0.85524133  0.23739204  1
  O  O185  1  0.50227223  0.86116032  0.74591206  1
  O  O186  1  0.48815057  0.12074998  0.24547672  1
  O  O187  1  0.45510446  0.10198466  0.81673018  1
  O  O188  1  0.50275236  0.63187689  0.23953528  1
  O  O189  1  0.49720980  0.63682001  0.73044548  1
  O  O190  1  0.99598463  0.14925357  0.28521978  1
  O  O191  1  0.99884062  0.13253309  0.74086029  1
  O  O192  1  0.99829046  0.63000096  0.24689248  1
  O  O193  1  0.99996404  0.63300531  0.75374575  1
  O  O194  1  0.39402234  0.26160678  -0.01572282  1
  O  O195  1  0.36512207  0.26002566  0.49636616  1
  O  O196  1  0.35782803  0.74725959  -0.00742427  1
  O  O197  1  0.38907244  0.76890079  0.48514407  1
  O  O198  1  0.87221459  0.25881273  -0.00123029  1
  O  O199  1  0.89019406  0.26649104  0.50221822  1
  O  O200  1  0.87237285  0.76089049  -0.00009466  1
  O  O201  1  0.87041344  0.74353306  0.51024383  1
  O  O202  1  0.13457624  0.24271727  0.50038513  1
  O  O203  1  0.09836715  0.24519746  0.98613195  1
  O  O204  1  0.12123331  0.73454383  0.50641425  1
  O  O205  1  0.12740296  0.74431604  0.99176989  1
  O  O206  1  0.61840219  0.27756933  0.52652547  1
  O  O207  1  0.63550953  0.24395375  0.99622527  1
  O  O208  1  0.63125542  0.74315280  0.48665511  1
  O  O209  1  0.64105126  0.74064061  0.99918629  1
  O  O210  1  0.48074549  0.28160789  0.12969944  1
  O  O211  1  0.51811135  0.19763366  0.64760611  1
  O  O212  1  0.50996744  0.73278071  0.13615547  1
  O  O213  1  0.49640459  0.75329130  0.62558593  1
  O  O214  1  0.97991670  0.25379262  0.13466023  1
  O  O215  1  1.00085477  0.24611885  0.63716867  1
  O  O216  1  1.00417965  0.74029592  0.13790114  1
  O  O217  1  0.99264363  0.75597036  0.63920167  1
  O  O218  1  0.00086562  0.21217796  0.33440571  1
  O  O219  1  0.00992902  0.24495476  0.85470239  1
  O  O220  1  0.00094510  0.75820148  0.36190652  1
  O  O221  1  0.00148074  0.75434782  0.86460513  1
  O  O222  1  0.49231515  0.26862827  0.36233198  1
  O  O223  1  0.52618905  0.25471516  0.87166641  1
  O  O224  1  0.51612074  0.74245710  0.35888207  1
  O  O225  1  0.51060393  0.71493040  0.86382567  1
  O  O226  1  0.24199548  0.13885670  0.50989241  1
  O  O227  1  0.25572751  0.16598572  1.02481084  1
  O  O228  1  0.23677830  0.61970054  0.48670003  1
  O  O229  1  0.23921797  0.64177528  1.00697348  1
  O  O230  1  0.71762583  0.15596724  0.56419843  1
  O  O231  1  0.74883619  0.13479224  0.99327168  1
  O  O232  1  0.74597781  0.63338323  0.48892103  1
  O  O233  1  0.75130692  0.63378467  1.00966945  1
  O  O234  1  0.26644992  0.36049434  -0.02372534  1
  O  O235  1  0.25002588  0.36468323  0.50933479  1
  O  O236  1  0.24490820  0.86669545  0.01129994  1
  O  O237  1  0.26745010  0.87883867  0.50694317  1
  O  O238  1  0.75891428  0.36432863  0.00255125  1
  O  O239  1  0.76067472  0.36955449  0.51295596  1
  O  O240  1  0.76200154  0.86975841  0.00936420  1
  O  O241  1  0.74498656  0.85996082  0.50114598  1
  O  O242  1  0.13159181  0.49187123  0.24688158  1
  O  O243  1  0.12174043  0.48791869  0.74151505  1
  O  O244  1  0.13437459  0.99166473  0.24103450  1
  O  O245  1  0.13258810  1.00297229  0.73145618  1
  O  O246  1  0.63663891  0.50817090  0.24525835  1
  O  O247  1  0.62137740  0.52235147  0.73904399  1
  O  O248  1  0.63250294  1.00315683  0.24145789  1
  O  O249  1  0.62404699  1.00641323  0.74948019  1
  O  O250  1  0.36705390  -0.00492978  0.25835853  1
  O  O251  1  0.36168728  0.00227385  0.75744810  1
  O  O252  1  0.38469828  0.47891035  0.26991500  1
  O  O253  1  0.35789356  0.49396374  0.74680001  1
  O  O254  1  0.86109939  0.00238486  0.24975219  1
  O  O255  1  0.88284408  -0.00546416  0.76864427  1
  O  O256  1  0.87098463  0.50661842  0.25840173  1
  O  O257  1  0.89186540  0.49625075  0.76996860  1
  O  O258  1  0.11966397  0.36576837  0.36021530  1
  O  O259  1  0.11955849  0.37591108  0.85877804  1
  O  O260  1  0.12196201  0.87810867  0.35967770  1
  O  O261  1  0.11128316  0.86133790  0.88294676  1
  O  O262  1  0.64524150  0.34690755  0.37373267  1
  O  O263  1  0.64431668  0.36392957  0.86785718  1
  O  O264  1  0.62896220  0.85807620  0.37528983  1
  O  O265  1  0.65313149  0.87190104  0.86270106  1
  O  O266  1  0.37293044  0.10974922  0.13818953  1
  O  O267  1  0.37563614  0.13845770  0.62211121  1
  O  O268  1  0.39344216  0.61945084  0.11657053  1
  O  O269  1  0.37051913  0.61489877  0.61274870  1
  O  O270  1  0.87145995  0.13981350  0.12842670  1
  O  O271  1  0.89485374  0.06703597  0.60950469  1
  O  O272  1  0.88611857  0.62073411  0.13911054  1
  O  O273  1  0.87200712  0.64355178  0.62800501  1
  O  O274  1  0.25178701  0.21980931  0.07748450  1
  O  O275  1  0.24064731  0.26218964  0.62016866  1
  O  O276  1  0.24211502  0.76062904  0.11198173  1
  O  O277  1  0.24614355  0.76536718  0.63086498  1
  O  O278  1  0.75925771  0.25101812  0.11618157  1
  O  O279  1  0.74937390  0.28272367  0.62789647  1
  O  O280  1  0.74790239  0.76023639  0.11786030  1
  O  O281  1  0.76128366  0.75485221  0.61749207  1
  O  O282  1  0.24913964  0.24969841  0.39317403  1
  O  O283  1  0.21741540  0.24469412  0.87396732  1
  O  O284  1  0.25660938  0.73696479  0.37333591  1
  O  O285  1  0.23981489  0.76522199  0.88676974  1
  O  O286  1  0.75469790  0.23896240  0.42428014  1
  O  O287  1  0.75189212  0.23971339  0.88326751  1
  O  O288  1  0.74886323  0.74096102  0.37869022  1
  O  O289  1  0.76359037  0.73598302  0.88959546  1
  O  O290  1  -0.00568315  0.10951955  0.00125396  1
  O  O291  1  0.01927978  0.13279481  0.49923740  1
  O  O292  1  0.00572842  0.62309040  0.00930876  1
  O  O293  1  0.01612411  0.61391869  0.49052463  1
  O  O294  1  0.51652056  0.13436089  -0.00472598  1
  O  O295  1  0.49338022  0.11258909  0.49445130  1
  O  O296  1  0.51769686  0.61674353  0.01105077  1
  O  O297  1  0.51454658  0.62002948  0.49938231  1
  O  O298  1  0.48384836  0.38059303  0.51543512  1
  O  O299  1  0.49004762  0.40079938  0.99789330  1
  O  O300  1  0.48554465  0.89389295  0.50611702  1
  O  O301  1  0.51662877  0.86117160  0.99910510  1
  O  O302  1  0.98696160  0.38752825  0.50636742  1
  O  O303  1  0.99516589  0.38969767  1.00783946  1
  O  O304  1  1.00754657  0.87011983  0.48384488  1
  O  O305  1  0.99315535  0.87842888  0.99593141  1
  O  O306  1  0.49206937  0.50369227  0.38945031  1
  O  O307  1  0.52908483  0.50526245  0.87668869  1
  O  O308  1  0.49626067  0.99955396  0.36999104  1
  O  O309  1  0.49981839  0.99006661  0.90147873  1
  O  O310  1  0.98912613  0.50270295  0.38117378  1
  O  O311  1  0.98845155  0.51175582  0.89455095  1
  O  O312  1  1.00226013  0.98571457  0.36979433  1
  O  O313  1  0.99282380  0.99483858  0.88684020  1
  O  O314  1  0.01221383  -0.00387994  0.11801115  1
  O  O315  1  0.02404736  -0.02278889  0.62370814  1
  O  O316  1  -0.00406403  0.51311570  0.11254084  1
  O  O317  1  0.01004169  0.50125962  0.61464742  1
  O  O318  1  0.52182817  -0.01574709  0.11765260  1
  O  O319  1  0.48990703  0.00950462  0.62017199  1
  O  O320  1  0.51121684  0.51178667  0.12806176  1
  O  O321  1  0.52216936  0.50524079  0.61119112  1
  O  O322  1  0.23207376  0.36091228  0.24950046  1
  O  O323  1  0.23627203  0.37856380  0.73932303  1
  O  O324  1  0.24016855  0.87748576  0.24226986  1
  O  O325  1  0.25796430  0.88693472  0.73159616  1
  O  O326  1  0.75728619  0.38924716  0.25636775  1
  O  O327  1  0.76409859  0.38863902  0.74252632  1
  O  O328  1  0.75007402  0.88228112  0.24198612  1
  O  O329  1  0.75396719  0.87551552  0.73660244  1
  O  O330  1  0.25518956  0.10401154  0.24541425  1
  O  O331  1  0.25268157  0.11137035  0.74165569  1
  O  O332  1  0.24217961  0.62583703  0.26194006  1
  O  O333  1  0.23871897  0.60572595  0.74729530  1
  O  O334  1  0.74585266  0.11395974  0.24975681  1
  O  O335  1  0.75414828  0.12611237  0.76636308  1
  O  O336  1  0.76057783  0.61837298  0.25769759  1
  O  O337  1  0.75025500  0.63708564  0.76260702  1
  O  O338  1  0.37656865  0.10749549  0.36081114  1
  O  O339  1  0.34737465  0.07402979  0.92781157  1
  O  O340  1  0.35762709  0.60544435  0.37440378  1
  O  O341  1  0.38157728  0.58417754  0.91039177  1
  O  O342  1  0.86358121  0.10849480  0.39735843  1
  O  O343  1  0.87038824  0.11564852  0.88043177  1
  O  O344  1  0.87042000  0.61748944  0.36881699  1
  O  O345  1  0.86874896  0.61588344  0.87988574  1
  O  O346  1  0.12598314  0.37901392  0.12965707  1
  O  O347  1  0.12981397  0.38240467  0.63037686  1
  O  O348  1  0.13108730  0.88201660  0.13713470  1
  O  O349  1  0.14601693  0.88697846  0.60585121  1
  O  O350  1  0.62743826  0.39003626  0.11612473  1
  O  O351  1  0.64333314  0.40265402  0.63431634  1
  O  O352  1  0.64306218  0.88531441  0.12706609  1
  O  O353  1  0.64347622  0.86292741  0.62871051  1
  O  O354  1  0.14592253  0.26234863  0.24189757  1
  O  O355  1  0.11774941  0.25834225  0.75209969  1
  O  O356  1  0.11955180  0.76159599  0.24511794  1
  O  O357  1  0.11068150  0.74358686  0.75836419  1
  O  O358  1  0.61365503  0.26173978  0.23655916  1
  O  O359  1  0.64121376  0.24241954  0.76262934  1
  O  O360  1  0.63098521  0.74783183  0.26237046  1
  O  O361  1  0.60698441  0.75160230  0.75427372  1
  O  O362  1  0.35999141  0.22736697  0.24976425  1
  O  O363  1  0.37294841  0.23599659  0.79748331  1
  O  O364  1  0.39037685  0.75354442  0.25475089  1
  O  O365  1  0.39078152  0.75570571  0.76037982  1
  O  O366  1  0.85543774  0.25550553  0.24764242  1
  O  O367  1  0.88708676  0.25316039  0.75572235  1
  O  O368  1  0.88369207  0.73711704  0.25575211  1
  O  O369  1  0.88793657  0.75243517  0.74443678  1
  O  O370  1  0.38047584  0.48754472  0.49111320  1
  O  O371  1  0.39950777  0.52513393  0.96853860  1
  O  O372  1  0.38259926  1.00125628  0.48517111  1
  O  O373  1  0.40543012  0.97221826  1.02737142  1
  O  O374  1  0.88426717  0.50386897  0.49295990  1
  O  O375  1  0.88497424  0.49373330  0.99974044  1
  O  O376  1  0.85004731  1.05214679  0.44567415  1
  O  O377  1  0.88849011  0.99293202  1.00155755  1
  O  O378  1  0.11385591  -0.00559890  0.01060028  1
  O  O379  1  0.13832165  0.01432584  0.50389826  1
  O  O380  1  0.11214565  0.50829347  -0.00883604  1
  O  O381  1  0.11702886  0.49558816  0.50474745  1
  O  O382  1  0.61960284  0.01046031  0.00460994  1
  O  O383  1  0.60671918  -0.00254235  0.50354621  1
  O  O384  1  0.62261792  0.50555177  0.00726755  1
  O  O385  1  0.62032558  0.50783621  0.49620320  1
  O  O386  1  0.35982276  0.41965547  0.07894304  1
  O  O387  1  0.35459123  0.37659180  0.61123204  1
  O  O388  1  0.35530496  0.87278338  0.13619314  1
  O  O389  1  0.36532453  0.87946492  0.60936142  1
  O  O390  1  0.87023212  0.36822399  0.11657927  1
  O  O391  1  0.86498356  0.39491623  0.61225153  1
  O  O392  1  0.86971408  0.88204921  0.11916613  1
  O  O393  1  0.86258121  0.85923155  0.62275502  1
  O  O394  1  0.13110267  0.12928737  0.38670223  1
  O  O395  1  0.11612079  0.12289404  0.87952221  1
  O  O396  1  0.13657017  0.62160608  0.38402237  1
  O  O397  1  0.11860276  0.63818155  0.88714248  1
  O  O398  1  0.61808974  0.16714608  0.36901560  1
  O  O399  1  0.64077092  0.13349598  0.88696116  1
  O  O400  1  0.63620990  0.63135662  0.37941227  1
  O  O401  1  0.65237134  0.61959296  0.89218543  1
