# generated using pymatgen
data_V73Zn73O256
_symmetry_space_group_name_H-M   'P 1'
_cell_length_a   16.85922027
_cell_length_b   16.91651873
_cell_length_c   16.83514731
_cell_angle_alpha   90.13288834
_cell_angle_beta   89.90431978
_cell_angle_gamma   89.91858978
_symmetry_Int_Tables_number   1
_chemical_formula_structural   V73Zn73O256
_chemical_formula_sum   'V73 Zn73 O256'
_cell_volume   4801.34800895
_cell_formula_units_Z   1
loop_
 _symmetry_equiv_pos_site_id
 _symmetry_equiv_pos_as_xyz
  1  'x, y, z'
loop_
 _atom_site_type_symbol
 _atom_site_label
 _atom_site_symmetry_multiplicity
 _atom_site_fract_x
 _atom_site_fract_y
 _atom_site_fract_z
 _atom_site_occupancy
  V  V0  1  0.73899527  0.75113546  0.49410177  1
  V  V1  1  0.49598293  0.12451977  0.14306397  1
  V  V2  1  0.00446793  0.10769679  0.61507791  1
  V  V3  1  0.12678131  0.85599738  0.24670208  1
  V  V4  1  0.11438465  0.36062739  0.75223127  1
  V  V5  1  0.62356247  0.00486685  0.62721648  1
  V  V6  1  0.81409716  0.92580957  0.06715625  1
  V  V7  1  -0.00315606  0.62651784  0.13163497  1
  V  V8  1  0.49098974  0.00546971  -0.00257264  1
  V  V9  1  0.36239423  0.78716456  0.58563951  1
  V  V10  1  0.36653266  0.00946368  0.85996470  1
  V  V11  1  -0.01335025  0.88953479  0.88242388  1
  V  V12  1  0.25808097  0.35909262  0.61931863  1
  V  V13  1  0.49683893  -0.01154534  0.49917357  1
  V  V14  1  0.75109880  0.13163133  0.87381667  1
  V  V15  1  0.76011416  0.00365332  0.75661776  1
  V  V16  1  0.37994308  0.36402947  0.49415671  1
  V  V17  1  0.75786383  -0.00199424  0.25452363  1
  V  V18  1  0.61052868  0.25073109  0.37013646  1
  V  V19  1  0.88583897  0.25624695  0.62227197  1
  V  V20  1  0.13609701  0.88000951  0.74332503  1
  V  V21  1  0.49621190  0.37961821  0.89180268  1
  V  V22  1  0.13930255  0.11286383  0.49958618  1
  V  V23  1  0.11899205  -0.00323289  0.11686391  1
  V  V24  1  0.62760150  0.87176317  0.75496202  1
  V  V25  1  0.38302222  0.63245418  0.75003653  1
  V  V26  1  0.51080348  0.51262896  0.50217467  1
  V  V27  1  0.88853006  0.87984139  0.50455457  1
  V  V28  1  -0.00764467  0.49370522  0.49821351  1
  V  V29  1  0.13502275  0.62898149  0.48157015  1
  V  V30  1  0.74819881  0.39686873  0.12474816  1
  V  V31  1  0.36335298  0.50472918  0.37694654  1
  V  V32  1  0.88248575  0.73581086  0.62821081  1
  V  V33  1  0.75577585  0.51239496  0.75703074  1
  V  V34  1  0.23444197  0.61774326  0.88687493  1
  V  V35  1  0.62867319  -0.00371618  0.12325349  1
  V  V36  1  0.87321176  0.25855054  0.12241026  1
  V  V37  1  0.75776431  0.87706541  0.62889991  1
  V  V38  1  0.00289364  0.12994190  0.12562491  1
  V  V39  1  0.24909033  0.36992423  0.11245851  1
  V  V40  1  0.12219387  0.51023938  0.62205070  1
  V  V41  1  0.75672485  0.73054056  -0.00427813  1
  V  V42  1  0.24851481  0.01354960  0.25136883  1
  V  V43  1  0.74809150  0.38400420  0.62300762  1
  V  V44  1  0.25316176  0.49933965  0.74420851  1
  V  V45  1  0.50021016  0.87738258  0.87442677  1
  V  V46  1  0.12656666  0.50163757  0.12497689  1
  V  V47  1  0.00383383  0.73377581  0.74707405  1
  V  V48  1  0.61956360  0.12620905  0.50710162  1
  V  V49  1  0.62346466  0.25484490  0.87837718  1
  V  V50  1  0.37524151  0.49745004  0.89004473  1
  V  V51  1  0.88542614  0.49608240  0.88116816  1
  V  V52  1  0.12193426  0.36467527  0.25403595  1
  V  V53  1  0.13480420  0.24515838  0.38629197  1
  V  V54  1  0.88935581  0.12986349  0.75497209  1
  V  V55  1  0.11841529  0.74449682  0.89097236  1
  V  V56  1  0.25016319  0.14132585  0.86981026  1
  V  V57  1  0.62629697  0.87336297  0.26231969  1
  V  V58  1  0.59574994  0.51159649  0.11919568  1
  V  V59  1  0.88445883  0.13495806  0.25529372  1
  V  V60  1  0.75156133  0.25045685  0.50165734  1
  V  V61  1  0.26692289  0.87208721  0.10844256  1
  V  V62  1  0.48804624  0.73820127  0.24414408  1
  V  V63  1  0.13176018  0.13709967  -0.00213703  1
  V  V64  1  0.89131086  0.00264669  0.37947416  1
  V  V65  1  0.61875181  0.38803158  0.74428098  1
  V  V66  1  0.36334244  0.23855778  0.12546142  1
  V  V67  1  0.86038311  0.50024155  0.35986070  1
  V  V68  1  0.37253582  0.00303791  0.36745234  1
  V  V69  1  0.00494929  0.85147514  0.37249731  1
  V  V70  1  0.86762902  0.74072417  0.13691678  1
  V  V71  1  0.49077765  0.23972004  0.73762590  1
  V  V72  1  0.62611146  0.73996862  0.88317709  1
  Zn  Zn73  1  0.62481642  0.13272464  0.00501225  1
  Zn  Zn74  1  0.49740157  0.63283646  0.62792712  1
  Zn  Zn75  1  -0.01125827  0.36618918  0.37413359  1
  Zn  Zn76  1  0.61874879  0.37945992  0.25363418  1
  Zn  Zn77  1  0.00271871  0.51323432  -0.00806244  1
  Zn  Zn78  1  0.49934734  0.85847387  0.38676124  1
  Zn  Zn79  1  0.75560303  0.26481206  -0.00571100  1
  Zn  Zn80  1  0.36851942  0.61095056  0.24751899  1
  Zn  Zn81  1  0.75495351  0.12707999  0.37908743  1
  Zn  Zn82  1  0.18404679  0.19203018  0.19176168  1
  Zn  Zn83  1  0.19076694  0.18112782  0.68361908  1
  Zn  Zn84  1  0.20372822  0.68154080  0.16050979  1
  Zn  Zn85  1  0.19891628  0.69535720  0.68616041  1
  Zn  Zn86  1  0.69158967  0.18386539  0.18960732  1
  Zn  Zn87  1  0.68654356  0.19495661  0.69156051  1
  Zn  Zn88  1  0.65371729  0.71000728  0.15843418  1
  Zn  Zn89  1  0.69432508  0.65990474  0.64388184  1
  Zn  Zn90  1  0.31189359  0.31518003  0.30502967  1
  Zn  Zn91  1  0.31337103  0.31544776  0.80943910  1
  Zn  Zn92  1  0.32503990  0.83252948  0.29714417  1
  Zn  Zn93  1  0.31057084  0.80824356  0.83006172  1
  Zn  Zn94  1  0.80406175  0.32174463  0.31112322  1
  Zn  Zn95  1  0.81500051  0.31616491  0.80522307  1
  Zn  Zn96  1  0.81180573  0.81412186  0.31790676  1
  Zn  Zn97  1  0.81475315  0.80339312  0.81395858  1
  Zn  Zn98  1  0.19162578  0.43617511  0.43783376  1
  Zn  Zn99  1  0.17857098  0.42982208  0.93742720  1
  Zn  Zn100  1  0.17677358  0.93895850  0.42555528  1
  Zn  Zn101  1  0.18283513  0.93494664  0.92808488  1
  Zn  Zn102  1  0.68122857  0.43398270  0.43628785  1
  Zn  Zn103  1  0.69062000  0.44433010  0.94336899  1
  Zn  Zn104  1  0.69643236  0.93867917  0.44157305  1
  Zn  Zn105  1  0.68772238  0.94481708  0.93712562  1
  Zn  Zn106  1  0.30926689  0.05891714  0.06152613  1
  Zn  Zn107  1  0.31494667  0.04531605  0.56876098  1
  Zn  Zn108  1  0.32163316  0.56773747  0.06895000  1
  Zn  Zn109  1  0.31469046  0.56650053  0.55938857  1
  Zn  Zn110  1  0.81479520  0.08692916  0.06158950  1
  Zn  Zn111  1  0.81579010  0.06527295  0.56508662  1
  Zn  Zn112  1  0.82059585  0.56232576  0.05506308  1
  Zn  Zn113  1  0.81911812  0.57645910  0.51921088  1
  Zn  Zn114  1  0.43447367  0.42390292  0.18691833  1
  Zn  Zn115  1  0.43935256  0.44290486  0.68200457  1
  Zn  Zn116  1  0.44250541  0.93675992  0.18989182  1
  Zn  Zn117  1  0.43675967  0.93755985  0.68820852  1
  Zn  Zn118  1  0.93932992  0.44227684  0.19456434  1
  Zn  Zn119  1  0.93639879  0.44190935  0.68776475  1
  Zn  Zn120  1  0.94549464  0.93618474  0.19466908  1
  Zn  Zn121  1  0.94789290  0.93225993  0.70041191  1
  Zn  Zn122  1  0.06739481  0.06517115  0.31255248  1
  Zn  Zn123  1  0.06970656  0.06005514  0.81362819  1
  Zn  Zn124  1  0.05798977  0.55451274  0.30926100  1
  Zn  Zn125  1  0.06111697  0.55335981  0.80710086  1
  Zn  Zn126  1  0.57010005  0.06210333  0.32042759  1
  Zn  Zn127  1  0.56628663  0.06501663  0.81055991  1
  Zn  Zn128  1  0.52315024  0.53287949  0.29381910  1
  Zn  Zn129  1  0.54470916  0.57572322  0.95784967  1
  Zn  Zn130  1  0.43404253  0.17917873  0.44155853  1
  Zn  Zn131  1  0.43401383  0.19373492  0.94063906  1
  Zn  Zn132  1  0.43543040  0.68832462  0.43035801  1
  Zn  Zn133  1  0.40987041  0.70337421  0.95048831  1
  Zn  Zn134  1  0.94593504  0.19367472  0.43907882  1
  Zn  Zn135  1  0.94254933  0.18404704  0.94458917  1
  Zn  Zn136  1  0.94571210  0.67405451  0.44230017  1
  Zn  Zn137  1  0.93438266  0.67761180  0.93695556  1
  Zn  Zn138  1  0.06106436  0.31137414  0.06492760  1
  Zn  Zn139  1  0.07352395  0.31396994  0.56276054  1
  Zn  Zn140  1  0.04944578  0.81120556  0.06350620  1
  Zn  Zn141  1  0.07125018  0.80699972  0.56268452  1
  Zn  Zn142  1  0.54911557  0.32607176  0.08981744  1
  Zn  Zn143  1  0.55848650  0.31650022  0.55954583  1
  Zn  Zn144  1  0.56022634  0.81811146  0.05968650  1
  Zn  Zn145  1  0.56053480  0.79289678  0.57912868  1
  O  O146  1  0.12263131  0.11673527  0.12038036  1
  O  O147  1  0.11299336  0.12737576  0.61328947  1
  O  O148  1  0.11857339  0.60889328  0.12449541  1
  O  O149  1  0.13312039  0.61099302  0.62599932  1
  O  O150  1  0.61749697  0.11343861  0.12787024  1
  O  O151  1  0.63584461  0.11417151  0.62185758  1
  O  O152  1  0.62786334  0.60713484  0.12707698  1
  O  O153  1  0.59221549  0.69418902  0.63116580  1
  O  O154  1  0.36830886  0.37863054  0.38870200  1
  O  O155  1  0.38610003  0.38588527  0.87185042  1
  O  O156  1  0.38726122  0.89379634  0.36901768  1
  O  O157  1  0.39633452  0.89710617  0.86461418  1
  O  O158  1  0.87545734  0.38980844  0.36851550  1
  O  O159  1  0.86637932  0.39390495  0.86460322  1
  O  O160  1  0.89089590  0.87997870  0.38107287  1
  O  O161  1  0.88709560  0.87396953  0.86674118  1
  O  O162  1  0.25970395  -0.00817892  0.36260027  1
  O  O163  1  0.26520807  0.00099735  0.87525016  1
  O  O164  1  0.26341353  0.49372145  0.36873625  1
  O  O165  1  0.24981336  0.50006168  0.86693912  1
  O  O166  1  0.76822695  0.00333260  0.37137318  1
  O  O167  1  0.74805529  0.01587233  0.86538076  1
  O  O168  1  0.75977622  0.48974177  0.37865749  1
  O  O169  1  0.75080227  0.50251264  0.86106075  1
  O  O170  1  0.23099809  0.48348733  0.11478198  1
  O  O171  1  0.24514757  0.49653550  0.63588830  1
  O  O172  1  0.23935737  0.99582968  0.13595258  1
  O  O173  1  0.23790281  0.94849682  0.57750822  1
  O  O174  1  0.76411279  0.49495674  0.12971904  1
  O  O175  1  0.75546398  0.48359596  0.62879809  1
  O  O176  1  0.75232504  0.99733920  0.12748228  1
  O  O177  1  0.74796038  0.99346978  0.63339073  1
  O  O178  1  0.01517126  0.37777808  0.25271294  1
  O  O179  1  0.01497285  0.37811398  0.73951517  1
  O  O180  1  0.01343400  0.87116000  0.26092629  1
  O  O181  1  0.01168693  0.86311355  0.76560300  1
  O  O182  1  0.51986812  0.35248624  0.20091711  1
  O  O183  1  0.51059388  0.37573340  0.75157351  1
  O  O184  1  0.51791174  0.87375286  0.25213552  1
  O  O185  1  0.51534790  0.88841175  0.76237940  1
  O  O186  1  0.49968754  0.11004550  0.24181177  1
  O  O187  1  0.50422495  0.14090142  0.75593123  1
  O  O188  1  0.48843821  0.63509967  0.24611594  1
  O  O189  1  0.48068131  0.61874068  0.75867804  1
  O  O190  1  0.99457958  0.12322352  0.24126238  1
  O  O191  1  0.99320554  0.12338166  0.74353670  1
  O  O192  1  1.00664812  0.62550153  0.23292279  1
  O  O193  1  1.00382231  0.63500514  0.74592297  1
  O  O194  1  0.38687190  0.25388624  0.02534999  1
  O  O195  1  0.38435986  0.26423903  0.49836651  1
  O  O196  1  0.34112652  0.78432271  -0.06204102  1
  O  O197  1  0.37050308  0.76832384  0.48348986  1
  O  O198  1  0.87478319  0.24516540  0.01755645  1
  O  O199  1  0.86610354  0.24352120  0.51432376  1
  O  O200  1  0.86065729  0.74565370  0.00339957  1
  O  O201  1  0.87919115  0.76189803  0.51506532  1
  O  O202  1  0.13170217  0.23874519  0.49387626  1
  O  O203  1  0.12823347  0.23531625  1.00692470  1
  O  O204  1  0.11559901  0.72825810  0.49703539  1
  O  O205  1  0.11739815  0.74730944  0.98987387  1
  O  O206  1  0.62992160  0.24345917  0.49608431  1
  O  O207  1  0.62549094  0.25326244  0.98547852  1
  O  O208  1  0.64309392  0.77826316  0.49413599  1
  O  O209  1  0.63857172  0.75968734  0.99175090  1
  O  O210  1  0.50381621  0.22295067  0.12295681  1
  O  O211  1  0.50970518  0.25011949  0.63837344  1
  O  O212  1  0.53514539  0.75165623  0.14799073  1
  O  O213  1  0.45543008  0.75415462  0.61883055  1
  O  O214  1  0.98728017  0.24238723  0.12555554  1
  O  O215  1  0.98755414  0.24989843  0.61732247  1
  O  O216  1  0.98040619  0.74172382  0.12396368  1
  O  O217  1  0.99107824  0.75388022  0.63546730  1
  O  O218  1  0.01962487  0.25676345  0.38356738  1
  O  O219  1  -0.00355498  0.28916760  0.90737910  1
  O  O220  1  -0.00856263  0.75394154  0.37097946  1
  O  O221  1  0.00692170  0.74258673  0.86488496  1
  O  O222  1  0.51193435  0.24010686  0.38039381  1
  O  O223  1  0.50309093  0.26485856  0.86900895  1
  O  O224  1  0.50362257  0.74855332  0.35184747  1
  O  O225  1  0.51433121  0.77419959  0.88553008  1
  O  O226  1  0.23885708  0.11099963  0.50928070  1
  O  O227  1  0.23754200  0.11870333  0.99406725  1
  O  O228  1  0.23551853  0.61974224  0.49817645  1
  O  O229  1  0.24811979  0.61566104  0.98491164  1
  O  O230  1  0.74282805  0.13378624  0.50417021  1
  O  O231  1  0.74877156  0.13418006  0.98447613  1
  O  O232  1  0.73437031  0.64976986  0.52823405  1
  O  O233  1  0.74885624  0.63189119  0.99507078  1
  O  O234  1  0.23515575  0.36375565  0.01277997  1
  O  O235  1  0.26023302  0.37600475  0.51233295  1
  O  O236  1  0.24926606  0.89835378  0.01270615  1
  O  O237  1  0.23835866  0.89758877  0.52032050  1
  O  O238  1  0.75535449  0.37782291  0.01628551  1
  O  O239  1  0.74047362  0.36515989  0.51632164  1
  O  O240  1  0.75529706  0.87479402  0.00148995  1
  O  O241  1  0.76641370  0.87084431  0.51018962  1
  O  O242  1  0.11999931  0.48665646  0.23297592  1
  O  O243  1  0.13482807  0.49208344  0.73825346  1
  O  O244  1  0.13645556  0.99500359  0.24629800  1
  O  O245  1  0.12840329  0.98051535  0.75817162  1
  O  O246  1  0.60846299  0.49373416  0.23145948  1
  O  O247  1  0.63548924  0.48604077  0.74937022  1
  O  O248  1  0.63962208  0.99889837  0.24524269  1
  O  O249  1  0.63880469  0.99756327  0.74441561  1
  O  O250  1  0.36258234  -0.00138841  0.25547873  1
  O  O251  1  0.38233973  0.01039000  0.76078668  1
  O  O252  1  0.39837237  0.49383917  0.27002894  1
  O  O253  1  0.36147001  0.49887125  0.75840516  1
  O  O254  1  0.87556652  0.00734956  0.25805914  1
  O  O255  1  0.86880840  0.01707769  0.74386671  1
  O  O256  1  0.87413304  0.51250589  0.26102688  1
  O  O257  1  0.86065935  0.50151296  0.74959800  1
  O  O258  1  0.12969681  0.36855652  0.36511637  1
  O  O259  1  0.13283990  0.37423097  0.85158647  1
  O  O260  1  0.11713489  0.86468812  0.36184402  1
  O  O261  1  0.11780319  0.85576854  0.87131124  1
  O  O262  1  0.62515359  0.35564183  0.37258875  1
  O  O263  1  0.61334663  0.37533638  0.86729374  1
  O  O264  1  0.62487612  0.88972316  0.36516557  1
  O  O265  1  0.61733577  0.88656261  0.86945633  1
  O  O266  1  0.38268236  0.12748938  0.12602333  1
  O  O267  1  0.35034454  0.10097425  0.65604659  1
  O  O268  1  0.30114292  0.62329328  0.16193239  1
  O  O269  1  0.37248084  0.61603804  0.64487708  1
  O  O270  1  0.88588955  0.13323619  0.13590048  1
  O  O271  1  0.88751326  0.13257840  0.63264799  1
  O  O272  1  0.88018933  0.63322304  0.12877853  1
  O  O273  1  0.87424331  0.63952154  0.61559657  1
  O  O274  1  0.25605669  0.25053358  0.12354151  1
  O  O275  1  0.25457917  0.26064588  0.62790277  1
  O  O276  1  0.24406259  0.77491678  0.11083353  1
  O  O277  1  0.27411931  0.74790829  0.62199149  1
  O  O278  1  0.76419664  0.24210978  0.12082416  1
  O  O279  1  0.75714335  0.25484295  0.61917770  1
  O  O280  1  0.75731245  0.74519933  0.10997572  1
  O  O281  1  0.76716171  0.76623783  0.62592142  1
  O  O282  1  0.23446536  0.25272783  0.36842458  1
  O  O283  1  0.25831778  0.24031253  0.87709267  1
  O  O284  1  0.25258045  0.74999190  0.36460923  1
  O  O285  1  0.22479059  0.72626555  0.86798146  1
  O  O286  1  0.74938013  0.25028840  0.39093715  1
  O  O287  1  0.74341170  0.24798162  0.87102260  1
  O  O288  1  0.76564594  0.74873347  0.39705419  1
  O  O289  1  0.74011530  0.75235949  0.88584284  1
  O  O290  1  0.01398085  0.12478521  0.01281972  1
  O  O291  1  -0.00003883  0.12106692  0.51335957  1
  O  O292  1  -0.00245642  0.62714228  0.01921147  1
  O  O293  1  0.01715267  0.60202386  0.50055982  1
  O  O294  1  0.50381383  0.11384863  0.00300748  1
  O  O295  1  0.51405212  0.11122512  0.50281775  1
  O  O296  1  0.46410689  0.63329403  0.00879920  1
  O  O297  1  0.49303286  0.61707183  0.50082213  1
  O  O298  1  0.48444881  0.38882563  0.51023473  1
  O  O299  1  0.50329518  0.37019357  0.98924918  1
  O  O300  1  0.51513918  0.88682008  0.50232534  1
  O  O301  1  0.50897995  0.89452399  0.98875317  1
  O  O302  1  1.01797371  0.39084059  0.49659782  1
  O  O303  1  1.00156675  0.34174735  0.96305694  1
  O  O304  1  0.99984219  0.86805340  0.48485464  1
  O  O305  1  0.99916168  0.87036594  0.98226275  1
  O  O306  1  0.48811498  0.49736929  0.39523680  1
  O  O307  1  0.48534766  0.49193407  0.88404478  1
  O  O308  1  0.49766388  0.99832731  0.38784070  1
  O  O309  1  0.49794539  1.00365499  0.88485334  1
  O  O310  1  0.98626629  0.49551697  0.38574804  1
  O  O311  1  0.99273465  0.49340858  0.87339182  1
  O  O312  1  0.99362645  0.99300268  0.36926448  1
  O  O313  1  1.00077630  0.98917973  0.87349560  1
  O  O314  1  0.01390550  0.01020508  0.13393582  1
  O  O315  1  -0.00249591  0.00978255  0.62778838  1
  O  O316  1  0.00029597  0.51164768  0.12314198  1
  O  O317  1  0.01770594  0.49489804  0.62015088  1
  O  O318  1  0.50572059  0.00647397  0.11473318  1
  O  O319  1  0.51615473  -0.00607434  0.61583754  1
  O  O320  1  0.49509824  0.50455906  0.11684780  1
  O  O321  1  0.49697985  0.51034772  0.61127463  1
  O  O322  1  0.23162742  0.36933969  0.23386090  1
  O  O323  1  0.24828030  0.38363773  0.73915202  1
  O  O324  1  0.23691657  0.88151900  0.23684094  1
  O  O325  1  0.23494151  0.86076276  0.76283605  1
  O  O326  1  0.73692494  0.36468321  0.22795353  1
  O  O327  1  0.73858774  0.37914555  0.73999320  1
  O  O328  1  0.74816128  0.89188256  0.25708067  1
  O  O329  1  0.75125490  0.88565821  0.74758483  1
  O  O330  1  0.24526096  0.11195555  0.24858068  1
  O  O331  1  0.23449217  0.12388666  0.77182393  1
  O  O332  1  0.24055515  0.68897891  0.32404761  1
  O  O333  1  0.24807147  0.60801181  0.75796956  1
  O  O334  1  0.76506499  0.11264046  0.25244136  1
  O  O335  1  0.76027060  0.12231251  0.75605768  1
  O  O336  1  0.71546441  0.62154475  0.28932149  1
  O  O337  1  0.73868157  0.60830122  0.73330679  1
  O  O338  1  0.37856421  0.10353618  0.37883708  1
  O  O339  1  0.36202605  0.11884045  0.88296923  1
  O  O340  1  0.37051539  0.61077054  0.36910328  1
  O  O341  1  0.35677968  0.60735716  0.86740129  1
  O  O342  1  0.88139738  0.11993055  0.37118160  1
  O  O343  1  0.87367135  0.13913134  0.86166661  1
  O  O344  1  0.86631605  0.59881750  0.40858210  1
  O  O345  1  0.87662749  0.60197537  0.87314193  1
  O  O346  1  0.12565213  0.37268436  0.13461888  1
  O  O347  1  0.14281133  0.38328196  0.62884377  1
  O  O348  1  0.11643776  0.88615851  0.13369503  1
  O  O349  1  0.12003440  0.86797525  0.64275282  1
  O  O350  1  0.64006048  0.39894756  0.11279113  1
  O  O351  1  0.63534166  0.36954004  0.63613167  1
  O  O352  1  0.62534014  0.89237406  0.13653950  1
  O  O353  1  0.63931972  0.88256514  0.63647499  1
  O  O354  1  0.11960128  0.25667483  0.25979053  1
  O  O355  1  0.12487256  0.26147292  0.73654716  1
  O  O356  1  0.13315435  0.75918824  0.23242223  1
  O  O357  1  0.11285028  0.74954501  0.75084236  1
  O  O358  1  0.63061114  0.23561236  0.27038987  1
  O  O359  1  0.61861153  0.26174589  0.76154741  1
  O  O360  1  0.64721945  0.77452034  0.25522968  1
  O  O361  1  0.63629175  0.76996224  0.77295811  1
  O  O362  1  0.37867210  0.26199398  0.22599619  1
  O  O363  1  0.39221012  0.25820540  0.75025835  1
  O  O364  1  0.38819357  0.75718962  0.23699128  1
  O  O365  1  0.36712067  0.73079622  0.76479831  1
  O  O366  1  0.86795779  0.23881431  0.24535049  1
  O  O367  1  0.87147691  0.23705282  0.73542356  1
  O  O368  1  0.85884711  0.75058676  0.23564404  1
  O  O369  1  0.88678972  0.75060484  0.73852331  1
  O  O370  1  0.37512970  0.49471772  0.48932581  1
  O  O371  1  0.36058394  0.49673372  0.98820603  1
  O  O372  1  0.39208567  0.99862588  0.49322111  1
  O  O373  1  0.38859881  1.00384080  0.99322318  1
  O  O374  1  0.89313644  0.48937109  0.52070133  1
  O  O375  1  0.88292295  0.49365634  0.98860585  1
  O  O376  1  0.87303640  0.98954180  0.49368521  1
  O  O377  1  0.86966326  0.99161781  1.01702316  1
  O  O378  1  0.12542920  0.00357718  0.01543774  1
  O  O379  1  0.11722662  0.01531346  0.48562784  1
  O  O380  1  0.10818663  0.47615711  0.01761255  1
  O  O381  1  0.12826057  0.50389185  0.51193895  1
  O  O382  1  0.62141466  0.00750981  0.00954792  1
  O  O383  1  0.62633717  0.00698433  0.50868927  1
  O  O384  1  0.61813439  0.50481301  0.00769780  1
  O  O385  1  0.61125818  0.49987650  0.49675768  1
  O  O386  1  0.35183968  0.37346317  0.12221457  1
  O  O387  1  0.36322174  0.38149947  0.61648006  1
  O  O388  1  0.36681579  0.88335116  0.12434931  1
  O  O389  1  0.36896001  0.88656826  0.61590053  1
  O  O390  1  0.86934710  0.36240020  0.13625081  1
  O  O391  1  0.86322534  0.36075871  0.63474145  1
  O  O392  1  0.87653797  0.86608519  0.12700377  1
  O  O393  1  0.87400877  0.88017652  0.62127449  1
  O  O394  1  0.12296219  0.13484656  0.38632488  1
  O  O395  1  0.13244371  0.12202185  0.89003112  1
  O  O396  1  0.12447234  0.61158174  0.38147060  1
  O  O397  1  0.12608394  0.62290173  0.87667898  1
  O  O398  1  0.63315890  0.13180680  0.38982640  1
  O  O399  1  0.63655372  0.13738671  0.87233013  1
  O  O400  1  0.66792664  0.62322269  0.34444986  1
  O  O401  1  0.61030197  0.64381384  0.88108440  1
