# generated using pymatgen
data_V73Zn73O256
_symmetry_space_group_name_H-M   'P 1'
_cell_length_a   16.90098013
_cell_length_b   16.87552778
_cell_length_c   16.90990213
_cell_angle_alpha   89.71215674
_cell_angle_beta   89.80105129
_cell_angle_gamma   89.95396000
_symmetry_Int_Tables_number   1
_chemical_formula_structural   V73Zn73O256
_chemical_formula_sum   'V73 Zn73 O256'
_cell_volume   4822.83180867
_cell_formula_units_Z   1
loop_
 _symmetry_equiv_pos_site_id
 _symmetry_equiv_pos_as_xyz
  1  'x, y, z'
loop_
 _atom_site_type_symbol
 _atom_site_label
 _atom_site_symmetry_multiplicity
 _atom_site_fract_x
 _atom_site_fract_y
 _atom_site_fract_z
 _atom_site_occupancy
  V  V0  1  0.88922300  0.87882644  0.49993216  1
  V  V1  1  0.25932491  0.00042679  0.73335816  1
  V  V2  1  0.49896886  0.37489857  0.88026691  1
  V  V3  1  0.72813943  0.38465013  0.10771741  1
  V  V4  1  0.24280920  0.60503005  0.87271777  1
  V  V5  1  0.75180511  0.25096729  0.49638290  1
  V  V6  1  0.24139719  0.13238198  0.87101346  1
  V  V7  1  0.76471408  0.75780347  0.01409074  1
  V  V8  1  0.75031761  0.50297143  0.24964963  1
  V  V9  1  0.38369208  0.00014687  0.37312607  1
  V  V10  1  0.25126014  0.50904951  0.22899767  1
  V  V11  1  0.25709984  0.37007982  0.63830363  1
  V  V12  1  0.25927142  0.25827532  0.50154088  1
  V  V13  1  0.88260680  0.76177077  0.15230750  1
  V  V14  1  0.49547957  -0.00235814  -0.00202088  1
  V  V15  1  0.61805311  0.37707595  0.25945116  1
  V  V16  1  0.75694277  0.37624579  0.62225010  1
  V  V17  1  0.74909762  0.00475502  0.24975530  1
  V  V18  1  0.86158926  0.49394893  0.88666962  1
  V  V19  1  0.00507693  0.08945994  0.12466796  1
  V  V20  1  0.24799619  0.75922698  0.49979127  1
  V  V21  1  0.62527901  0.86757723  0.25536317  1
  V  V22  1  0.00291806  0.49498704  0.49264699  1
  V  V23  1  0.40049150  0.63398060  0.25578864  1
  V  V24  1  0.74996087  0.63127140  0.37783761  1
  V  V25  1  0.37420215  0.60572047  0.74960493  1
  V  V26  1  0.23274052  0.75359776  -0.00867044  1
  V  V27  1  0.49175415  0.49791741  0.51291646  1
  V  V28  1  0.11567405  0.11995575  0.50148253  1
  V  V29  1  0.87833108  0.27825766  0.12173775  1
  V  V30  1  0.50730056  0.00387605  0.50587255  1
  V  V31  1  0.12788611  0.62549808  0.49963878  1
  V  V32  1  0.73337829  0.88561865  0.62376433  1
  V  V33  1  0.87402370  0.75417127  0.62633929  1
  V  V34  1  0.50735491  0.86097439  0.37908180  1
  V  V35  1  0.49773072  0.88037594  0.86193438  1
  V  V36  1  0.38222966  0.13996138  0.24408674  1
  V  V37  1  0.88419685  0.00293418  0.37989502  1
  V  V38  1  0.48858509  0.24373966  0.74855900  1
  V  V39  1  0.74572541  0.50175261  0.74282687  1
  V  V40  1  -0.05248069  0.91534394  0.93337346  1
  V  V41  1  0.00155580  0.36924635  0.87453251  1
  V  V42  1  0.50068756  0.14014079  0.12145548  1
  V  V43  1  0.88322284  0.37437129  0.48655476  1
  V  V44  1  0.50681616  0.74969664  0.73629415  1
  V  V45  1  0.60963088  0.74510975  0.89135631  1
  V  V46  1  0.24723010  0.12521975  0.37081850  1
  V  V47  1  0.14978704  -0.02248114  0.11297481  1
  V  V48  1  0.25514410  0.26306243  0.02046617  1
  V  V49  1  0.65458014  0.24226417  0.87433536  1
  V  V50  1  0.36171361  0.75312734  0.63244117  1
  V  V51  1  0.87071887  0.62796768  0.75224032  1
  V  V52  1  0.26047713  -0.01793317  0.24401985  1
  V  V53  1  0.11014580  0.76481652  0.36397865  1
  V  V54  1  0.48647241  0.13056516  0.62595969  1
  V  V55  1  0.88252128  0.11638288  0.77273889  1
  V  V56  1  0.11487370  0.25853880  0.36322771  1
  V  V57  1  -0.00079676  0.62756372  0.62963340  1
  V  V58  1  0.73914504  0.00124642  0.76172793  1
  V  V59  1  0.00968427  0.51535861  -0.00643951  1
  V  V60  1  0.62576146  0.61617957  0.51838981  1
  V  V61  1  0.74931623  0.12729994  0.36948024  1
  V  V62  1  0.63353841  0.36672877  0.74380676  1
  V  V63  1  0.62686763  -0.00519246  0.12629999  1
  V  V64  1  -0.00018988  0.63052141  0.15102778  1
  V  V65  1  0.12593478  0.48707702  0.63689434  1
  V  V66  1  0.89178646  0.23525190  0.62532653  1
  V  V67  1  0.47997591  0.37656524  0.38529643  1
  V  V68  1  0.64401315  0.12691195  -0.00450142  1
  V  V69  1  0.37586683  0.01088617  0.86953511  1
  V  V70  1  0.11656913  0.86706780  0.75248516  1
  V  V71  1  0.10665297  -0.00285486  0.62059230  1
  V  V72  1  0.62697658  0.12636347  0.50971078  1
  Zn  Zn73  1  0.61485270  0.24979622  0.37028875  1
  Zn  Zn74  1  0.37427408  0.88098887  0.50566572  1
  Zn  Zn75  1  0.73820546  0.75701092  0.49556212  1
  Zn  Zn76  1  0.73690917  0.62770829  0.88659881  1
  Zn  Zn77  1  0.15912636  0.54158678  0.09498608  1
  Zn  Zn78  1  0.35422603  0.77286456  0.13159198  1
  Zn  Zn79  1  0.26098828  0.61256794  0.37489320  1
  Zn  Zn80  1  0.89069602  0.51123894  0.36078769  1
  Zn  Zn81  1  0.12523953  0.12663343  -0.00087142  1
  Zn  Zn82  1  0.18305308  0.17866340  0.18164401  1
  Zn  Zn83  1  0.18190720  0.18520827  0.68869531  1
  Zn  Zn84  1  0.18724847  0.69487170  0.18718251  1
  Zn  Zn85  1  0.18804971  0.67942731  0.69349788  1
  Zn  Zn86  1  0.69036757  0.19768417  0.18199679  1
  Zn  Zn87  1  0.69833898  0.18267004  0.68706731  1
  Zn  Zn88  1  0.69952815  0.69371600  0.19645445  1
  Zn  Zn89  1  0.69004543  0.69078178  0.68051659  1
  Zn  Zn90  1  0.29627672  0.31676679  0.30608473  1
  Zn  Zn91  1  0.31538961  0.31930477  0.82030676  1
  Zn  Zn92  1  0.32178942  0.79698779  0.32483922  1
  Zn  Zn93  1  0.30485445  0.82193785  0.81179932  1
  Zn  Zn94  1  0.81354266  0.31531107  0.30096895  1
  Zn  Zn95  1  0.83677817  0.31329509  0.80348058  1
  Zn  Zn96  1  0.81125719  0.82097953  0.31949587  1
  Zn  Zn97  1  0.78865160  0.80825158  0.80763088  1
  Zn  Zn98  1  0.18879607  0.43679172  0.43414291  1
  Zn  Zn99  1  0.18330625  0.42678824  0.93273052  1
  Zn  Zn100  1  0.18729825  0.93964346  0.43521033  1
  Zn  Zn101  1  0.19464351  0.92905479  0.92754018  1
  Zn  Zn102  1  0.68951069  0.44480364  0.43529123  1
  Zn  Zn103  1  0.65436670  0.45325990  0.92064921  1
  Zn  Zn104  1  0.68953148  0.93894050  0.43988155  1
  Zn  Zn105  1  0.67691917  0.92681989  0.93849712  1
  Zn  Zn106  1  0.31418550  0.06979683  0.05720842  1
  Zn  Zn107  1  0.31381317  0.06963504  0.55465492  1
  Zn  Zn108  1  0.33647834  0.61393341  0.06142646  1
  Zn  Zn109  1  0.30979758  0.56276730  0.57211898  1
  Zn  Zn110  1  0.81975248  0.03091410  0.05234949  1
  Zn  Zn111  1  0.81259055  0.06017100  0.56219260  1
  Zn  Zn112  1  0.80850910  0.58201427  0.07018679  1
  Zn  Zn113  1  0.81755006  0.56193034  0.55630656  1
  Zn  Zn114  1  0.40787884  0.43560647  0.22717770  1
  Zn  Zn115  1  0.44299129  0.42331533  0.68313066  1
  Zn  Zn116  1  0.44689960  0.93682327  0.18740485  1
  Zn  Zn117  1  0.43806393  0.93578388  0.68317315  1
  Zn  Zn118  1  0.91477661  0.45638264  0.15790592  1
  Zn  Zn119  1  0.93808973  0.43494740  0.68849448  1
  Zn  Zn120  1  0.93680796  0.94865343  0.18841221  1
  Zn  Zn121  1  0.93108518  0.93975616  0.69538543  1
  Zn  Zn122  1  0.06125348  0.04332341  0.29211981  1
  Zn  Zn123  1  0.06289053  0.05235907  0.81317703  1
  Zn  Zn124  1  0.09592567  0.54910269  0.31301097  1
  Zn  Zn125  1  0.05774838  0.56328603  0.81534339  1
  Zn  Zn126  1  0.56518580  0.06813926  0.31312721  1
  Zn  Zn127  1  0.56766543  0.06640982  0.80908765  1
  Zn  Zn128  1  0.56822289  0.55631425  0.33122806  1
  Zn  Zn129  1  0.55563061  0.56332191  0.80314307  1
  Zn  Zn130  1  0.43784298  0.18970526  0.43597089  1
  Zn  Zn131  1  0.43660848  0.19355477  0.93757381  1
  Zn  Zn132  1  0.43792083  0.67587178  0.44802244  1
  Zn  Zn133  1  0.39651419  0.70876717  0.91062641  1
  Zn  Zn134  1  0.93773806  0.18683792  0.43121436  1
  Zn  Zn135  1  0.92431394  0.18069508  0.95920001  1
  Zn  Zn136  1  0.93653889  0.68935800  0.43768790  1
  Zn  Zn137  1  0.93315028  0.70077779  0.92989396  1
  Zn  Zn138  1  0.04690645  0.29537293  0.02187845  1
  Zn  Zn139  1  0.06958175  0.30686429  0.55488181  1
  Zn  Zn140  1  0.06594841  0.80557099  0.07037502  1
  Zn  Zn141  1  0.06470691  0.81402216  0.57212007  1
  Zn  Zn142  1  0.52977055  0.34955207  0.08886808  1
  Zn  Zn143  1  0.56206006  0.31339183  0.56150988  1
  Zn  Zn144  1  0.49057959  0.79280732  0.04366060  1
  Zn  Zn145  1  0.56070900  0.80547898  0.55832798  1
  O  O146  1  0.13142098  0.10028397  0.11831808  1
  O  O147  1  0.13160109  0.11491436  0.60786943  1
  O  O148  1  0.10150851  0.63908857  0.12069111  1
  O  O149  1  0.11756529  0.61474989  0.62205591  1
  O  O150  1  0.61896606  0.12272373  0.11466137  1
  O  O151  1  0.62124423  0.13152955  0.61232603  1
  O  O152  1  0.61212053  0.62556024  0.14081949  1
  O  O153  1  0.63243539  0.61391524  0.61900225  1
  O  O154  1  0.38158309  0.37391027  0.37272762  1
  O  O155  1  0.39961536  0.38170355  0.86472568  1
  O  O156  1  0.39167913  0.88288782  0.38037536  1
  O  O157  1  0.38856662  0.89056536  0.86598239  1
  O  O158  1  0.87296906  0.37325731  0.38501518  1
  O  O159  1  0.85743216  0.39311308  0.88813906  1
  O  O160  1  0.87163849  0.88704412  0.39110548  1
  O  O161  1  0.88806767  0.85439866  0.85487432  1
  O  O162  1  0.26512163  0.00487244  0.36767947  1
  O  O163  1  0.26293701  0.00743272  0.86702091  1
  O  O164  1  0.20773545  0.51196829  0.35243652  1
  O  O165  1  0.24672982  0.50464390  0.87642188  1
  O  O166  1  0.74720100  0.01324868  0.37040991  1
  O  O167  1  0.74066235  -0.01627087  0.86107442  1
  O  O168  1  0.75962971  0.50746978  0.36595792  1
  O  O169  1  0.74888896  0.50936126  0.86746255  1
  O  O170  1  0.26942923  0.52680456  0.12494716  1
  O  O171  1  0.23560961  0.48468966  0.62174859  1
  O  O172  1  0.26379669  0.99621761  0.13515950  1
  O  O173  1  0.25787001  1.00607651  0.63201619  1
  O  O174  1  0.75015994  0.50515421  0.14024886  1
  O  O175  1  0.76394549  0.48622715  0.63140857  1
  O  O176  1  0.73907139  1.00606282  0.13808834  1
  O  O177  1  0.74847002  0.98900273  0.62456693  1
  O  O178  1  0.00306348  0.39838890  0.24457509  1
  O  O179  1  -0.03920935  0.36645564  0.77769205  1
  O  O180  1  0.01486423  0.93627662  0.26940933  1
  O  O181  1  0.01649982  0.87869180  0.73716279  1
  O  O182  1  0.50929968  0.38802207  0.26980623  1
  O  O183  1  0.51612418  0.35950051  0.75056078  1
  O  O184  1  0.51322448  0.88267589  0.27124718  1
  O  O185  1  0.49851271  0.86296719  0.74962996  1
  O  O186  1  0.49371419  0.12471854  0.23701355  1
  O  O187  1  0.50535211  0.13594649  0.74045264  1
  O  O188  1  0.49899032  0.62691491  0.27619795  1
  O  O189  1  0.48456120  0.63975045  0.75200961  1
  O  O190  1  1.01411457  0.12451221  0.21967213  1
  O  O191  1  0.98203041  0.11319458  0.75605634  1
  O  O192  1  1.00651237  0.60536465  0.24680173  1
  O  O193  1  0.98458308  0.61704090  0.73905961  1
  O  O194  1  0.35516707  0.25077122  -0.00992354  1
  O  O195  1  0.35796802  0.24495908  0.49770294  1
  O  O196  1  0.40294458  0.71756617  0.02158935  1
  O  O197  1  0.36110870  0.74423419  0.51275371  1
  O  O198  1  0.85862301  0.21016414  0.04948529  1
  O  O199  1  0.87246122  0.25578462  0.50439627  1
  O  O200  1  0.86504998  0.76346138  0.00147269  1
  O  O201  1  0.87053779  0.76398770  0.50879225  1
  O  O202  1  0.13399515  0.23490416  0.48627943  1
  O  O203  1  0.14540121  0.24428404  1.00232792  1
  O  O204  1  0.13746411  0.74389055  0.51264662  1
  O  O205  1  0.13306253  0.75216231  0.98946461  1
  O  O206  1  0.63910174  0.24638699  0.49789115  1
  O  O207  1  0.63847991  0.23367145  0.98366441  1
  O  O208  1  0.62479728  0.72729993  0.50769125  1
  O  O209  1  0.58819334  0.74588211  0.98864003  1
  O  O210  1  0.50695395  0.23867239  0.11845592  1
  O  O211  1  0.50779916  0.24515903  0.63869034  1
  O  O212  1  0.54826094  0.65702382  0.11969731  1
  O  O213  1  0.48763892  0.75055708  0.63290174  1
  O  O214  1  0.97915532  0.29301293  0.11451393  1
  O  O215  1  0.98976610  0.25251982  0.61943494  1
  O  O216  1  0.99306772  0.74327664  0.13829317  1
  O  O217  1  0.98802705  0.73809969  0.62002424  1
  O  O218  1  0.01522078  0.24029372  0.36888133  1
  O  O219  1  -0.01598013  0.27360761  0.91365634  1
  O  O220  1  0.01051874  0.75304467  0.38197745  1
  O  O221  1  -0.04300208  0.80706255  0.87315645  1
  O  O222  1  0.50116006  0.26906639  0.38516175  1
  O  O223  1  0.50857815  0.25254913  0.85957774  1
  O  O224  1  0.49990596  0.76403234  0.39042936  1
  O  O225  1  0.49678191  0.75886089  0.85896620  1
  O  O226  1  0.24626006  0.13317899  0.48656727  1
  O  O227  1  0.25307783  0.13271163  0.98223650  1
  O  O228  1  0.24009083  0.62918153  0.50333946  1
  O  O229  1  0.25427803  0.62853767  0.97924474  1
  O  O230  1  0.74333600  0.13174296  0.49375929  1
  O  O231  1  0.74009621  0.10748640  1.00492743  1
  O  O232  1  0.74193388  0.62325943  0.49681793  1
  O  O233  1  0.74276122  0.65044887  1.00299953  1
  O  O234  1  0.24337340  0.36419017  0.00315133  1
  O  O235  1  0.24579364  0.36174236  0.50041015  1
  O  O236  1  0.25753220  0.85214415  -0.01091843  1
  O  O237  1  0.25413863  0.86244253  0.49811644  1
  O  O238  1  0.70706026  0.40923632  0.01335669  1
  O  O239  1  0.76032192  0.36972423  0.50430605  1
  O  O240  1  0.72266469  0.85021560  0.00931654  1
  O  O241  1  0.75494366  0.87543840  0.51042535  1
  O  O242  1  0.14599033  0.50053050  0.21392567  1
  O  O243  1  0.11470820  0.49779388  0.73477537  1
  O  O244  1  0.15881476  0.99926412  0.24242746  1
  O  O245  1  0.13291703  0.99906216  0.73061264  1
  O  O246  1  0.63846705  0.49118786  0.26261709  1
  O  O247  1  0.63926150  0.48466409  0.75148433  1
  O  O248  1  0.63029562  1.00149402  0.24468781  1
  O  O249  1  0.63931419  1.00858607  0.74324800  1
  O  O250  1  0.37860939  0.00557865  0.25748746  1
  O  O251  1  0.36636077  -0.00114070  0.75178284  1
  O  O252  1  0.36184426  0.53000748  0.27181123  1
  O  O253  1  0.38625264  0.50814395  0.73713364  1
  O  O254  1  0.85677565  -0.00761552  0.27170462  1
  O  O255  1  0.86282962  0.01018951  0.75095711  1
  O  O256  1  0.85909366  0.48957818  0.25168024  1
  O  O257  1  0.86204260  0.50684366  0.76092101  1
  O  O258  1  0.12436814  0.35763610  0.37747728  1
  O  O259  1  0.10058883  0.38149775  0.86539529  1
  O  O260  1  0.12541494  0.86353211  0.38327542  1
  O  O261  1  0.12645121  0.87942031  0.85278280  1
  O  O262  1  0.62919085  0.37194730  0.36815957  1
  O  O263  1  0.62974028  0.35269929  0.86096880  1
  O  O264  1  0.61658297  0.87856448  0.37136974  1
  O  O265  1  0.60842704  0.85796974  0.86960952  1
  O  O266  1  0.38953262  0.12398296  0.13378276  1
  O  O267  1  0.38760691  0.13143542  0.61882267  1
  O  O268  1  0.40235844  0.62007348  0.15275558  1
  O  O269  1  0.36836444  0.63876346  0.63970124  1
  O  O270  1  0.90607216  0.05397398  0.12467031  1
  O  O271  1  0.88109487  0.13530798  0.61043283  1
  O  O272  1  0.89200312  0.64174443  0.12568004  1
  O  O273  1  0.87958929  0.63168647  0.62884408  1
  O  O274  1  0.25672862  0.24372245  0.12031790  1
  O  O275  1  0.23880310  0.25848057  0.61084723  1
  O  O276  1  0.25371757  0.73025789  0.09828899  1
  O  O277  1  0.25701271  0.74824463  0.61894029  1
  O  O278  1  0.73338277  0.28179696  0.11416511  1
  O  O279  1  0.76211673  0.25374758  0.61111898  1
  O  O280  1  0.77054192  0.74578762  0.12347660  1
  O  O281  1  0.75832037  0.76485476  0.62236385  1
  O  O282  1  0.24522565  0.24286932  0.38205688  1
  O  O283  1  0.25092931  0.23267513  0.85957239  1
  O  O284  1  0.23808669  0.74739761  0.39386935  1
  O  O285  1  0.27675240  0.73879436  0.88611597  1
  O  O286  1  0.75881722  0.24336261  0.38431630  1
  O  O287  1  0.75217498  0.24919946  0.86754389  1
  O  O288  1  0.75435663  0.73714991  0.37746651  1
  O  O289  1  0.72558076  0.75227769  0.88753494  1
  O  O290  1  0.00895829  0.13949695  0.02888408  1
  O  O291  1  0.01765133  0.12627784  0.49387256  1
  O  O292  1  -0.00128771  0.61654628  -0.02867008  1
  O  O293  1  0.00494395  0.61643291  0.51354000  1
  O  O294  1  0.50665067  0.12171062  0.00807515  1
  O  O295  1  0.50751954  0.12447757  0.50657741  1
  O  O296  1  0.53064162  0.56499381  0.01212714  1
  O  O297  1  0.51504236  0.61025169  0.49969056  1
  O  O298  1  0.49959391  0.38208696  0.49505197  1
  O  O299  1  0.51364846  0.35711877  0.97769058  1
  O  O300  1  0.50464817  0.88667692  0.49194709  1
  O  O301  1  0.50708906  0.89343134  0.97978573  1
  O  O302  1  0.99466822  0.38284227  0.50361333  1
  O  O303  1  0.99564346  0.40573227  0.98629830  1
  O  O304  1  0.98758252  0.87487227  0.50588188  1
  O  O305  1  1.00444394  0.87637093  1.00719312  1
  O  O306  1  0.50266265  0.48366023  0.39338149  1
  O  O307  1  0.53917613  0.47413315  0.87449979  1
  O  O308  1  0.49567151  1.00397661  0.38505860  1
  O  O309  1  0.49693809  1.00063626  0.87427944  1
  O  O310  1  1.00814836  0.50782157  0.38905465  1
  O  O311  1  0.97907688  0.49612994  0.87570825  1
  O  O312  1  0.98163496  1.01648834  0.37877719  1
  O  O313  1  1.00054159  0.98674498  0.88449122  1
  O  O314  1  0.03897759  -0.01270082  0.12560032  1
  O  O315  1  0.00869946  0.00172752  0.62302231  1
  O  O316  1  -0.01027263  0.52317178  0.10223109  1
  O  O317  1  0.00672083  0.50324620  0.61900423  1
  O  O318  1  0.50924422  0.01222153  0.11543032  1
  O  O319  1  0.49402615  0.01021014  0.61225159  1
  O  O320  1  0.39276900  0.49601606  0.01039502  1
  O  O321  1  0.50941901  0.48312478  0.61199667  1
  O  O322  1  0.28799473  0.40551377  0.23630136  1
  O  O323  1  0.24669924  0.36200056  0.73728416  1
  O  O324  1  0.27158746  0.88409952  0.25817204  1
  O  O325  1  0.24133664  0.89544502  0.74933773  1
  O  O326  1  0.73796845  0.38783121  0.24275183  1
  O  O327  1  0.75231313  0.37860745  0.74134173  1
  O  O328  1  0.73273577  0.89013247  0.26448129  1
  O  O329  1  0.75326523  0.88739391  0.73307532  1
  O  O330  1  0.27021569  0.11556363  0.25537964  1
  O  O331  1  0.24382384  0.10938887  0.75756228  1
  O  O332  1  0.24913989  0.62022767  0.25045894  1
  O  O333  1  0.26442037  0.62257794  0.75718722  1
  O  O334  1  0.73968592  0.12157521  0.25995731  1
  O  O335  1  0.76127062  0.10922525  0.74651282  1
  O  O336  1  0.74581551  0.61481526  0.26411769  1
  O  O337  1  0.75498657  0.61575916  0.74387911  1
  O  O338  1  0.37462252  0.11912890  0.36377178  1
  O  O339  1  0.37040479  0.11602091  0.87010219  1
  O  O340  1  0.36688391  0.65227231  0.36599635  1
  O  O341  1  0.36977455  0.61149917  0.85662198  1
  O  O342  1  0.86010973  0.11319292  0.38597773  1
  O  O343  1  0.87361923  0.12982956  0.87156395  1
  O  O344  1  0.85967592  0.62032877  0.39128019  1
  O  O345  1  0.86563267  0.62763532  0.86136516  1
  O  O346  1  0.06387211  0.37203329  0.21328600  1
  O  O347  1  0.12667419  0.38363490  0.62110364  1
  O  O348  1  0.14362428  0.87761308  0.12303403  1
  O  O349  1  0.12877944  0.89361183  0.62338298  1
  O  O350  1  0.62100703  0.38938290  0.14559463  1
  O  O351  1  0.64427121  0.36088698  0.63457513  1
  O  O352  1  0.61461487  0.89183517  0.14546029  1
  O  O353  1  0.63499653  0.87208098  0.61855227  1
  O  O354  1  0.14275464  0.24190521  0.26633302  1
  O  O355  1  0.10436707  0.24414768  0.74230509  1
  O  O356  1  0.12764025  0.75281330  0.26567363  1
  O  O357  1  0.13263455  0.76851709  0.73383295  1
  O  O358  1  0.63027359  0.27025490  0.25248087  1
  O  O359  1  0.63262011  0.24912967  0.75886325  1
  O  O360  1  0.62988960  0.76903220  0.24582910  1
  O  O361  1  0.60802946  0.74441867  0.74456917  1
  O  O362  1  0.37295457  0.23750159  0.25385128  1
  O  O363  1  0.39122937  0.25307936  0.75165648  1
  O  O364  1  0.37174744  0.74110658  0.24172463  1
  O  O365  1  0.37650749  0.75244452  0.73957805  1
  O  O366  1  0.85799701  0.25066336  0.21923899  1
  O  O367  1  0.86869322  0.22758431  0.73279194  1
  O  O368  1  0.87184332  0.75208890  0.25095068  1
  O  O369  1  0.85990193  0.73883805  0.73725494  1
  O  O370  1  0.39139902  0.51279518  0.50912957  1
  O  O371  1  0.38481582  0.43474174  1.05241311  1
  O  O372  1  0.38533688  1.00259664  0.48896804  1
  O  O373  1  0.38864266  1.00942835  0.98798920  1
  O  O374  1  0.88787813  0.48846981  0.50066186  1
  O  O375  1  0.86747449  0.51946623  0.98510038  1
  O  O376  1  0.87070717  0.98911145  0.49223732  1
  O  O377  1  0.86786649  0.96139608  0.97834803  1
  O  O378  1  0.15425134  -0.00490438  0.01165281  1
  O  O379  1  0.13238849  0.00944662  0.50761238  1
  O  O380  1  0.11382160  0.50439052  -0.00352893  1
  O  O381  1  0.11868003  0.50746787  0.50930928  1
  O  O382  1  0.61797643  0.00931730  0.00505442  1
  O  O383  1  0.61576451  0.01361555  0.49365607  1
  O  O384  1  0.59507175  0.53133566  0.02138420  1
  O  O385  1  0.62179968  0.50822586  0.50132679  1
  O  O386  1  0.44672643  0.42751953  0.11859013  1
  O  O387  1  0.35608767  0.37522960  0.62622198  1
  O  O388  1  0.42932575  0.85333704  0.11816353  1
  O  O389  1  0.37756147  0.85941934  0.62003003  1
  O  O390  1  0.84446354  0.38250838  0.10622940  1
  O  O391  1  0.87005865  0.36190016  0.61875515  1
  O  O392  1  0.88446710  0.86180689  0.13763897  1
  O  O393  1  0.87123516  0.87137912  0.61594507  1
  O  O394  1  0.13839226  0.11602414  0.37936498  1
  O  O395  1  0.13842870  0.11270673  0.87848698  1
  O  O396  1  0.11943841  0.64289073  0.39552434  1
  O  O397  1  0.14375168  0.62496974  0.85603888  1
  O  O398  1  0.63209507  0.13283395  0.38503073  1
  O  O399  1  0.62929513  0.13128445  0.88413018  1
  O  O400  1  0.64500298  0.62038699  0.38855174  1
  O  O401  1  0.61624932  0.64144041  0.86703373  1
