# generated using pymatgen
data_V73Zn73O256
_symmetry_space_group_name_H-M   'P 1'
_cell_length_a   16.93979953
_cell_length_b   16.81736213
_cell_length_c   16.84057058
_cell_angle_alpha   89.91339091
_cell_angle_beta   89.86362394
_cell_angle_gamma   90.11369541
_symmetry_Int_Tables_number   1
_chemical_formula_structural   V73Zn73O256
_chemical_formula_sum   'V73 Zn73 O256'
_cell_volume   4797.55939195
_cell_formula_units_Z   1
loop_
 _symmetry_equiv_pos_site_id
 _symmetry_equiv_pos_as_xyz
  1  'x, y, z'
loop_
 _atom_site_type_symbol
 _atom_site_label
 _atom_site_symmetry_multiplicity
 _atom_site_fract_x
 _atom_site_fract_y
 _atom_site_fract_z
 _atom_site_occupancy
  V  V0  1  0.49502830  0.49406006  -0.01292739  1
  V  V1  1  0.50507000  0.61284684  0.61754737  1
  V  V2  1  0.24191337  0.12360394  0.37269331  1
  V  V3  1  0.63355554  0.62855842  -0.00599512  1
  V  V4  1  0.75826485  0.00253700  0.25272519  1
  V  V5  1  0.00779579  0.11683524  0.60685611  1
  V  V6  1  0.87235821  0.37183290  0.01750080  1
  V  V7  1  0.37693227  0.38164500  0.50356058  1
  V  V8  1  0.12066502  0.75316519  0.38512886  1
  V  V9  1  0.13004719  0.49542933  0.14379041  1
  V  V10  1  0.49439954  0.24242024  0.74506013  1
  V  V11  1  0.50727574  0.76009890  0.75491310  1
  V  V12  1  0.62721704  0.37637201  0.76766479  1
  V  V13  1  0.38070269  0.61534654  0.76609088  1
  V  V14  1  0.88332257  0.13075344  0.24443719  1
  V  V15  1  0.75142929  0.87077916  0.11922459  1
  V  V16  1  0.12116219  0.25964441  0.37646583  1
  V  V17  1  0.25299765  0.37576681  0.12636591  1
  V  V18  1  0.87236518  0.74524251  0.13143588  1
  V  V19  1  0.74056446  0.13559311  0.37311517  1
  V  V20  1  0.87842556  0.50254824  0.37123131  1
  V  V21  1  0.49479726  0.74630677  0.24122278  1
  V  V22  1  0.87345378  0.00473080  0.86440673  1
  V  V23  1  0.26138302  0.74903714  0.00904673  1
  V  V24  1  0.61965608  0.00971701  0.11583232  1
  V  V25  1  0.35118328  0.01539114  0.86859510  1
  V  V26  1  0.00342303  0.86800918  0.87195023  1
  V  V27  1  0.13924240  0.88210245  0.74406143  1
  V  V28  1  0.75440753  0.50799906  0.77011383  1
  V  V29  1  0.25959476  0.87394859  0.12923109  1
  V  V30  1  0.49069358  0.88331228  0.89683496  1
  V  V31  1  0.12833665  0.62194077  0.00412081  1
  V  V32  1  0.62622980  0.87343830  0.24835890  1
  V  V33  1  0.12478807  0.00381567  0.12970041  1
  V  V34  1  0.74194053  0.49696289  0.24544714  1
  V  V35  1  0.23676814  0.39157820  0.62374773  1
  V  V36  1  0.24929229  0.74570001  0.50482197  1
  V  V37  1  0.37470786  0.87664825  0.50691596  1
  V  V38  1  0.89972353  0.63408026  0.74504227  1
  V  V39  1  -0.00224474  0.00843204  0.00753516  1
  V  V40  1  -0.01075709  0.38008407  0.86614401  1
  V  V41  1  -0.00894249  0.23729562  0.75339725  1
  V  V42  1  0.74071157  0.25112428  -0.01251993  1
  V  V43  1  0.37439495  0.74978105  0.62805508  1
  V  V44  1  0.37765486  0.49828531  0.36006596  1
  V  V45  1  -0.00487653  0.75047281  0.26043012  1
  V  V46  1  0.87810618  0.86711212  0.00136071  1
  V  V47  1  0.13258592  0.24967381  0.87029643  1
  V  V48  1  0.48069297  0.37178521  0.87922103  1
  V  V49  1  0.12183407  0.87735103  0.25219052  1
  V  V50  1  0.01017243  0.51295629  0.51342176  1
  V  V51  1  0.37905322  0.00382741  0.37645965  1
  V  V52  1  0.36576563  0.24826195  0.11315856  1
  V  V53  1  0.62411256  0.74199844  0.38610130  1
  V  V54  1  0.25037183  0.24868879  0.50710828  1
  V  V55  1  0.13613616  0.12981692  -0.00390983  1
  V  V56  1  0.00390710  0.25389516  0.23560192  1
  V  V57  1  0.86405912  0.76248545  0.61052140  1
  V  V58  1  -0.00240176  0.62357178  0.13232872  1
  V  V59  1  0.37272695  0.12680858  0.24727327  1
  V  V60  1  0.74059181  0.38707070  0.62319212  1
  V  V61  1  0.88119611  0.37506462  0.50084075  1
  V  V62  1  0.24770941  0.49897145  0.76927635  1
  V  V63  1  0.49751668  0.12574943  0.59843932  1
  V  V64  1  0.50684965  0.24536420  0.23955315  1
  V  V65  1  0.87210234  0.24246909  0.62488368  1
  V  V66  1  0.50433520  0.60804023  0.12392673  1
  V  V67  1  0.50809010  0.36953822  0.37151548  1
  V  V68  1  0.76197007  0.62884357  0.37970173  1
  V  V69  1  0.24437470  0.62037212  0.37185267  1
  V  V70  1  0.49949252  0.87767335  0.38076100  1
  V  V71  1  0.13097130  0.74505222  0.87577802  1
  V  V72  1  0.73368993  0.24877413  0.49716562  1
  Zn  Zn73  1  0.00755798  0.38142058  0.37228133  1
  Zn  Zn74  1  0.36453969  0.62568873  0.23644987  1
  Zn  Zn75  1  0.63844257  0.76911567  0.87744797  1
  Zn  Zn76  1  0.61540097  0.00704461  0.62315528  1
  Zn  Zn77  1  -0.00576437  0.50036256  -0.00358607  1
  Zn  Zn78  1  0.63193593  0.36883943  0.24408178  1
  Zn  Zn79  1  0.47593914  0.01666957  0.01373722  1
  Zn  Zn80  1  0.62894052  0.60183783  0.50638294  1
  Zn  Zn81  1  0.76811321  0.64960594  0.88404878  1
  Zn  Zn82  1  0.18498140  0.18887465  0.18778354  1
  Zn  Zn83  1  0.17707689  0.19523543  0.68175561  1
  Zn  Zn84  1  0.18277646  0.69108803  0.19076180  1
  Zn  Zn85  1  0.19580824  0.67155613  0.69533069  1
  Zn  Zn86  1  0.70668599  0.18050134  0.16127031  1
  Zn  Zn87  1  0.66599954  0.19978538  0.67357373  1
  Zn  Zn88  1  0.68559498  0.68029553  0.19119827  1
  Zn  Zn89  1  0.68772790  0.68509627  0.68397129  1
  Zn  Zn90  1  0.30754972  0.31303710  0.30564863  1
  Zn  Zn91  1  0.31257319  0.31229831  0.80442138  1
  Zn  Zn92  1  0.31063984  0.81067598  0.31166641  1
  Zn  Zn93  1  0.31415935  0.81263192  0.81484463  1
  Zn  Zn94  1  0.81994632  0.31370965  0.31012098  1
  Zn  Zn95  1  0.81051726  0.30677166  0.81561219  1
  Zn  Zn96  1  0.80993774  0.81309122  0.31689974  1
  Zn  Zn97  1  0.79852613  0.78889058  0.77230754  1
  Zn  Zn98  1  0.18842843  0.44094512  0.43779378  1
  Zn  Zn99  1  0.18076411  0.42847344  0.94477883  1
  Zn  Zn100  1  0.20766965  0.92413166  0.42437197  1
  Zn  Zn101  1  0.18865493  0.93346678  0.94490554  1
  Zn  Zn102  1  0.69371070  0.43470358  0.42906713  1
  Zn  Zn103  1  0.68493861  0.43950316  0.95493228  1
  Zn  Zn104  1  0.69056401  0.93842623  0.42808792  1
  Zn  Zn105  1  0.67566020  0.95512486  0.91484243  1
  Zn  Zn106  1  0.30654164  0.05913552  0.05979875  1
  Zn  Zn107  1  0.32561029  0.07215247  0.55958433  1
  Zn  Zn108  1  0.31491521  0.56068999  0.06124041  1
  Zn  Zn109  1  0.32055035  0.56468079  0.55860049  1
  Zn  Zn110  1  0.81383310  0.06474662  0.06062493  1
  Zn  Zn111  1  0.81729736  0.06302265  0.55156826  1
  Zn  Zn112  1  0.81498853  0.55730674  0.06039341  1
  Zn  Zn113  1  0.82189990  0.56950236  0.56117264  1
  Zn  Zn114  1  0.43664255  0.43058869  0.18369057  1
  Zn  Zn115  1  0.43355280  0.43263181  0.69392830  1
  Zn  Zn116  1  0.43964202  0.94037183  0.19342071  1
  Zn  Zn117  1  0.43603707  0.94854041  0.69139720  1
  Zn  Zn118  1  0.93892983  0.43761440  0.19032502  1
  Zn  Zn119  1  0.93312315  0.43749244  0.69042803  1
  Zn  Zn120  1  0.93892631  0.93617038  0.19200260  1
  Zn  Zn121  1  0.94725119  0.93288205  0.68261268  1
  Zn  Zn122  1  0.06207728  0.06431351  0.31626807  1
  Zn  Zn123  1  0.06283900  0.05861582  0.81256046  1
  Zn  Zn124  1  0.05973320  0.56736794  0.32095661  1
  Zn  Zn125  1  0.06927592  0.55999543  0.81056998  1
  Zn  Zn126  1  0.56283615  0.06466921  0.30941891  1
  Zn  Zn127  1  0.54262344  0.09273917  0.86895792  1
  Zn  Zn128  1  0.56538454  0.55730030  0.31348070  1
  Zn  Zn129  1  0.56936265  0.56218741  0.80944340  1
  Zn  Zn130  1  0.43388022  0.19645540  0.43424432  1
  Zn  Zn131  1  0.42121434  0.18843110  0.92491336  1
  Zn  Zn132  1  0.43562965  0.68533636  0.43561605  1
  Zn  Zn133  1  0.44515817  0.69118371  0.94244163  1
  Zn  Zn134  1  0.92858963  0.18219244  0.43107780  1
  Zn  Zn135  1  0.92898322  0.18909974  0.94241092  1
  Zn  Zn136  1  0.94033451  0.71165856  0.46869658  1
  Zn  Zn137  1  0.94075114  0.68404479  0.93760901  1
  Zn  Zn138  1  0.06489603  0.31828087  0.05469551  1
  Zn  Zn139  1  0.06146370  0.31135573  0.56427161  1
  Zn  Zn140  1  0.06343101  0.81153990  0.06575003  1
  Zn  Zn141  1  0.07502993  0.75303473  0.60467106  1
  Zn  Zn142  1  0.55872524  0.19536811  0.05158976  1
  Zn  Zn143  1  0.55977001  0.43265605  0.55813481  1
  Zn  Zn144  1  0.56595603  0.81104895  0.06108487  1
  Zn  Zn145  1  0.55963023  0.81021176  0.56869161  1
  O  O146  1  0.13119419  0.11497321  0.11430577  1
  O  O147  1  0.10689772  0.13379379  0.61774496  1
  O  O148  1  0.11838966  0.61739231  0.12408067  1
  O  O149  1  0.11698837  0.65180808  0.62428775  1
  O  O150  1  0.61661676  0.11304783  0.12782459  1
  O  O151  1  0.61099918  0.12049671  0.61858622  1
  O  O152  1  0.61270469  0.63151374  0.11468371  1
  O  O153  1  0.61029011  0.62786106  0.62187371  1
  O  O154  1  0.37190902  0.38630904  0.37434991  1
  O  O155  1  0.38238691  0.37747822  0.87341262  1
  O  O156  1  0.37959086  0.88288044  0.37912280  1
  O  O157  1  0.38925465  0.87046667  0.87561785  1
  O  O158  1  0.87672133  0.38346197  0.38688500  1
  O  O159  1  0.88697254  0.37275404  0.87539798  1
  O  O160  1  0.86459877  0.87382882  0.40218329  1
  O  O161  1  0.89563166  0.87586793  0.88727854  1
  O  O162  1  0.25741717  0.01600195  0.38243844  1
  O  O163  1  0.25167588  -0.00481309  0.87688928  1
  O  O164  1  0.25629483  0.51418425  0.37556675  1
  O  O165  1  0.24811430  0.48356876  0.86810627  1
  O  O166  1  0.74075682  0.01483935  0.36179313  1
  O  O167  1  0.77827426  -0.02744764  0.87483155  1
  O  O168  1  0.76022624  0.51056229  0.36963151  1
  O  O169  1  0.75344453  0.49476171  0.86915858  1
  O  O170  1  0.23946271  0.49449697  0.12599517  1
  O  O171  1  0.25068186  0.49334528  0.61784416  1
  O  O172  1  0.23575895  0.98485090  0.11978735  1
  O  O173  1  0.25161800  1.04517174  0.65722476  1
  O  O174  1  0.75932640  0.50664902  0.14727036  1
  O  O175  1  0.75380349  0.48713849  0.62175853  1
  O  O176  1  0.74033309  0.99355586  0.13520847  1
  O  O177  1  0.74204652  1.01071211  0.63767752  1
  O  O178  1  -0.00560221  0.35743219  0.25601822  1
  O  O179  1  -0.00437397  0.36480241  0.75967167  1
  O  O180  1  0.00961901  0.86374723  0.24899810  1
  O  O181  1  0.00939548  0.87325262  0.77049266  1
  O  O182  1  0.50446191  0.36393837  0.25138392  1
  O  O183  1  0.51104747  0.37698157  0.76126743  1
  O  O184  1  0.50642557  0.86492055  0.25860938  1
  O  O185  1  0.49943072  0.86035504  0.74242261  1
  O  O186  1  0.48724466  0.13687960  0.25788943  1
  O  O187  1  0.51108673  0.14557685  0.77277096  1
  O  O188  1  0.50844426  0.63335149  0.23925133  1
  O  O189  1  0.49304240  0.62643687  0.74122944  1
  O  O190  1  0.98962538  0.13422551  0.26000621  1
  O  O191  1  0.99839914  0.13526283  0.74409067  1
  O  O192  1  1.00427711  0.63675765  0.24330066  1
  O  O193  1  0.99607501  0.61135053  0.74062804  1
  O  O194  1  0.37317966  0.24153019  0.01464338  1
  O  O195  1  0.35727640  0.26935043  0.48558309  1
  O  O196  1  0.35955718  0.74181170  0.00023084  1
  O  O197  1  0.37041943  0.75564259  0.50606476  1
  O  O198  1  0.86665120  0.26372877  0.00067164  1
  O  O199  1  0.87056887  0.26002738  0.50567436  1
  O  O200  1  0.88362529  0.75856115  0.01453600  1
  O  O201  1  0.83362716  0.74709499  0.51437467  1
  O  O202  1  0.13965397  0.25689849  0.48897875  1
  O  O203  1  0.11618813  0.23540095  0.99085622  1
  O  O204  1  0.13793313  0.75880024  0.49252028  1
  O  O205  1  0.13100128  0.73984938  1.00133673  1
  O  O206  1  0.63903990  0.25529958  0.49951125  1
  O  O207  1  0.64009151  0.25735219  1.00084133  1
  O  O208  1  0.62194094  0.75183607  0.48594593  1
  O  O209  1  0.62115687  0.73575028  0.99621486  1
  O  O210  1  0.48294928  0.24548808  0.13248196  1
  O  O211  1  0.51074827  0.23250760  0.64193944  1
  O  O212  1  0.50069365  0.75095840  0.13937239  1
  O  O213  1  0.49363539  0.74000728  0.63533544  1
  O  O214  1  1.01447257  0.25048163  0.13746829  1
  O  O215  1  0.99186500  0.24639130  0.63485078  1
  O  O216  1  0.99356678  0.74363675  0.13728884  1
  O  O217  1  0.96805388  0.75274255  0.57786587  1
  O  O218  1  0.01561460  0.25064036  0.38055079  1
  O  O219  1  -0.00436135  0.25145023  0.86250551  1
  O  O220  1  0.00873098  0.74261019  0.37431817  1
  O  O221  1  0.01625844  0.76132098  0.88965942  1
  O  O222  1  0.48815918  0.26424549  0.35687733  1
  O  O223  1  0.49568354  0.26793519  0.87120445  1
  O  O224  1  0.51023803  0.75415339  0.36721907  1
  O  O225  1  0.49903742  0.76076939  0.86532540  1
  O  O226  1  0.25920519  0.14175843  0.49050258  1
  O  O227  1  0.23397870  0.12625763  0.99622250  1
  O  O228  1  0.26179199  0.63617586  0.48511691  1
  O  O229  1  0.24016177  0.63665402  1.01396510  1
  O  O230  1  0.75108282  0.13495741  0.48523986  1
  O  O231  1  0.75388588  0.16014704  1.04642070  1
  O  O232  1  0.74366215  0.61554831  0.48347542  1
  O  O233  1  0.73864845  0.61751497  0.99713220  1
  O  O234  1  0.23841235  0.37201358  0.02316119  1
  O  O235  1  0.25625841  0.37228713  0.50734560  1
  O  O236  1  0.24374882  0.86101261  0.01815496  1
  O  O237  1  0.26391253  0.86250758  0.50011941  1
  O  O238  1  0.76262011  0.36588711  -0.00609195  1
  O  O239  1  0.75592974  0.36690123  0.50669553  1
  O  O240  1  0.76226238  0.87962370  0.01628282  1
  O  O241  1  0.82122749  0.91169685  0.46086746  1
  O  O242  1  0.12310121  0.50565391  0.24299492  1
  O  O243  1  0.15054994  0.51072398  0.74827044  1
  O  O244  1  0.11616576  0.99212245  0.24279456  1
  O  O245  1  0.12268073  0.98275176  0.75358771  1
  O  O246  1  0.63603566  0.49242395  0.25114215  1
  O  O247  1  0.64056021  0.48800903  0.75106917  1
  O  O248  1  0.62849456  0.98889414  0.24173097  1
  O  O249  1  0.68025497  1.06853481  0.78068565  1
  O  O250  1  0.37937669  0.01110966  0.26459608  1
  O  O251  1  0.37028546  -0.01023984  0.77010382  1
  O  O252  1  0.37263804  0.50049190  0.25603993  1
  O  O253  1  0.37009461  0.50943062  0.75054073  1
  O  O254  1  0.86624802  0.00633839  0.24921469  1
  O  O255  1  0.89535432  -0.00286957  0.76682287  1
  O  O256  1  0.87110560  0.49620220  0.26579696  1
  O  O257  1  0.85844470  0.51100990  0.74315324  1
  O  O258  1  0.12954733  0.36285011  0.37118568  1
  O  O259  1  0.10646457  0.35376058  0.88774618  1
  O  O260  1  0.13285042  0.86591575  0.36582449  1
  O  O261  1  0.11887960  0.86587089  0.87692150  1
  O  O262  1  0.60874717  0.37064975  0.37083004  1
  O  O263  1  0.62567073  0.37856468  0.86824264  1
  O  O264  1  0.62095743  0.86541061  0.36704360  1
  O  O265  1  0.59984561  0.87957205  0.87620892  1
  O  O266  1  0.35957128  0.13263439  0.13631680  1
  O  O267  1  0.39698291  0.13463721  0.61843733  1
  O  O268  1  0.39699280  0.62011705  0.12579119  1
  O  O269  1  0.38831323  0.63040386  0.63020781  1
  O  O270  1  0.87735633  0.11913792  0.14489488  1
  O  O271  1  0.87839998  0.13746088  0.61639633  1
  O  O272  1  0.88481674  0.63482603  0.12043192  1
  O  O273  1  0.86152946  0.63887479  0.64081219  1
  O  O274  1  0.25763335  0.25640882  0.12733419  1
  O  O275  1  0.24725567  0.26009509  0.61177421  1
  O  O276  1  0.24773210  0.75915536  0.12118549  1
  O  O277  1  0.26755694  0.73785867  0.61918684  1
  O  O278  1  0.72823038  0.29653544  0.13068844  1
  O  O279  1  0.75319159  0.25481343  0.61320446  1
  O  O280  1  0.76123967  0.75728068  0.13943136  1
  O  O281  1  0.76200782  0.76656022  0.66498477  1
  O  O282  1  0.23997097  0.24369529  0.37914677  1
  O  O283  1  0.23130660  0.25627728  0.86213142  1
  O  O284  1  0.24445275  0.74425875  0.38432318  1
  O  O285  1  0.23816851  0.75770467  0.89625402  1
  O  O286  1  0.75201440  0.24685378  0.38420821  1
  O  O287  1  0.75322201  0.23900308  0.88763689  1
  O  O288  1  0.73505543  0.73785546  0.36697583  1
  O  O289  1  0.75106991  0.76322615  0.86825246  1
  O  O290  1  0.00122377  0.11100633  0.00153871  1
  O  O291  1  -0.00711852  0.12755194  0.50664257  1
  O  O292  1  0.00822583  0.62421897  0.01465664  1
  O  O293  1  -0.00798670  0.61072254  0.49642624  1
  O  O294  1  0.50766404  0.12553140  -0.02349035  1
  O  O295  1  0.50024954  0.13056245  0.49654949  1
  O  O296  1  0.50775012  0.61888503  0.01023525  1
  O  O297  1  0.49807072  0.62772588  0.51472719  1
  O  O298  1  0.48476743  0.36986410  0.48300204  1
  O  O299  1  0.50265148  0.38713975  0.98619459  1
  O  O300  1  0.48774744  0.86293974  0.48724993  1
  O  O301  1  0.49355782  0.87432495  0.99896934  1
  O  O302  1  0.99068186  0.37924183  0.49904389  1
  O  O303  1  0.98612985  0.37193919  0.99007484  1
  O  O304  1  1.01488243  0.91324658  0.48979601  1
  O  O305  1  0.99594346  0.88201905  0.99975643  1
  O  O306  1  0.48648691  0.48454447  0.36256695  1
  O  O307  1  0.50236679  0.49170704  0.87947856  1
  O  O308  1  0.49517759  0.98847353  0.37110486  1
  O  O309  1  0.48569284  0.98939933  0.88283270  1
  O  O310  1  0.99213509  0.49879987  0.38275403  1
  O  O311  1  1.01059853  0.48266856  0.87436714  1
  O  O312  1  0.99794419  0.99592480  0.38580389  1
  O  O313  1  0.99924700  0.98840342  0.89160340  1
  O  O314  1  0.00956924  -0.00689163  0.11553764  1
  O  O315  1  -0.00637748  0.01806512  0.62413722  1
  O  O316  1  0.01030622  0.50863794  0.12928088  1
  O  O317  1  -0.00703391  0.49382871  0.61197850  1
  O  O318  1  0.51446313  -0.00900595  0.12244707  1
  O  O319  1  0.50000501  0.01818848  0.62881099  1
  O  O320  1  0.50567782  0.50399195  0.12077815  1
  O  O321  1  0.49816969  0.50710634  0.62651004  1
  O  O322  1  0.24398690  0.36995777  0.23099478  1
  O  O323  1  0.26221325  0.39016717  0.73213242  1
  O  O324  1  0.23667519  0.86558266  0.24012010  1
  O  O325  1  0.23898629  0.86728907  0.75035878  1
  O  O326  1  0.74799965  0.39045743  0.26792135  1
  O  O327  1  0.74445449  0.37983163  0.74173433  1
  O  O328  1  0.74393106  0.88265554  0.24671406  1
  O  O329  1  0.76399166  0.95631975  0.68616989  1
  O  O330  1  0.25665533  0.13217358  0.26563126  1
  O  O331  1  0.25042883  0.09931516  0.71111543  1
  O  O332  1  0.25389444  0.63906357  0.26662200  1
  O  O333  1  0.26997615  0.61315826  0.75676191  1
  O  O334  1  0.75892892  0.12472270  0.25168130  1
  O  O335  1  0.72660032  0.12687710  0.75969406  1
  O  O336  1  0.74054488  0.61234735  0.26863386  1
  O  O337  1  0.74078201  0.61196455  0.76280904  1
  O  O338  1  0.36652523  0.12150005  0.36974177  1
  O  O339  1  0.35806494  0.11811710  0.86465564  1
  O  O340  1  0.37211958  0.61124211  0.37051073  1
  O  O341  1  0.38920217  0.62467234  0.86436721  1
  O  O342  1  0.85688763  0.12833539  0.35925684  1
  O  O343  1  0.87658700  0.10423721  0.88667737  1
  O  O344  1  0.86402650  0.62385699  0.38088350  1
  O  O345  1  0.88036957  0.63128753  0.85627691  1
  O  O346  1  0.12495871  0.39102227  0.12570970  1
  O  O347  1  0.13868289  0.37511868  0.62319620  1
  O  O348  1  0.12880464  0.88110064  0.13526628  1
  O  O349  1  0.11192099  0.85384468  0.65025412  1
  O  O350  1  0.67063579  0.34859336  0.12951598  1
  O  O351  1  0.63766058  0.37743785  0.62878888  1
  O  O352  1  0.63422761  0.87597477  0.13308985  1
  O  O353  1  0.63881997  0.89147819  0.59102365  1
  O  O354  1  0.11178794  0.23919048  0.26380844  1
  O  O355  1  0.10952963  0.24498074  0.76217147  1
  O  O356  1  0.11441151  0.75664214  0.26193560  1
  O  O357  1  0.13610971  0.74954554  0.77434041  1
  O  O358  1  0.60767835  0.24417756  0.23485594  1
  O  O359  1  0.61845829  0.27160438  0.75035647  1
  O  O360  1  0.61648131  0.75813903  0.25645891  1
  O  O361  1  0.60740335  0.74207178  0.75266053  1
  O  O362  1  0.37956184  0.24284125  0.24145548  1
  O  O363  1  0.39440754  0.26017861  0.74637946  1
  O  O364  1  0.39275579  0.74569886  0.26093442  1
  O  O365  1  0.38299912  0.73726408  0.74577745  1
  O  O366  1  0.88832734  0.24170689  0.24985192  1
  O  O367  1  0.88242114  0.25148299  0.74040306  1
  O  O368  1  0.88473578  0.75886170  0.24638107  1
  O  O369  1  0.90055437  0.73934898  0.74074349  1
  O  O370  1  0.37122120  0.48769341  0.48314552  1
  O  O371  1  0.39603764  0.50713577  1.00136791  1
  O  O372  1  0.36966696  0.99023306  0.48987591  1
  O  O373  1  0.36818043  1.00444376  0.98400526  1
  O  O374  1  0.88009028  0.49255456  0.49260509  1
  O  O375  1  0.87759567  0.48258974  1.00207844  1
  O  O376  1  0.86411645  0.97372345  0.49248417  1
  O  O377  1  0.88664929  0.98987905  1.00488196  1
  O  O378  1  0.11475360  0.00825838  0.00594055  1
  O  O379  1  0.04185327  -0.02652991  0.45330379  1
  O  O380  1  0.12094230  0.51117090  0.00808420  1
  O  O381  1  0.10877543  0.49659317  0.49399470  1
  O  O382  1  0.63367898  -0.00266403  0.01686051  1
  O  O383  1  0.62909089  -0.05327668  0.52043220  1
  O  O384  1  0.61051759  0.51467174  -0.00146225  1
  O  O385  1  0.61533220  0.49279867  0.48264968  1
  O  O386  1  0.36411297  0.36275421  0.12467132  1
  O  O387  1  0.37257957  0.38200674  0.60694265  1
  O  O388  1  0.35811719  0.88284615  0.13693946  1
  O  O389  1  0.38665619  0.86468996  0.61591950  1
  O  O390  1  0.87842116  0.37229138  0.11778689  1
  O  O391  1  0.86247226  0.36563180  0.61873091  1
  O  O392  1  0.87064707  0.86681991  0.12242073  1
  O  O393  1  0.87611994  0.86386946  0.63144666  1
  O  O394  1  0.13865134  0.12980464  0.37729101  1
  O  O395  1  0.11707665  0.13358368  0.88580881  1
  O  O396  1  0.13880412  0.63486349  0.37485016  1
  O  O397  1  0.11780432  0.63656021  0.88837776  1
  O  O398  1  0.64060657  0.13096317  0.36181996  1
  O  O399  1  0.65632324  0.07166372  0.86394404  1
  O  O400  1  0.62138252  0.63551079  0.37968333  1
  O  O401  1  0.62285708  0.62980626  0.88791937  1
