# generated using pymatgen
data_V73Zn73O256
_symmetry_space_group_name_H-M   'P 1'
_cell_length_a   16.86581059
_cell_length_b   16.92037361
_cell_length_c   16.97790990
_cell_angle_alpha   90.17029977
_cell_angle_beta   89.80805959
_cell_angle_gamma   90.09726302
_symmetry_Int_Tables_number   1
_chemical_formula_structural   V73Zn73O256
_chemical_formula_sum   'V73 Zn73 O256'
_cell_volume   4845.02941100
_cell_formula_units_Z   1
loop_
 _symmetry_equiv_pos_site_id
 _symmetry_equiv_pos_as_xyz
  1  'x, y, z'
loop_
 _atom_site_type_symbol
 _atom_site_label
 _atom_site_symmetry_multiplicity
 _atom_site_fract_x
 _atom_site_fract_y
 _atom_site_fract_z
 _atom_site_occupancy
  V  V0  1  0.12974239  0.37589336  0.26435495  1
  V  V1  1  0.26434858  0.62045495  0.37230313  1
  V  V2  1  0.10189718  0.74669832  0.87128213  1
  V  V3  1  0.14087036  -0.02281909  0.13763067  1
  V  V4  1  0.49296381  0.38636065  0.37592538  1
  V  V5  1  0.73083831  0.00178774  0.74611922  1
  V  V6  1  0.10602938  0.61880913  0.00343659  1
  V  V7  1  0.25882731  0.37147474  0.10702851  1
  V  V8  1  0.86372836  0.49552559  0.88688623  1
  V  V9  1  0.36259694  -0.00962337  0.86055946  1
  V  V10  1  -0.00070174  0.12481701  0.62270843  1
  V  V11  1  0.24684084  0.12517569  0.86905888  1
  V  V12  1  0.50442291  0.86194529  0.86404173  1
  V  V13  1  0.75291034  0.38488857  0.62903797  1
  V  V14  1  0.87567708  0.88974924  0.02669054  1
  V  V15  1  0.38011557  0.01971039  0.36225958  1
  V  V16  1  0.24984011  0.75018661  0.51147224  1
  V  V17  1  0.87537213  0.11737692  0.75602226  1
  V  V18  1  -0.00067022  0.25690847  0.26414992  1
  V  V19  1  0.24904820  0.88130984  0.63525177  1
  V  V20  1  -0.01271219  0.62053750  0.13969967  1
  V  V21  1  0.62288454  0.38474785  0.75993310  1
  V  V22  1  0.13092363  0.12293514  0.49159400  1
  V  V23  1  0.01387117  0.88756733  0.39080608  1
  V  V24  1  0.61984713  0.11751731  0.50763492  1
  V  V25  1  0.11792485  0.87160911  0.75158176  1
  V  V26  1  0.38299441  0.62224394  0.75150583  1
  V  V27  1  0.88391716  0.62231430  0.75986433  1
  V  V28  1  0.74259641  0.38992717  0.12305581  1
  V  V29  1  0.12300331  0.25366905  0.88510050  1
  V  V30  1  0.88659192  -0.01467282  0.38822591  1
  V  V31  1  0.12533302  0.00342934  0.63065704  1
  V  V32  1  0.23853507  0.62370735  0.87140707  1
  V  V33  1  0.37378642  0.38666319  0.50306306  1
  V  V34  1  0.87706053  0.25306776  0.10993711  1
  V  V35  1  0.38424621  0.74282242  0.64021195  1
  V  V36  1  0.50260288  0.11602978  0.62576722  1
  V  V37  1  0.37248632  0.49969957  0.88573132  1
  V  V38  1  0.62369655  0.84043795  0.73696143  1
  V  V39  1  0.36681071  0.25443833  0.62540171  1
  V  V40  1  0.50170510  0.11617082  0.12957936  1
  V  V41  1  0.75036037  0.25315591  0.50597520  1
  V  V42  1  0.61936967  0.24940579  0.37058414  1
  V  V43  1  0.43845915  0.32354008  0.93180005  1
  V  V44  1  0.12423639  0.11316448  0.00235379  1
  V  V45  1  -0.00882858  0.89538710  0.87960325  1
  V  V46  1  -0.00108525  0.48271175  0.47579401  1
  V  V47  1  0.75975178  0.12484430  0.37740664  1
  V  V48  1  0.24893835  0.24921699  0.48049078  1
  V  V49  1  0.49704912  0.25335251  0.74881692  1
  V  V50  1  0.63525300  0.24060665  0.88228597  1
  V  V51  1  0.11688726  0.62523371  0.50495094  1
  V  V52  1  0.55796398  0.56142930  -0.06282677  1
  V  V53  1  0.13488453  0.75871442  0.37321283  1
  V  V54  1  0.61396226  0.50348735  0.61208873  1
  V  V55  1  -0.00571449  0.75978148  0.25084311  1
  V  V56  1  0.87635947  0.24966350  0.62925985  1
  V  V57  1  0.76268471  0.86525438  0.61823966  1
  V  V58  1  0.00871163  0.12420415  0.13158370  1
  V  V59  1  0.39502075  0.87667526  0.50871023  1
  V  V60  1  0.61274982  0.50252247  0.14654877  1
  V  V61  1  0.11031451  0.50246388  0.62721122  1
  V  V62  1  0.11541118  0.36541057  0.74039978  1
  V  V63  1  0.36200297  0.87175435  0.00413377  1
  V  V64  1  -0.00686656  0.37676177  0.88706803  1
  V  V65  1  0.12682333  0.50208268  0.13571629  1
  V  V66  1  0.75281828  -0.01160562  0.25415079  1
  V  V67  1  0.50632630  -0.00615464  -0.00065011  1
  V  V68  1  0.62147680  0.78601744  0.36777388  1
  V  V69  1  0.48854236  0.24561622  0.24812830  1
  V  V70  1  0.24430478  0.49318663  0.74247712  1
  V  V71  1  0.24226667  0.74874963  0.00609799  1
  V  V72  1  0.48524642  0.62824087  0.13328045  1
  Zn  Zn73  1  0.33552702  0.12320140  0.22322274  1
  Zn  Zn74  1  0.89580869  0.74814784  0.64660628  1
  Zn  Zn75  1  0.81442874  0.04008388  0.91628725  1
  Zn  Zn76  1  0.36697611  0.11645136  0.74024499  1
  Zn  Zn77  1  0.75933543  0.75450967  0.47126503  1
  Zn  Zn78  1  0.49307509  0.75886985  0.25561769  1
  Zn  Zn79  1  0.76436206  0.74722892  0.05189822  1
  Zn  Zn80  1  0.73215644  0.65759447  0.88709287  1
  Zn  Zn81  1  0.64840683  0.10998218  -0.00856905  1
  Zn  Zn82  1  0.19169312  0.20936202  0.18369068  1
  Zn  Zn83  1  0.18654804  0.18683365  0.68930623  1
  Zn  Zn84  1  0.23155044  0.73699359  0.21636317  1
  Zn  Zn85  1  0.17924675  0.68605248  0.69060283  1
  Zn  Zn86  1  0.70577156  0.13189324  0.15797692  1
  Zn  Zn87  1  0.68744668  0.19025913  0.69444699  1
  Zn  Zn88  1  0.65096967  0.70029413  0.17650491  1
  Zn  Zn89  1  0.73878191  0.65667754  0.67218866  1
  Zn  Zn90  1  0.30389000  0.43105047  0.30634022  1
  Zn  Zn91  1  0.30361419  0.31123189  0.80833461  1
  Zn  Zn92  1  0.33248421  0.85722055  0.31933955  1
  Zn  Zn93  1  0.30141059  0.80790482  0.81539351  1
  Zn  Zn94  1  0.78118489  0.25547807  0.25980252  1
  Zn  Zn95  1  0.81080729  0.30998313  0.81024125  1
  Zn  Zn96  1  0.78400876  0.77828218  0.25576244  1
  Zn  Zn97  1  0.81580225  0.81165426  0.81074480  1
  Zn  Zn98  1  0.19218157  0.44060236  0.44843083  1
  Zn  Zn99  1  0.17887954  0.44181695  0.93589480  1
  Zn  Zn100  1  0.20388189  0.94139919  0.44329933  1
  Zn  Zn101  1  0.17925566  0.93561644  0.93679539  1
  Zn  Zn102  1  0.68446520  0.42909587  0.44059354  1
  Zn  Zn103  1  0.69038056  0.42004958  0.94743106  1
  Zn  Zn104  1  0.68857546  0.93862562  0.44414945  1
  Zn  Zn105  1  0.69417080  0.85582804  0.94312011  1
  Zn  Zn106  1  0.31258009  0.06362676  0.05395452  1
  Zn  Zn107  1  0.31521767  0.06161564  0.55685790  1
  Zn  Zn108  1  0.30081813  0.56439287  0.06538274  1
  Zn  Zn109  1  0.30671901  0.56599943  0.56689673  1
  Zn  Zn110  1  0.83224416  0.05273068  0.07218016  1
  Zn  Zn111  1  0.80830218  0.05678169  0.56755333  1
  Zn  Zn112  1  0.80669459  0.56267802  0.06063803  1
  Zn  Zn113  1  0.86378982  0.59125406  0.54430537  1
  Zn  Zn114  1  0.43581673  0.43361884  0.18191228  1
  Zn  Zn115  1  0.43788993  0.44033754  0.68965434  1
  Zn  Zn116  1  0.42763125  0.93821852  0.18767859  1
  Zn  Zn117  1  0.44581062  0.92854828  0.68151725  1
  Zn  Zn118  1  0.93901018  0.42558913  0.18596448  1
  Zn  Zn119  1  0.93294755  0.44025149  0.69714699  1
  Zn  Zn120  1  0.95126396  0.95219103  0.21127178  1
  Zn  Zn121  1  0.94057234  0.94216263  0.68572161  1
  Zn  Zn122  1  0.13216659  0.08672829  0.28561963  1
  Zn  Zn123  1  0.06228806  0.06819157  0.80459724  1
  Zn  Zn124  1  0.06989077  0.57203231  0.31451628  1
  Zn  Zn125  1  0.05172206  0.55748838  0.81222783  1
  Zn  Zn126  1  0.56404647  0.05159055  0.32116880  1
  Zn  Zn127  1  0.55598521  0.05929229  0.81397214  1
  Zn  Zn128  1  0.43551382  0.56730964  0.31605294  1
  Zn  Zn129  1  0.59966349  0.61958905  0.75850994  1
  Zn  Zn130  1  0.43439139  0.18845580  0.44203069  1
  Zn  Zn131  1  0.43624575  0.16535772  0.93455938  1
  Zn  Zn132  1  0.44740272  0.69930707  0.44816386  1
  Zn  Zn133  1  0.42620787  0.68507843  0.93666736  1
  Zn  Zn134  1  0.94197922  0.19220805  0.44672734  1
  Zn  Zn135  1  0.94471312  0.18571808  0.93533032  1
  Zn  Zn136  1  0.95130895  0.71974320  0.46651674  1
  Zn  Zn137  1  0.90141635  0.68232898  0.96110568  1
  Zn  Zn138  1  0.06483120  0.31307022  0.06497003  1
  Zn  Zn139  1  0.06239386  0.30839793  0.55783766  1
  Zn  Zn140  1  0.04982357  0.80855355  0.05974314  1
  Zn  Zn141  1  0.06422956  0.81561189  0.56802226  1
  Zn  Zn142  1  0.56711097  0.30935092  0.06902073  1
  Zn  Zn143  1  0.56047291  0.31376253  0.56376987  1
  Zn  Zn144  1  0.54592583  0.78829864  0.03640278  1
  Zn  Zn145  1  0.56912540  0.77719049  0.55742405  1
  O  O146  1  0.12764974  0.13320109  0.10636557  1
  O  O147  1  0.11798014  0.11969997  0.62717082  1
  O  O148  1  0.11351131  0.61104387  0.11856153  1
  O  O149  1  0.12682595  0.61540398  0.61618048  1
  O  O150  1  0.60689915  0.12285920  0.10279197  1
  O  O151  1  0.61354274  0.13343744  0.61872396  1
  O  O152  1  0.60657620  0.61035644  0.12533377  1
  O  O153  1  0.63955172  0.60076461  0.64968247  1
  O  O154  1  0.38205716  0.37962965  0.38883073  1
  O  O155  1  0.37527009  0.38334505  0.87043835  1
  O  O156  1  0.39203701  0.84052462  0.41491010  1
  O  O157  1  0.37653136  0.87997743  0.87053716  1
  O  O158  1  0.82650064  0.43108257  0.33115457  1
  O  O159  1  0.88620300  0.37720639  0.86599076  1
  O  O160  1  0.89673505  0.88245226  0.39135949  1
  O  O161  1  0.89262018  0.88315694  0.86053127  1
  O  O162  1  0.29015196  -0.03927526  0.37204098  1
  O  O163  1  0.25754707  -0.00066601  0.87265097  1
  O  O164  1  0.25215548  0.51605153  0.37936963  1
  O  O165  1  0.24829347  0.50826818  0.86590038  1
  O  O166  1  0.76123819  0.01160857  0.37721459  1
  O  O167  1  0.74999931  -0.01681880  0.84405795  1
  O  O168  1  0.76214414  0.46974955  0.36072204  1
  O  O169  1  0.76322381  0.48314466  0.88180940  1
  O  O170  1  0.23169086  0.49893403  0.12566065  1
  O  O171  1  0.23656521  0.50160725  0.63746750  1
  O  O172  1  0.23815329  1.00191524  0.11597622  1
  O  O173  1  0.24579017  0.98817468  0.62497146  1
  O  O174  1  0.73666673  0.49669380  0.12370290  1
  O  O175  1  0.74604313  0.48295558  0.62473728  1
  O  O176  1  0.76280954  1.02894212  0.15837704  1
  O  O177  1  0.75258803  0.98036336  0.63516327  1
  O  O178  1  0.01238587  0.36755366  0.25295950  1
  O  O179  1  0.01298440  0.37628283  0.75899749  1
  O  O180  1  0.00873792  0.86485927  0.26692120  1
  O  O181  1  0.01178447  0.88066182  0.75694422  1
  O  O182  1  0.48850187  0.35414640  0.26581738  1
  O  O183  1  0.51149694  0.36439444  0.74456355  1
  O  O184  1  0.59042145  0.89512679  0.18154474  1
  O  O185  1  0.51309863  0.87156510  0.75475789  1
  O  O186  1  0.51370905  0.12203534  0.23340997  1
  O  O187  1  0.49600085  0.13426011  0.74006037  1
  O  O188  1  0.48145952  0.63823989  0.23747277  1
  O  O189  1  0.48143630  0.61968150  0.75727493  1
  O  O190  1  1.03053812  0.14615031  0.23487235  1
  O  O191  1  0.98652770  0.12489610  0.73683180  1
  O  O192  1  1.00639271  0.63954297  0.24580920  1
  O  O193  1  0.98660132  0.61969712  0.74537491  1
  O  O194  1  0.38100713  0.25707893  -0.02005378  1
  O  O195  1  0.36267472  0.25336012  0.50746084  1
  O  O196  1  0.35425935  0.75910337  -0.01137902  1
  O  O197  1  0.36574289  0.75043577  0.52848944  1
  O  O198  1  0.88063804  0.24239733  0.01129271  1
  O  O199  1  0.86174691  0.24553709  0.51416368  1
  O  O200  1  0.87435924  0.78210882  0.01245238  1
  O  O201  1  0.84496621  0.68370015  0.48096208  1
  O  O202  1  0.14122303  0.24001751  0.50777172  1
  O  O203  1  0.12677774  0.24632084  0.98603026  1
  O  O204  1  0.13307846  0.74336929  0.49877046  1
  O  O205  1  0.12748350  0.74221542  0.99038908  1
  O  O206  1  0.63160610  0.24298194  0.49874852  1
  O  O207  1  0.61691145  0.24884305  0.98284972  1
  O  O208  1  0.64263330  0.75570980  0.47175025  1
  O  O209  1  0.65488153  0.78617098  1.02850310  1
  O  O210  1  0.50687844  0.23962950  0.14209947  1
  O  O211  1  0.49145626  0.24412137  0.63332659  1
  O  O212  1  0.50325798  0.73287146  0.12291647  1
  O  O213  1  0.48134596  0.74939355  0.64609744  1
  O  O214  1  0.99436983  0.24705877  0.12759285  1
  O  O215  1  0.98634057  0.24329970  0.61933748  1
  O  O216  1  1.00463402  0.74453934  0.14561704  1
  O  O217  1  0.97933700  0.74637373  0.57473399  1
  O  O218  1  -0.00132098  0.24383731  0.36260387  1
  O  O219  1  0.01479022  0.25628317  0.87185027  1
  O  O220  1  0.01757278  0.76330127  0.38010056  1
  O  O221  1  0.00332041  0.75258177  0.88153920  1
  O  O222  1  0.50651650  0.24095336  0.36852092  1
  O  O223  1  0.49668476  0.25397731  0.86901973  1
  O  O224  1  0.52266161  0.74010292  0.37217173  1
  O  O225  1  0.48955664  0.76395308  0.87724424  1
  O  O226  1  0.24212573  0.13698366  0.50713662  1
  O  O227  1  0.23783774  0.12037052  0.98059299  1
  O  O228  1  0.24279087  0.63326851  0.49756302  1
  O  O229  1  0.23551973  0.63175689  0.98810260  1
  O  O230  1  0.73809235  0.13203978  0.49869593  1
  O  O231  1  0.75981378  0.10072600  0.99688762  1
  O  O232  1  0.85991472  0.60131661  0.35670463  1
  O  O233  1  0.78437101  0.64813863  0.99068865  1
  O  O234  1  0.24512124  0.38920780  0.00800720  1
  O  O235  1  0.26294952  0.36241017  0.49653430  1
  O  O236  1  0.25135212  0.86050706  -0.01109311  1
  O  O237  1  0.25608040  0.86421523  0.51834979  1
  O  O238  1  0.74104229  0.35501251  0.02702585  1
  O  O239  1  0.74316862  0.36369157  0.51834871  1
  O  O240  1  0.77354381  0.90094122  0.01407328  1
  O  O241  1  0.75326068  0.87516589  0.51500897  1
  O  O242  1  0.12110298  0.49378056  0.24153373  1
  O  O243  1  0.12574011  0.49212698  0.74417308  1
  O  O244  1  0.13315143  0.98380121  0.23842286  1
  O  O245  1  0.12522088  0.99330802  0.73783810  1
  O  O246  1  0.61858947  0.49602757  0.24147857  1
  O  O247  1  0.61942235  0.48305941  0.75403608  1
  O  O248  1  0.65222579  1.00816644  0.26698500  1
  O  O249  1  0.62910633  1.00260749  0.74450268  1
  O  O250  1  0.38041969  0.02115365  0.25632194  1
  O  O251  1  0.37971925  -0.00558266  0.75900765  1
  O  O252  1  0.37662013  0.49600751  0.25383944  1
  O  O253  1  0.36285341  0.50314535  0.75598332  1
  O  O254  1  0.86899170  0.00298123  0.27949295  1
  O  O255  1  0.87071940  0.01505745  0.74311364  1
  O  O256  1  0.84968833  0.46299980  0.26356991  1
  O  O257  1  0.87609518  0.50783135  0.76760684  1
  O  O258  1  0.13972704  0.38345147  0.36221829  1
  O  O259  1  0.11724509  0.36567915  0.86971647  1
  O  O260  1  0.12931206  0.86674030  0.38463088  1
  O  O261  1  0.11321002  0.86658767  0.86949734  1
  O  O262  1  0.60626535  0.35753662  0.38741774  1
  O  O263  1  0.62729905  0.36223425  0.86356489  1
  O  O264  1  0.61318083  0.88584769  0.37808904  1
  O  O265  1  0.60774772  0.87283743  0.86309135  1
  O  O266  1  0.39271966  0.12134976  0.11771430  1
  O  O267  1  0.38604707  0.13265528  0.62281495  1
  O  O268  1  0.38816647  0.62025957  0.10708548  1
  O  O269  1  0.36474818  0.63449588  0.63854099  1
  O  O270  1  0.90591244  0.12888919  0.12514909  1
  O  O271  1  0.88200106  0.12915883  0.62751461  1
  O  O272  1  0.88860039  0.61485067  0.13193798  1
  O  O273  1  0.85310263  0.62481955  0.65035192  1
  O  O274  1  0.24022676  0.27192327  0.10834377  1
  O  O275  1  0.26526621  0.24790119  0.63256948  1
  O  O276  1  0.24022014  0.73590835  0.10307555  1
  O  O277  1  0.24422067  0.75839317  0.62377553  1
  O  O278  1  0.78082846  0.21941324  0.13691263  1
  O  O279  1  0.75345231  0.25251575  0.61995026  1
  O  O280  1  0.75929963  0.72110926  0.16233850  1
  O  O281  1  0.75946843  0.75996053  0.62140648  1
  O  O282  1  0.24985598  0.24634322  0.38603599  1
  O  O283  1  0.23328606  0.24103827  0.86731424  1
  O  O284  1  0.24370025  0.74649039  0.39429064  1
  O  O285  1  0.23356799  0.73633272  0.87915055  1
  O  O286  1  0.73642107  0.24391517  0.38642710  1
  O  O287  1  0.73476603  0.24639754  0.87028867  1
  O  O288  1  0.72976750  0.76522966  0.35632325  1
  O  O289  1  0.73947862  0.77228102  0.88015049  1
  O  O290  1  0.01819426  0.13070668  0.00879646  1
  O  O291  1  0.01900131  0.13447363  0.51208645  1
  O  O292  1  0.00147300  0.64136190  0.02342995  1
  O  O293  1  0.01579258  0.61132551  0.48789007  1
  O  O294  1  0.49724393  0.10117836  0.00171650  1
  O  O295  1  0.50952892  0.13245273  0.51457087  1
  O  O296  1  0.50622745  0.62912441  -0.00181342  1
  O  O297  1  0.52054553  0.67478216  0.52988635  1
  O  O298  1  0.48491197  0.36496445  0.48772181  1
  O  O299  1  0.49491080  0.37063520  0.99837797  1
  O  O300  1  0.49115599  0.86735499  0.53524530  1
  O  O301  1  0.48286458  0.87578731  0.98593255  1
  O  O302  1  1.01344221  0.38324671  0.48977508  1
  O  O303  1  1.00030992  0.36696684  0.98531447  1
  O  O304  1  1.01980793  0.88988263  0.48915506  1
  O  O305  1  0.99346901  0.87584938  0.98378798  1
  O  O306  1  0.50471760  0.48371319  0.36988451  1
  O  O307  1  0.48726152  0.50949621  0.88265669  1
  O  O308  1  0.48007218  1.00019346  0.37688250  1
  O  O309  1  0.48496672  0.98819715  0.88068409  1
  O  O310  1  1.00784044  0.49804006  0.37712478  1
  O  O311  1  0.99887576  0.48019558  0.87850465  1
  O  O312  1  0.99648166  0.99101454  0.37059751  1
  O  O313  1  1.00905411  0.99378305  0.87263518  1
  O  O314  1  0.02371662  0.01984768  0.13863855  1
  O  O315  1  0.01171174  0.01118646  0.62319924  1
  O  O316  1  0.00388477  0.51253576  0.13996553  1
  O  O317  1  0.00859118  0.49399717  0.62256029  1
  O  O318  1  0.49330980  0.00153902  0.11110993  1
  O  O319  1  0.49790252  0.01769990  0.63216622  1
  O  O320  1  0.50493650  0.50901797  0.12888029  1
  O  O321  1  0.51417702  0.49849745  0.62556876  1
  O  O322  1  0.23230875  0.37765263  0.23198146  1
  O  O323  1  0.23149723  0.38588186  0.75830907  1
  O  O324  1  0.25906648  0.84012918  0.24167680  1
  O  O325  1  0.23411929  0.87045075  0.74456949  1
  O  O326  1  0.73714071  0.34999406  0.21669044  1
  O  O327  1  0.73127892  0.36286454  0.73718059  1
  O  O328  1  0.75877153  0.89075818  0.24403385  1
  O  O329  1  0.73134321  0.87546210  0.73729998  1
  O  O330  1  0.22994693  0.13515410  0.25391004  1
  O  O331  1  0.24923051  0.12266546  0.76221176  1
  O  O332  1  0.25785407  0.64091062  0.27472713  1
  O  O333  1  0.24525648  0.61446103  0.75953414  1
  O  O334  1  0.74519000  0.13905988  0.27652362  1
  O  O335  1  0.75753975  0.10953955  0.73930886  1
  O  O336  1  0.68476926  0.60828321  0.31653836  1
  O  O337  1  0.76621077  0.62831119  0.78070927  1
  O  O338  1  0.36390463  0.11488075  0.39134090  1
  O  O339  1  0.36532444  0.10576378  0.86909810  1
  O  O340  1  0.36994551  0.63174058  0.39080926  1
  O  O341  1  0.35830151  0.61841623  0.86825654  1
  O  O342  1  0.85935308  0.13492230  0.38623356  1
  O  O343  1  0.88064546  0.12598532  0.85878142  1
  O  O344  1  0.83195812  0.60609061  0.29065397  1
  O  O345  1  0.88962175  0.60588304  0.87357470  1
  O  O346  1  0.12157266  0.39437119  0.12315698  1
  O  O347  1  0.11928861  0.37940692  0.63713681  1
  O  O348  1  0.12272507  0.88152564  0.11236913  1
  O  O349  1  0.12903911  0.88265359  0.63295415  1
  O  O350  1  0.62612455  0.39491150  0.11818664  1
  O  O351  1  0.62929509  0.38484275  0.63259939  1
  O  O352  1  0.63748276  0.90098176  0.12652041  1
  O  O353  1  0.62750161  0.85028459  0.63424451  1
  O  O354  1  0.11548840  0.27094149  0.24588626  1
  O  O355  1  0.12610004  0.26281990  0.75335472  1
  O  O356  1  0.12287761  0.74672561  0.27300679  1
  O  O357  1  0.12127765  0.75798359  0.75943545  1
  O  O358  1  0.61777193  0.24272417  0.27126287  1
  O  O359  1  0.61208983  0.25065883  0.76108382  1
  O  O360  1  0.61186033  0.76809010  0.25786549  1
  O  O361  1  0.62360132  0.74320276  0.74979161  1
  O  O362  1  0.39302395  0.22316777  0.25717530  1
  O  O363  1  0.38221757  0.25116874  0.74422490  1
  O  O364  1  0.42792434  0.84915737  0.25387987  1
  O  O365  1  0.35901628  0.73653147  0.74611318  1
  O  O366  1  0.89704249  0.25348092  0.24166729  1
  O  O367  1  0.86108745  0.23180945  0.73694317  1
  O  O368  1  0.89735815  0.75362553  0.26925110  1
  O  O369  1  0.88145998  0.73334720  0.75996847  1
  O  O370  1  0.36779675  0.48539432  0.51237199  1
  O  O371  1  0.36004110  0.50556273  0.98283319  1
  O  O372  1  0.37618677  0.97940297  0.50457357  1
  O  O373  1  0.37243365  0.98307980  0.98370293  1
  O  O374  1  0.89931836  0.49734403  0.49813069  1
  O  O375  1  0.87586520  0.49848739  0.98684950  1
  O  O376  1  0.87586303  1.01340114  0.48511351  1
  O  O377  1  0.89151513  0.99360816  0.99154289  1
  O  O378  1  0.12376145  0.01070012  0.00566186  1
  O  O379  1  0.14168273  0.01529251  0.51374179  1
  O  O380  1  0.11803499  0.51402003  0.00573495  1
  O  O381  1  0.11875632  0.50448334  0.50946168  1
  O  O382  1  0.60415160  -0.01389668  -0.01026637  1
  O  O383  1  0.62932184  0.01933723  0.50300161  1
  O  O384  1  0.61787988  0.50089900  -0.00884068  1
  O  O385  1  0.63112485  0.50077175  0.51327530  1
  O  O386  1  0.35877487  0.37950199  0.12010718  1
  O  O387  1  0.38518637  0.36594198  0.61272799  1
  O  O388  1  0.36954256  0.87866515  0.10016164  1
  O  O389  1  0.36503186  0.86096613  0.63237992  1
  O  O390  1  0.86401930  0.36126909  0.12269357  1
  O  O391  1  0.86001808  0.36548451  0.64136488  1
  O  O392  1  0.89487575  0.90076907  0.12471172  1
  O  O393  1  0.86586139  0.86911754  0.63832655  1
  O  O394  1  0.12303362  0.11616884  0.39465757  1
  O  O395  1  0.12498226  0.13393246  0.88010832  1
  O  O396  1  0.13962052  0.63661040  0.38658339  1
  O  O397  1  0.12002401  0.62726771  0.88093540  1
  O  O398  1  0.62651139  0.13317264  0.39298803  1
  O  O399  1  0.61545148  0.13532415  0.87765655  1
  O  O400  1  0.66697160  0.59576177  0.38553664  1
  O  O401  1  0.61866907  0.61586155  0.87255560  1
