# generated using pymatgen
data_V73Zn73O256
_symmetry_space_group_name_H-M   'P 1'
_cell_length_a   16.85520815
_cell_length_b   16.85386123
_cell_length_c   16.88097911
_cell_angle_alpha   90.02616700
_cell_angle_beta   89.71800452
_cell_angle_gamma   89.90557403
_symmetry_Int_Tables_number   1
_chemical_formula_structural   V73Zn73O256
_chemical_formula_sum   'V73 Zn73 O256'
_cell_volume   4795.40475473
_cell_formula_units_Z   1
loop_
 _symmetry_equiv_pos_site_id
 _symmetry_equiv_pos_as_xyz
  1  'x, y, z'
loop_
 _atom_site_type_symbol
 _atom_site_label
 _atom_site_symmetry_multiplicity
 _atom_site_fract_x
 _atom_site_fract_y
 _atom_site_fract_z
 _atom_site_occupancy
  V  V0  1  0.38640229  0.87594596  0.50158866  1
  V  V1  1  0.24649980  0.87600641  0.12758049  1
  V  V2  1  0.37348484  0.38412358  -0.00988575  1
  V  V3  1  0.00438155  0.51737734  0.49678348  1
  V  V4  1  0.49351924  0.62005815  0.13128427  1
  V  V5  1  0.51393203  0.86728000  0.87210788  1
  V  V6  1  0.49911689  0.74696748  0.25639605  1
  V  V7  1  0.86596517  0.50726300  0.87884062  1
  V  V8  1  0.74618088  0.37817284  0.62434483  1
  V  V9  1  0.86232844  0.11562472  0.26206456  1
  V  V10  1  0.37926998  0.01008484  0.38024165  1
  V  V11  1  0.12836445  0.24991585  0.86391146  1
  V  V12  1  0.12279640  0.51142034  0.61814199  1
  V  V13  1  0.63415365  0.00981549  0.12486504  1
  V  V14  1  0.51856457  0.61622935  0.62484316  1
  V  V15  1  0.37782359  0.87153009  -0.00042790  1
  V  V16  1  0.25688985  0.61786284  0.85762807  1
  V  V17  1  0.12718961  0.12309128  -0.00889593  1
  V  V18  1  0.50294156  0.25383221  0.75180382  1
  V  V19  1  0.49253384  0.50236573  -0.01808827  1
  V  V20  1  0.88467981  0.24370941  0.65589610  1
  V  V21  1  0.00101973  0.38906373  0.88696100  1
  V  V22  1  0.38366837  0.24578130  0.60979046  1
  V  V23  1  0.50571371  0.01070874  0.00658318  1
  V  V24  1  0.25163899  0.47888627  0.25682249  1
  V  V25  1  0.88213485  0.36056457  0.50304422  1
  V  V26  1  0.89907525  0.75447596  0.63086774  1
  V  V27  1  0.61460684  0.01190910  0.62388608  1
  V  V28  1  0.23184884  0.23561384  0.49987115  1
  V  V29  1  0.37400671  0.74515910  0.13168801  1
  V  V30  1  0.62931008  0.36957503  0.24278581  1
  V  V31  1  0.25003459  0.00301053  0.25048555  1
  V  V32  1  0.12162568  0.38366354  0.74360832  1
  V  V33  1  0.62210249  0.12883265  0.48095207  1
  V  V34  1  -0.00953226  0.12603578  0.12024849  1
  V  V35  1  0.51324125  0.74193646  0.75633605  1
  V  V36  1  0.74092692  0.74080106  0.49641291  1
  V  V37  1  0.88203310  0.87676408  -0.00861592  1
  V  V38  1  0.62634935  0.49598630  0.12548726  1
  V  V39  1  0.37960566  0.74105929  0.63298194  1
  V  V40  1  0.74981430  0.01669249  0.76404517  1
  V  V41  1  0.51411081  0.50527480  0.49419718  1
  V  V42  1  0.11992830  0.00997544  0.62511943  1
  V  V43  1  0.85608109  0.50457628  0.37896665  1
  V  V44  1  0.73631789  0.87080697  0.63741131  1
  V  V45  1  0.50668236  0.87312920  0.37455835  1
  V  V46  1  0.62313842  0.38865458  0.75569640  1
  V  V47  1  0.49526856  0.24932883  0.22752978  1
  V  V48  1  0.25792570  0.24839462  -0.00351917  1
  V  V49  1  0.25611887  0.00367459  0.75551496  1
  V  V50  1  0.38365324  0.12769412  0.74906977  1
  V  V51  1  0.25688389  0.37861993  0.62013534  1
  V  V52  1  0.76676316  0.24616658  -0.00714109  1
  V  V53  1  0.37645732  0.00332290  0.87497263  1
  V  V54  1  0.01476790  0.62768332  0.11792754  1
  V  V55  1  0.49377586  0.36125158  0.37897538  1
  V  V56  1  0.00695614  0.75756473  0.26564120  1
  V  V57  1  0.24299669  0.74202289  0.50456570  1
  V  V58  1  -0.01465332  0.25899137  0.24184074  1
  V  V59  1  0.37815011  0.12704256  0.22795711  1
  V  V60  1  0.12439638  0.23989639  0.35600610  1
  V  V61  1  0.74725476  0.74554751  -0.01659182  1
  V  V62  1  0.62532929  0.23804636  0.87919070  1
  V  V63  1  0.12876392  0.49287974  0.11957296  1
  V  V64  1  0.89237321  0.62481449  0.74327984  1
  V  V65  1  0.63149324  0.62500271  -0.01340150  1
  V  V66  1  0.25399515  0.87857184  0.63070734  1
  V  V67  1  0.25051860  0.63826919  0.36472833  1
  V  V68  1  0.24291322  0.73880133  -0.00153731  1
  V  V69  1  0.86459893  0.74672099  0.13125735  1
  V  V70  1  0.12117643  -0.00045312  0.11808881  1
  V  V71  1  0.11260866  0.75073882  0.86895114  1
  V  V72  1  0.63281535  0.87617203  0.24054749  1
  Zn  Zn73  1  0.77830715  0.36729830  0.11071251  1
  Zn  Zn74  1  0.88993527  0.61916908  0.26090375  1
  Zn  Zn75  1  0.87680918  0.87642828  0.50153704  1
  Zn  Zn76  1  0.00710354  0.38127543  0.36794280  1
  Zn  Zn77  1  0.25431061  0.36477443  0.13002660  1
  Zn  Zn78  1  0.09739082  0.89473846  0.28303504  1
  Zn  Zn79  1  0.37051502  0.49655394  0.38915245  1
  Zn  Zn80  1  0.11863938  0.87381732  0.75341720  1
  Zn  Zn81  1  0.74064162  0.51427228  0.74953781  1
  Zn  Zn82  1  0.19115430  0.17989839  0.17855296  1
  Zn  Zn83  1  0.19878220  0.18889469  0.68652606  1
  Zn  Zn84  1  0.17955673  0.69705271  0.19651060  1
  Zn  Zn85  1  0.18363273  0.69081166  0.69071659  1
  Zn  Zn86  1  0.68880312  0.19191377  0.17182101  1
  Zn  Zn87  1  0.69401090  0.19252195  0.68528168  1
  Zn  Zn88  1  0.67368338  0.68476379  0.18563483  1
  Zn  Zn89  1  0.69893388  0.68596190  0.69428201  1
  Zn  Zn90  1  0.31444772  0.30314478  0.32171302  1
  Zn  Zn91  1  0.31238143  0.32252738  0.80720435  1
  Zn  Zn92  1  0.31487083  0.81678954  0.31615503  1
  Zn  Zn93  1  0.31704734  0.80995140  0.81615577  1
  Zn  Zn94  1  0.81688903  0.32454632  0.30889661  1
  Zn  Zn95  1  0.80882847  0.32116156  0.81949212  1
  Zn  Zn96  1  0.81343395  0.81089600  0.31134291  1
  Zn  Zn97  1  0.81562312  0.80978591  0.80811843  1
  Zn  Zn98  1  0.18371278  0.42518788  0.43742677  1
  Zn  Zn99  1  0.18851264  0.44046288  0.93683285  1
  Zn  Zn100  1  0.20184441  0.93569589  0.44546892  1
  Zn  Zn101  1  0.18754004  0.93137483  0.93698980  1
  Zn  Zn102  1  0.69470426  0.39078572  0.42645614  1
  Zn  Zn103  1  0.68510954  0.43261358  0.93494822  1
  Zn  Zn104  1  0.68581106  0.92995685  0.45086311  1
  Zn  Zn105  1  0.69529603  0.93211797  0.94549433  1
  Zn  Zn106  1  0.31055715  0.06274312  0.05420226  1
  Zn  Zn107  1  0.31797826  0.06344802  0.56523112  1
  Zn  Zn108  1  0.30833777  0.55899738  0.06778117  1
  Zn  Zn109  1  0.32411622  0.55545837  0.56342524  1
  Zn  Zn110  1  0.80479803  0.06288340  0.04362113  1
  Zn  Zn111  1  0.79169877  0.07712585  0.58021145  1
  Zn  Zn112  1  0.83551849  0.54040434  0.08241888  1
  Zn  Zn113  1  0.81494306  0.56460663  0.56807223  1
  Zn  Zn114  1  0.42836198  0.43412524  0.18199447  1
  Zn  Zn115  1  0.44189776  0.43346847  0.67708928  1
  Zn  Zn116  1  0.43936114  0.93587246  0.18909727  1
  Zn  Zn117  1  0.44432195  0.93184366  0.69109788  1
  Zn  Zn118  1  0.94301799  0.44430383  0.19035142  1
  Zn  Zn119  1  0.93990625  0.43851445  0.68642013  1
  Zn  Zn120  1  0.92747036  0.93704707  0.18102793  1
  Zn  Zn121  1  0.91279858  0.96545316  0.66017228  1
  Zn  Zn122  1  0.07937655  0.04208126  0.41705849  1
  Zn  Zn123  1  0.07966163  0.08578781  0.77640134  1
  Zn  Zn124  1  0.07520487  0.56883185  0.31471175  1
  Zn  Zn125  1  0.07219189  0.56913414  0.81434693  1
  Zn  Zn126  1  0.56183944  0.06251673  0.30676695  1
  Zn  Zn127  1  0.56659642  0.05712997  0.80817057  1
  Zn  Zn128  1  0.56303182  0.55575343  0.31141008  1
  Zn  Zn129  1  0.42068227  0.56019044  0.79892216  1
  Zn  Zn130  1  0.45118162  0.18100099  0.43724583  1
  Zn  Zn131  1  0.44230865  0.19120763  0.93395791  1
  Zn  Zn132  1  0.43317877  0.68207171  0.44151816  1
  Zn  Zn133  1  0.43568896  0.68480461  0.94133280  1
  Zn  Zn134  1  0.78528330  0.19706326  0.42838303  1
  Zn  Zn135  1  0.95186886  0.19490370  0.92899982  1
  Zn  Zn136  1  0.92584545  0.69005938  0.44243702  1
  Zn  Zn137  1  0.93266988  0.68008663  0.93993402  1
  Zn  Zn138  1  0.06776836  0.31118730  0.06048783  1
  Zn  Zn139  1  0.05623415  0.30923211  0.56643894  1
  Zn  Zn140  1  0.05789519  0.80903678  0.06425524  1
  Zn  Zn141  1  0.06141728  0.83074931  0.54920924  1
  Zn  Zn142  1  0.55588050  0.31699270  0.05398331  1
  Zn  Zn143  1  0.56906057  0.30680554  0.56014548  1
  Zn  Zn144  1  0.56501313  0.81035010  0.06361594  1
  Zn  Zn145  1  0.56798077  0.80811803  0.56255245  1
  O  O146  1  0.12204490  0.11554970  0.11152583  1
  O  O147  1  0.11872211  0.11008784  0.66254517  1
  O  O148  1  0.12025996  0.62776934  0.12747387  1
  O  O149  1  0.13437796  0.60939658  0.62698695  1
  O  O150  1  0.61852025  0.10881294  0.13247636  1
  O  O151  1  0.63125087  0.11564767  0.62132580  1
  O  O152  1  0.61033853  0.61245615  0.12017931  1
  O  O153  1  0.61582507  0.62866344  0.63067984  1
  O  O154  1  0.38989607  0.37749431  0.36959057  1
  O  O155  1  0.36831354  0.38015899  0.88814480  1
  O  O156  1  0.38460377  0.88034593  0.38431263  1
  O  O157  1  0.38366283  0.88052412  0.88416569  1
  O  O158  1  0.88514330  0.38788752  0.38871826  1
  O  O159  1  0.89366408  0.39333669  0.86681394  1
  O  O160  1  0.84168624  0.91966550  0.37439110  1
  O  O161  1  0.87299533  0.85686223  0.89241580  1
  O  O162  1  0.27022640  -0.01029361  0.36065308  1
  O  O163  1  0.26628370  -0.01103100  0.86795760  1
  O  O164  1  0.24894989  0.49528776  0.36599981  1
  O  O165  1  0.24308908  0.51949468  0.87542170  1
  O  O166  1  0.78246913  -0.03117197  0.37674336  1
  O  O167  1  0.73524045  -0.00414310  0.86334664  1
  O  O168  1  0.75866970  0.48644962  0.38511229  1
  O  O169  1  0.76288968  0.49268994  0.86887252  1
  O  O170  1  0.24292607  0.49827538  0.13825624  1
  O  O171  1  0.24010338  0.48403357  0.60792102  1
  O  O172  1  0.24878266  0.99289838  0.12682693  1
  O  O173  1  0.25175129  0.99533588  0.63585334  1
  O  O174  1  0.72472596  0.50651961  0.11591225  1
  O  O175  1  0.76342966  0.48400393  0.63407370  1
  O  O176  1  0.73291637  1.00124919  0.11327907  1
  O  O177  1  0.74087882  0.98705649  0.63793772  1
  O  O178  1  0.00084666  0.36263151  0.24399443  1
  O  O179  1  0.01857078  0.37721255  0.75259136  1
  O  O180  1  -0.00870016  0.86385385  0.24468915  1
  O  O181  1  -0.00627690  0.90474300  0.79322478  1
  O  O182  1  0.49564179  0.36048398  0.24896672  1
  O  O183  1  0.51521627  0.36553161  0.73432504  1
  O  O184  1  0.50214865  0.86579974  0.25714375  1
  O  O185  1  0.49999917  0.86106691  0.76482754  1
  O  O186  1  0.48863531  0.13713535  0.24867662  1
  O  O187  1  0.49060726  0.13408253  0.75089172  1
  O  O188  1  0.50614813  0.63309367  0.24211047  1
  O  O189  1  0.49519988  0.63547054  0.73714175  1
  O  O190  1  0.97664310  0.13674642  0.22834559  1
  O  O191  1  0.96373111  0.11203948  0.78072840  1
  O  O192  1  1.00902152  0.64235693  0.24965904  1
  O  O193  1  0.99408078  0.62336175  0.74900619  1
  O  O194  1  0.36428007  0.25850260  -0.01161601  1
  O  O195  1  0.37730368  0.24230300  0.50860039  1
  O  O196  1  0.36814181  0.75561562  0.01036729  1
  O  O197  1  0.37245094  0.75895340  0.51385908  1
  O  O198  1  0.86685090  0.25093793  -0.02425848  1
  O  O199  1  0.87666925  0.26247054  0.49555969  1
  O  O200  1  0.86051712  0.74000005  0.01255236  1
  O  O201  1  0.87141597  0.75073635  0.52335510  1
  O  O202  1  0.13176266  0.23750184  0.51448176  1
  O  O203  1  0.13644407  0.24489364  0.98620509  1
  O  O204  1  0.14504513  0.75930294  0.51209368  1
  O  O205  1  0.13997322  0.75434372  0.99476953  1
  O  O206  1  0.62522677  0.23218482  0.49821021  1
  O  O207  1  0.60922963  0.25221902  0.97972861  1
  O  O208  1  0.63932898  0.75638896  0.49179310  1
  O  O209  1  0.63529323  0.73676893  1.00888030  1
  O  O210  1  0.49117953  0.25288408  0.12894455  1
  O  O211  1  0.48697979  0.25527980  0.62979107  1
  O  O212  1  0.49141381  0.74168292  0.13095866  1
  O  O213  1  0.49585406  0.74589214  0.63354274  1
  O  O214  1  1.01444600  0.23808118  0.13284104  1
  O  O215  1  0.98421244  0.25179297  0.63159803  1
  O  O216  1  0.99441658  0.73968018  0.13544693  1
  O  O217  1  0.99755701  0.76650391  0.62749490  1
  O  O218  1  0.00934888  0.24620018  0.34442123  1
  O  O219  1  0.02152910  0.27071507  0.87434814  1
  O  O220  1  -0.01387983  0.75174084  0.36372727  1
  O  O221  1  0.01527479  0.74135217  0.88536312  1
  O  O222  1  0.49608538  0.25898371  0.36379001  1
  O  O223  1  0.50515536  0.25429904  0.85949777  1
  O  O224  1  0.48938609  0.75594699  0.36598191  1
  O  O225  1  0.49385497  0.75469104  0.86594170  1
  O  O226  1  0.25442616  0.13731143  0.50621675  1
  O  O227  1  0.24490994  0.13753170  0.99397189  1
  O  O228  1  0.25522416  0.64147052  0.51187713  1
  O  O229  1  0.25465791  0.63809849  1.00023115  1
  O  O230  1  0.73691211  0.11941355  0.49343345  1
  O  O231  1  0.74689300  0.14480306  0.99338849  1
  O  O232  1  0.75103702  0.64079854  0.51395399  1
  O  O233  1  0.73628010  0.62940030  1.00338693  1
  O  O234  1  0.25723220  0.36764853  -0.00132062  1
  O  O235  1  0.24414446  0.35626923  0.51391947  1
  O  O236  1  0.26219802  0.86749011  0.00774207  1
  O  O237  1  0.26526680  0.86759298  0.51162089  1
  O  O238  1  0.74162953  0.35868676  -0.00276376  1
  O  O239  1  0.76798695  0.38269339  0.51745271  1
  O  O240  1  0.75389266  0.85038708  0.00359579  1
  O  O241  1  0.75976210  0.86857306  0.51593556  1
  O  O242  1  0.14607036  0.50713722  0.24403910  1
  O  O243  1  0.12663241  0.49119165  0.73389478  1
  O  O244  1  0.14082704  0.99714424  0.23107616  1
  O  O245  1  0.14355403  0.98978111  0.75252751  1
  O  O246  1  0.61331957  0.48607179  0.23265298  1
  O  O247  1  0.62115201  0.48764893  0.75207261  1
  O  O248  1  0.61552648  0.98741694  0.23530878  1
  O  O249  1  0.63419102  1.00147785  0.73591176  1
  O  O250  1  0.37333989  0.01138073  0.25260173  1
  O  O251  1  0.37705007  0.00530607  0.75614147  1
  O  O252  1  0.35479945  0.49904186  0.24758503  1
  O  O253  1  0.36760904  0.49404627  0.73066471  1
  O  O254  1  0.87545939  0.01602801  0.24267136  1
  O  O255  1  0.84967688  -0.00699928  0.74848319  1
  O  O256  1  0.88195119  0.49857293  0.27610154  1
  O  O257  1  0.88119431  0.51140071  0.75406720  1
  O  O258  1  0.11539926  0.34575103  0.38894325  1
  O  O259  1  0.12421506  0.37629969  0.86111019  1
  O  O260  1  0.10899772  0.93587673  0.38567757  1
  O  O261  1  0.13117468  0.85739760  0.87504689  1
  O  O262  1  0.60558543  0.38210894  0.34788733  1
  O  O263  1  0.62208475  0.36808077  0.85854059  1
  O  O264  1  0.61238504  0.88769292  0.36376852  1
  O  O265  1  0.61100822  0.86967293  0.88459407  1
  O  O266  1  0.37785418  0.12163985  0.12929452  1
  O  O267  1  0.37402078  0.13845464  0.63457790  1
  O  O268  1  0.38166364  0.63498270  0.11986398  1
  O  O269  1  0.38606968  0.63903554  0.62089746  1
  O  O270  1  0.89437001  0.12024600  0.09787573  1
  O  O271  1  0.86442813  0.14571564  0.63545888  1
  O  O272  1  0.89036406  0.62768670  0.13830362  1
  O  O273  1  0.88491647  0.63850952  0.63280418  1
  O  O274  1  0.24208317  0.25075091  0.10235535  1
  O  O275  1  0.26140498  0.25370985  0.61553712  1
  O  O276  1  0.25399718  0.75623122  0.11793853  1
  O  O277  1  0.26303234  0.75765565  0.62343565  1
  O  O278  1  0.75199556  0.25526804  0.10157801  1
  O  O279  1  0.76766490  0.26943704  0.63592153  1
  O  O280  1  0.76379539  0.73147029  0.13453259  1
  O  O281  1  0.74314374  0.76214998  0.61887141  1
  O  O282  1  0.23740746  0.25047065  0.39031661  1
  O  O283  1  0.23834191  0.26043580  0.88199162  1
  O  O284  1  0.25852505  0.74733394  0.39185952  1
  O  O285  1  0.25326718  0.74421589  0.88866231  1
  O  O286  1  0.74168263  0.29033674  0.38384014  1
  O  O287  1  0.73272266  0.25512565  0.87959361  1
  O  O288  1  0.77355442  0.75514367  0.39931844  1
  O  O289  1  0.75080798  0.74274445  0.88526912  1
  O  O290  1  0.01882464  0.13601023  0.00577452  1
  O  O291  1  -0.05928411  0.05516384  0.50561968  1
  O  O292  1  0.00107931  0.62928808  0.01954615  1
  O  O293  1  0.00211174  0.61609727  0.49768096  1
  O  O294  1  0.49642638  0.10901554  -0.00456344  1
  O  O295  1  0.51868472  0.11574247  0.49698649  1
  O  O296  1  0.50513025  0.61801719  0.00873354  1
  O  O297  1  0.50768330  0.61749726  0.50968296  1
  O  O298  1  0.50800504  0.37381217  0.48197314  1
  O  O299  1  0.48780458  0.39249385  0.99587922  1
  O  O300  1  0.49319569  0.86719139  0.49175350  1
  O  O301  1  0.49144539  0.87027543  0.99131788  1
  O  O302  1  0.98877071  0.38067984  0.50287011  1
  O  O303  1  1.00963119  0.37845323  0.98625427  1
  O  O304  1  0.98739506  0.88261084  0.48712857  1
  O  O305  1  0.98331284  0.86841268  1.00487418  1
  O  O306  1  0.49656517  0.49882661  0.38365094  1
  O  O307  1  0.49424066  0.51354268  0.88457457  1
  O  O308  1  0.48430233  0.98842639  0.36392461  1
  O  O309  1  0.49717237  0.98470213  0.88326366  1
  O  O310  1  1.01133099  0.50001181  0.38911552  1
  O  O311  1  1.00878194  0.49220136  0.87315930  1
  O  O312  1  0.96110474  1.02838271  0.43665068  1
  O  O313  1  0.99492711  0.96146319  0.84107688  1
  O  O314  1  0.01216298  0.01237831  0.12764874  1
  O  O315  1  0.02333195  -0.01377846  0.64125179  1
  O  O316  1  0.02110436  0.51709257  0.14054130  1
  O  O317  1  0.01374939  0.49868549  0.61293101  1
  O  O318  1  0.49915079  -0.00585299  0.10929114  1
  O  O319  1  0.51405735  -0.00222291  0.63209684  1
  O  O320  1  0.49949372  0.50832467  0.11807682  1
  O  O321  1  0.50765120  0.51114752  0.61531664  1
  O  O322  1  0.25217188  0.37519730  0.25065380  1
  O  O323  1  0.23997868  0.36981547  0.73000097  1
  O  O324  1  0.25754098  0.88343949  0.23744462  1
  O  O325  1  0.26231544  0.88359781  0.74152039  1
  O  O326  1  0.73067267  0.36849561  0.23447157  1
  O  O327  1  0.73693376  0.37949881  0.74455550  1
  O  O328  1  0.73107762  0.86640248  0.25199704  1
  O  O329  1  0.74213081  0.86611057  0.73995604  1
  O  O330  1  0.26558590  0.11467993  0.24226792  1
  O  O331  1  0.26653915  0.11281650  0.75029818  1
  O  O332  1  0.25450366  0.64003860  0.26309245  1
  O  O333  1  0.25603862  0.63147754  0.75793739  1
  O  O334  1  0.76961211  0.13754864  0.22872154  1
  O  O335  1  0.74736136  0.11748543  0.75530766  1
  O  O336  1  0.71314525  0.62358203  0.28272479  1
  O  O337  1  0.77300759  0.62278256  0.74597542  1
  O  O338  1  0.37988795  0.11144025  0.37327300  1
  O  O339  1  0.38355360  0.11040127  0.86828028  1
  O  O340  1  0.35474038  0.61491525  0.39027228  1
  O  O341  1  0.36419848  0.62850248  0.87398481  1
  O  O342  1  0.85892502  0.13299056  0.36109844  1
  O  O343  1  0.92949915  0.10555812  0.84963241  1
  O  O344  1  0.86953735  0.61070173  0.37905815  1
  O  O345  1  0.88231589  0.61571906  0.86005346  1
  O  O346  1  0.12806658  0.38855061  0.12388325  1
  O  O347  1  0.13172871  0.37685903  0.63243712  1
  O  O348  1  0.13678102  0.88340593  0.11380406  1
  O  O349  1  0.14239524  0.88567702  0.62848267  1
  O  O350  1  0.61337125  0.38617706  0.12694276  1
  O  O351  1  0.64032175  0.36881242  0.62963724  1
  O  O352  1  0.61932032  0.88130647  0.13529543  1
  O  O353  1  0.63216155  0.88479747  0.62031002  1
  O  O354  1  0.13333745  0.24286673  0.25421308  1
  O  O355  1  0.13520366  0.25938368  0.75901248  1
  O  O356  1  0.11306263  0.77072357  0.25779344  1
  O  O357  1  0.12236636  0.75750879  0.76059677  1
  O  O358  1  0.60837920  0.26027120  0.23280769  1
  O  O359  1  0.61673737  0.25323288  0.75461721  1
  O  O360  1  0.60892693  0.76356390  0.24295707  1
  O  O361  1  0.61135521  0.74382892  0.75059078  1
  O  O362  1  0.37851575  0.23519322  0.24891821  1
  O  O363  1  0.38178854  0.24491418  0.74700833  1
  O  O364  1  0.38242705  0.75759196  0.23887174  1
  O  O365  1  0.38330513  0.75515333  0.73633859  1
  O  O366  1  0.88236932  0.25486904  0.24306719  1
  O  O367  1  0.88002872  0.25768184  0.75640721  1
  O  O368  1  0.88166438  0.74610761  0.24277307  1
  O  O369  1  0.87942245  0.73996804  0.74062138  1
  O  O370  1  0.39968465  0.49281790  0.50567186  1
  O  O371  1  0.38183529  0.49777404  0.99890162  1
  O  O372  1  0.36981639  0.99190795  0.48811072  1
  O  O373  1  0.38435689  0.99113562  0.99403894  1
  O  O374  1  0.88968544  0.50003119  0.49456302  1
  O  O375  1  0.87615827  0.51859878  0.97630829  1
  O  O376  1  0.88153693  1.00271183  0.54359905  1
  O  O377  1  0.86358670  0.97582519  1.00151045  1
  O  O378  1  0.13808948  0.01098447  0.00376131  1
  O  O379  1  0.13691075  0.01617606  0.52415564  1
  O  O380  1  0.13785185  0.50560033  0.02014444  1
  O  O381  1  0.11630731  0.49352391  0.50926722  1
  O  O382  1  0.61214130  -0.00899465  0.01000248  1
  O  O383  1  0.63015055  0.00699277  0.51471121  1
  O  O384  1  0.61002920  0.50482027  0.00416436  1
  O  O385  1  0.61129551  0.48303471  0.49122574  1
  O  O386  1  0.36920142  0.37717562  0.10188993  1
  O  O387  1  0.36387351  0.35872946  0.62470484  1
  O  O388  1  0.36946336  0.86687837  0.11762759  1
  O  O389  1  0.37451480  0.87036557  0.61903603  1
  O  O390  1  0.86619851  0.43273611  0.11360898  1
  O  O391  1  0.87519609  0.36659118  0.61889800  1
  O  O392  1  0.87404727  0.85109307  0.11807524  1
  O  O393  1  0.86393542  0.86049337  0.63422121  1
  O  O394  1  0.11737520  0.14163315  0.38217915  1
  O  O395  1  0.11956249  0.14117821  0.87259455  1
  O  O396  1  0.15304828  0.61991820  0.38555510  1
  O  O397  1  0.14263519  0.64281094  0.87043805  1
  O  O398  1  0.62781069  0.11680265  0.37873817  1
  O  O399  1  0.61659437  0.13857507  0.87063094  1
  O  O400  1  0.66332144  0.61829774  0.34232837  1
  O  O401  1  0.62145441  0.62291024  0.89154219  1
