# generated using pymatgen
data_V73Zn73O256
_symmetry_space_group_name_H-M   'P 1'
_cell_length_a   16.95104794
_cell_length_b   16.83688436
_cell_length_c   16.98433268
_cell_angle_alpha   90.13325034
_cell_angle_beta   90.22967332
_cell_angle_gamma   90.06856844
_symmetry_Int_Tables_number   1
_chemical_formula_structural   V73Zn73O256
_chemical_formula_sum   'V73 Zn73 O256'
_cell_volume   4847.32110012
_cell_formula_units_Z   1
loop_
 _symmetry_equiv_pos_site_id
 _symmetry_equiv_pos_as_xyz
  1  'x, y, z'
loop_
 _atom_site_type_symbol
 _atom_site_label
 _atom_site_symmetry_multiplicity
 _atom_site_fract_x
 _atom_site_fract_y
 _atom_site_fract_z
 _atom_site_occupancy
  V  V0  1  0.25080623  0.25974656  -0.00698902  1
  V  V1  1  0.76121870  -0.00814962  0.21305978  1
  V  V2  1  0.37089603  -0.00739155  0.40195286  1
  V  V3  1  0.13811037  0.62647857  0.50500804  1
  V  V4  1  0.87808768  0.24726689  0.12006654  1
  V  V5  1  0.14030608  -0.01951987  0.13672510  1
  V  V6  1  0.36803063  0.51412253  0.38013888  1
  V  V7  1  0.25367957  0.36901548  0.62667747  1
  V  V8  1  0.12138309  0.24447901  0.36660620  1
  V  V9  1  0.61203457  0.36316473  0.25658187  1
  V  V10  1  0.64032736  0.88093883  0.76263144  1
  V  V11  1  0.86022245  0.62675799  0.25289001  1
  V  V12  1  0.24367490  0.51042628  0.74978716  1
  V  V13  1  -0.00530782  0.37283516  0.36112097  1
  V  V14  1  0.87488060  0.36018706  0.49867098  1
  V  V15  1  -0.00111786  -0.00390957  0.50061211  1
  V  V16  1  0.12602062  0.12682637  0.00261541  1
  V  V17  1  0.37680209  0.75377841  0.60591975  1
  V  V18  1  0.87979507  0.63081193  0.74300191  1
  V  V19  1  0.00538638  0.12672071  0.12759124  1
  V  V20  1  0.25449005  0.74338711  0.00155540  1
  V  V21  1  0.12127956  0.49449253  0.61953016  1
  V  V22  1  0.87057762  -0.00931086  0.37065245  1
  V  V23  1  0.25689823  0.25105348  0.49506223  1
  V  V24  1  -0.00931331  0.13327527  0.62765462  1
  V  V25  1  0.49426946  0.00173853  0.00581109  1
  V  V26  1  0.63324663  0.87842494  0.23013282  1
  V  V27  1  0.74401696  0.35334150  0.12925646  1
  V  V28  1  0.74645401  0.49766377  0.71828629  1
  V  V29  1  0.62546585  0.50314575  0.12971371  1
  V  V30  1  0.37312687  0.37747366  0.00262685  1
  V  V31  1  0.51091578  0.12747769  0.13549145  1
  V  V32  1  0.68683285  0.35524024  0.79633446  1
  V  V33  1  0.50124739  0.74724881  0.75661317  1
  V  V34  1  0.12610462  0.12241506  0.49888256  1
  V  V35  1  0.63806248  0.63137236  0.49049234  1
  V  V36  1  0.64311346  0.77457626  0.38998144  1
  V  V37  1  0.75832937  0.60528137  0.88743543  1
  V  V38  1  0.49159195  0.88238711  0.87822160  1
  V  V39  1  0.00484311  0.87181316  0.37086905  1
  V  V40  1  0.46413478  0.25589163  0.75475613  1
  V  V41  1  0.49193099  0.12074823  0.62409013  1
  V  V42  1  0.87009733  0.75822928  0.11663123  1
  V  V43  1  0.50384804  0.50562962  0.00077583  1
  V  V44  1  0.62649122  0.00681614  0.62795168  1
  V  V45  1  0.13310372  0.74154998  0.37723598  1
  V  V46  1  0.11870074  0.72907084  0.87953845  1
  V  V47  1  0.87739506  0.12935714  0.25246224  1
  V  V48  1  0.49397047  0.36613766  0.37012376  1
  V  V49  1  0.24611568  0.51367712  0.25433868  1
  V  V50  1  0.37175545  0.50276596  0.87199413  1
  V  V51  1  0.50298903  0.37186842  0.87471659  1
  V  V52  1  0.62439287  0.14022616  -0.02243794  1
  V  V53  1  -0.00604764  0.50731082  0.50012476  1
  V  V54  1  0.75366949  0.87626882  0.61590350  1
  V  V55  1  0.86502637  0.50453987  0.37242740  1
  V  V56  1  0.83300458  0.11861899  0.78978269  1
  V  V57  1  0.50594551  0.50270887  0.50361354  1
  V  V58  1  -0.00460428  -0.01183425  0.00108206  1
  V  V59  1  0.12589464  0.50295397  0.11540626  1
  V  V60  1  0.25639234  0.10207899  0.88646943  1
  V  V61  1  0.51500226  0.62206911  0.62864148  1
  V  V62  1  0.37246229  0.25786242  0.13966251  1
  V  V63  1  0.36661220  0.09424668  0.24992529  1
  V  V64  1  0.00097206  0.74641463  0.25181003  1
  V  V65  1  0.74863937  0.76666526  0.00463363  1
  V  V66  1  0.01139944  0.87688270  0.85130232  1
  V  V67  1  0.88328700  0.75745970  0.62002127  1
  V  V68  1  0.69756488  0.30351143  0.55329382  1
  V  V69  1  0.49838108  0.88060137  0.40663460  1
  V  V70  1  0.12888026  0.37942193  0.25197057  1
  V  V71  1  -0.00122951  0.61912293  0.11071593  1
  V  V72  1  0.37406602  0.09861444  0.76266838  1
  Zn  Zn73  1  0.31227881  0.69230037  0.32406859  1
  Zn  Zn74  1  0.44219552  0.67411624  0.19147465  1
  Zn  Zn75  1  0.63420111  0.74673974  0.87721539  1
  Zn  Zn76  1  0.37512299  0.37483410  0.49999612  1
  Zn  Zn77  1  0.37759275  0.62326451  0.74879994  1
  Zn  Zn78  1  0.20845832  0.94611033  0.71254783  1
  Zn  Zn79  1  0.74401521  0.49855984  0.25246350  1
  Zn  Zn80  1  0.62975728  0.62207479  0.00175258  1
  Zn  Zn81  1  0.68326803  0.16285222  0.41920432  1
  Zn  Zn82  1  0.19742990  0.18580801  0.18849786  1
  Zn  Zn83  1  0.17650018  0.11290102  0.69528388  1
  Zn  Zn84  1  0.18295426  0.68818064  0.18252284  1
  Zn  Zn85  1  0.21973466  0.76045093  0.71643205  1
  Zn  Zn86  1  0.69058365  0.18711940  0.23471700  1
  Zn  Zn87  1  0.68368046  0.18612377  0.69609507  1
  Zn  Zn88  1  0.64644453  0.67482832  0.22027283  1
  Zn  Zn89  1  0.69450145  0.69217216  0.69132160  1
  Zn  Zn90  1  0.30794697  0.32056600  0.31946201  1
  Zn  Zn91  1  0.24334387  0.26976540  0.77947368  1
  Zn  Zn92  1  0.31205167  0.81515361  0.17906069  1
  Zn  Zn93  1  0.28195442  0.84464056  0.86330940  1
  Zn  Zn94  1  0.80085065  0.30991357  0.31943262  1
  Zn  Zn95  1  0.86724580  0.24614153  0.63987353  1
  Zn  Zn96  1  0.81276916  0.81528915  0.30698163  1
  Zn  Zn97  1  0.82364229  0.93520591  0.83071469  1
  Zn  Zn98  1  0.18410505  0.43649259  0.43636862  1
  Zn  Zn99  1  0.18385031  0.56171306  0.93230226  1
  Zn  Zn100  1  0.18667188  0.93049286  0.43658102  1
  Zn  Zn101  1  0.17411808  0.92845236  0.95589923  1
  Zn  Zn102  1  0.68283575  0.43892329  0.43497807  1
  Zn  Zn103  1  0.69518342  0.42710971  0.95019437  1
  Zn  Zn104  1  0.68890803  0.97194186  0.45051881  1
  Zn  Zn105  1  0.67387307  0.94762916  0.95115555  1
  Zn  Zn106  1  0.31726714  0.06448581  0.06818665  1
  Zn  Zn107  1  0.31022556  0.06615150  0.57040135  1
  Zn  Zn108  1  0.32307344  0.58051828  0.06287763  1
  Zn  Zn109  1  0.31770115  0.56918016  0.57028179  1
  Zn  Zn110  1  0.80829553  0.06341723  -0.02779621  1
  Zn  Zn111  1  0.80554069  0.06513286  0.55673372  1
  Zn  Zn112  1  0.81457499  0.55497239  0.06733889  1
  Zn  Zn113  1  0.81695966  0.56715754  0.55858985  1
  Zn  Zn114  1  0.42438996  0.47005393  0.17858832  1
  Zn  Zn115  1  0.43400507  0.43834826  0.68456597  1
  Zn  Zn116  1  0.45422121  0.93006154  0.18727093  1
  Zn  Zn117  1  0.43956447  0.92867852  0.68778535  1
  Zn  Zn118  1  0.92484503  0.44565362  0.16928648  1
  Zn  Zn119  1  0.92444416  0.44266054  0.67631530  1
  Zn  Zn120  1  0.95051912  0.93670563  0.18515069  1
  Zn  Zn121  1  0.93233231  0.95233332  0.69044414  1
  Zn  Zn122  1  0.06441804  0.05824648  0.30892398  1
  Zn  Zn123  1  0.05873963  0.06506357  0.81869477  1
  Zn  Zn124  1  0.05423397  0.56503527  0.31647925  1
  Zn  Zn125  1  0.08895709  0.62437523  0.74534865  1
  Zn  Zn126  1  0.56394059  0.03470049  0.30145028  1
  Zn  Zn127  1  0.56189519  0.06236127  0.81264898  1
  Zn  Zn128  1  0.55359300  0.56404292  0.31709678  1
  Zn  Zn129  1  0.57728277  0.55140565  0.81278940  1
  Zn  Zn130  1  0.48921605  0.14878382  0.40657907  1
  Zn  Zn131  1  0.43735303  0.18730685  0.94239262  1
  Zn  Zn132  1  0.45899419  0.69576874  0.43311315  1
  Zn  Zn133  1  0.43961118  0.69025941  0.93424885  1
  Zn  Zn134  1  0.94109513  0.18206453  0.42846485  1
  Zn  Zn135  1  0.78289620  0.23402653  0.93776077  1
  Zn  Zn136  1  0.92831480  0.69135209  0.43782056  1
  Zn  Zn137  1  0.89223730  0.74783536  0.88907036  1
  Zn  Zn138  1  0.07247855  0.30811613  0.07557182  1
  Zn  Zn139  1  0.06191660  0.30945639  0.55915711  1
  Zn  Zn140  1  0.06554960  0.80272576  0.05937827  1
  Zn  Zn141  1  0.06134265  0.81087181  0.56225432  1
  Zn  Zn142  1  0.55383327  0.31280735  0.06982319  1
  Zn  Zn143  1  0.53702848  0.29943887  0.56158076  1
  Zn  Zn144  1  0.55875976  0.80669073  0.05548994  1
  Zn  Zn145  1  0.56978781  0.81094720  0.57465671  1
  O  O146  1  0.12057005  0.12953273  0.12205468  1
  O  O147  1  0.10455745  0.12869502  0.59968787  1
  O  O148  1  0.11112045  0.61500465  0.12894249  1
  O  O149  1  0.11806317  0.60930890  0.60905338  1
  O  O150  1  0.60851423  0.13907520  0.14621288  1
  O  O151  1  0.60804336  0.11504526  0.64317214  1
  O  O152  1  0.63790406  0.60495654  0.12289323  1
  O  O153  1  0.62008773  0.63675933  0.61209235  1
  O  O154  1  0.38257354  0.38913935  0.37926038  1
  O  O155  1  0.38571810  0.38753158  0.88842348  1
  O  O156  1  0.39363360  0.88480543  0.38809265  1
  O  O157  1  0.39515166  0.86829819  0.87926757  1
  O  O158  1  0.87700452  0.38023779  0.37590216  1
  O  O159  1  0.97730885  0.31139852  0.79016612  1
  O  O160  1  0.89073284  0.88241841  0.36748946  1
  O  O161  1  0.90397354  0.86443930  0.86817372  1
  O  O162  1  0.27089432  -0.01563993  0.38624851  1
  O  O163  1  0.25176902  0.00362089  0.89432536  1
  O  O164  1  0.26167020  0.50326485  0.37760473  1
  O  O165  1  0.25281509  0.49955919  0.85734633  1
  O  O166  1  0.77219030  -0.01511534  0.36688718  1
  O  O167  1  0.75846552  -0.00510436  0.89692574  1
  O  O168  1  0.76108319  0.49418974  0.37222206  1
  O  O169  1  0.76136661  0.50399184  0.88927293  1
  O  O170  1  0.23335511  0.50728343  0.14772246  1
  O  O171  1  0.24421907  0.49177013  0.62863469  1
  O  O172  1  0.23775847  0.99909724  0.11371736  1
  O  O173  1  0.23475378  1.02936249  0.63967165  1
  O  O174  1  0.73553468  0.47997299  0.13030426  1
  O  O175  1  0.73552083  0.50619981  0.62094883  1
  O  O176  1  0.76658882  0.99327667  0.11802442  1
  O  O177  1  0.73500548  0.99513787  0.63156684  1
  O  O178  1  0.00642340  0.38609255  0.25851221  1
  O  O179  1  -0.00154673  0.36473081  0.74380259  1
  O  O180  1  0.00247830  0.85793184  0.25754628  1
  O  O181  1  0.01207175  0.89465576  0.75321336  1
  O  O182  1  0.50115767  0.38816987  0.26352752  1
  O  O183  1  0.48517554  0.36256830  0.75720965  1
  O  O184  1  0.53500173  0.90109147  0.26293373  1
  O  O185  1  0.50826226  0.86693704  0.76483507  1
  O  O186  1  0.48533289  0.10729171  0.23620811  1
  O  O187  1  0.48124441  0.13667915  0.76116661  1
  O  O188  1  0.53773049  0.64430267  0.24259556  1
  O  O189  1  0.51764389  0.62689488  0.74423380  1
  O  O190  1  0.99030344  0.11518785  0.23713976  1
  O  O191  1  1.00361666  0.11778194  0.72512999  1
  O  O192  1  0.98551507  0.63433218  0.25212809  1
  O  O193  1  0.97656146  0.60899951  0.74712195  1
  O  O194  1  0.36839531  0.25848146  0.00614791  1
  O  O195  1  0.35496402  0.24731597  0.48967386  1
  O  O196  1  0.35544426  0.73310362  -0.00615689  1
  O  O197  1  0.38349505  0.74083513  0.50675731  1
  O  O198  1  0.86183343  0.25150938  0.02399573  1
  O  O199  1  0.87522349  0.26020184  0.48271057  1
  O  O200  1  0.86596046  0.75047909  0.01009671  1
  O  O201  1  0.87599111  0.75021315  0.51935712  1
  O  O202  1  0.12463788  0.24139251  0.48494533  1
  O  O203  1  0.14332205  0.24474337  1.01108396  1
  O  O204  1  0.11430258  0.73281626  0.49431957  1
  O  O205  1  0.12951058  0.74275431  0.98806279  1
  O  O206  1  0.63209571  0.24718655  0.49787351  1
  O  O207  1  0.60377294  0.23805489  1.00172751  1
  O  O208  1  0.62717615  0.74459950  0.49650432  1
  O  O209  1  0.63848936  0.73989837  1.00667500  1
  O  O210  1  0.48167495  0.23731874  0.12482216  1
  O  O211  1  0.50040001  0.23722211  0.65107385  1
  O  O212  1  0.46789017  0.77370362  0.11823890  1
  O  O213  1  0.49915430  0.74132950  0.63671432  1
  O  O214  1  0.98818394  0.24506120  0.12303594  1
  O  O215  1  0.99132057  0.23879547  0.61580514  1
  O  O216  1  0.99709275  0.73589418  0.13146696  1
  O  O217  1  0.98330535  0.76869947  0.63171641  1
  O  O218  1  0.01156906  0.25929720  0.37284159  1
  O  O219  1  -0.03557388  0.33437190  0.94208323  1
  O  O220  1  -0.00169416  0.75499333  0.36980591  1
  O  O221  1  0.01157138  0.76346214  0.87288010  1
  O  O222  1  0.48554258  0.26792083  0.37901416  1
  O  O223  1  0.48608634  0.25856287  0.86220438  1
  O  O224  1  0.51938894  0.77576982  0.37811934  1
  O  O225  1  0.51275890  0.75883931  0.87570141  1
  O  O226  1  0.23375151  0.13791197  0.50424811  1
  O  O227  1  0.25068537  0.13220170  0.99605060  1
  O  O228  1  0.23655589  0.62001849  0.50298975  1
  O  O229  1  0.24331251  0.62719025  1.00337074  1
  O  O230  1  0.72683692  0.08014244  0.48183763  1
  O  O231  1  0.72827357  0.14457918  0.99488472  1
  O  O232  1  0.73607537  0.62143653  0.49792887  1
  O  O233  1  0.75677698  0.62052479  0.99427527  1
  O  O234  1  0.26108037  0.36371210  -0.00198285  1
  O  O235  1  0.25039587  0.36745119  0.50134498  1
  O  O236  1  0.25402444  0.85072042  -0.02103575  1
  O  O237  1  0.21352519  0.87509943  0.54141176  1
  O  O238  1  0.73996636  0.35839978  0.02903202  1
  O  O239  1  0.75838486  0.36828261  0.49134867  1
  O  O240  1  0.73814561  0.86450176  0.00602905  1
  O  O241  1  0.74877895  0.88757083  0.51874569  1
  O  O242  1  0.13392931  0.49736120  0.26375386  1
  O  O243  1  0.13577366  0.51244798  0.73312472  1
  O  O244  1  0.12639238  1.00361098  0.23430837  1
  O  O245  1  0.13252572  1.01953285  0.74998381  1
  O  O246  1  0.62063396  0.49434331  0.23955383  1
  O  O247  1  0.65179270  0.47169159  0.76640412  1
  O  O248  1  0.65437970  0.99244325  0.23860508  1
  O  O249  1  0.61608793  0.98469877  0.74729113  1
  O  O250  1  0.36879503  -0.00623059  0.23601717  1
  O  O251  1  0.38007461  0.00011492  0.76035509  1
  O  O252  1  0.35550093  0.49587828  0.26897277  1
  O  O253  1  0.36308721  0.49667204  0.75528342  1
  O  O254  1  0.87377982  -0.00273447  0.25109564  1
  O  O255  1  0.87428074  0.02157128  0.76286822  1
  O  O256  1  0.87040610  0.50920001  0.25664160  1
  O  O257  1  0.85591231  0.51191022  0.73170681  1
  O  O258  1  0.11300397  0.36875317  0.36994446  1
  O  O259  1  0.09160357  0.40824347  0.86932349  1
  O  O260  1  0.11529138  0.85403082  0.38428024  1
  O  O261  1  0.11495900  0.86629537  0.87643430  1
  O  O262  1  0.60727224  0.38177535  0.36625395  1
  O  O263  1  0.60886817  0.37977360  0.87853336  1
  O  O264  1  0.62660215  0.88017924  0.39690242  1
  O  O265  1  0.62152300  0.87526861  0.86835989  1
  O  O266  1  0.37951276  0.13452203  0.13982707  1
  O  O267  1  0.38380505  0.11792391  0.65031024  1
  O  O268  1  0.39713114  0.58061035  0.14221048  1
  O  O269  1  0.39812284  0.63016149  0.62988676  1
  O  O270  1  0.88650681  0.13628223  0.13540083  1
  O  O271  1  0.88717140  0.12379103  0.60630677  1
  O  O272  1  0.88518274  0.63257955  0.13548986  1
  O  O273  1  0.86387885  0.64229375  0.63145466  1
  O  O274  1  0.26772548  0.24487130  0.11333767  1
  O  O275  1  0.24449197  0.26578169  0.60642099  1
  O  O276  1  0.24093581  0.75059330  0.10876690  1
  O  O277  1  0.27929933  0.73187745  0.62711919  1
  O  O278  1  0.75220496  0.24996686  0.14495667  1
  O  O279  1  0.75060287  0.23837710  0.61515965  1
  O  O280  1  0.76634645  0.74578250  0.11658257  1
  O  O281  1  0.75437635  0.77056494  0.63030868  1
  O  O282  1  0.23237210  0.25956604  0.38531919  1
  O  O283  1  0.25338131  0.24199467  0.89188588  1
  O  O284  1  0.23125209  0.74759214  0.38041813  1
  O  O285  1  0.22854208  0.73459898  0.88269912  1
  O  O286  1  0.73187490  0.22539582  0.33951034  1
  O  O287  1  0.74678229  0.31849846  0.87094832  1
  O  O288  1  0.74301971  0.76804721  0.38585239  1
  O  O289  1  0.75456351  0.74302529  0.90028800  1
  O  O290  1  0.01585235  0.11818774  0.01367419  1
  O  O291  1  0.00721131  0.11512038  0.49478339  1
  O  O292  1  -0.00702926  0.61973796  0.01601273  1
  O  O293  1  -0.00893429  0.60917032  0.49716689  1
  O  O294  1  0.50225120  0.12074327  0.01311792  1
  O  O295  1  0.48854590  0.13828672  0.52702928  1
  O  O296  1  0.50669462  0.60958980  -0.00769106  1
  O  O297  1  0.51183855  0.61964784  0.50825473  1
  O  O298  1  0.49737610  0.38294503  0.49101220  1
  O  O299  1  0.49274304  0.38155575  0.99277951  1
  O  O300  1  0.50346170  0.87530153  0.50560382  1
  O  O301  1  0.51592806  0.89124607  0.98861181  1
  O  O302  1  0.98642029  0.37902828  0.48547515  1
  O  O303  1  0.99810341  0.37186449  0.99626946  1
  O  O304  1  1.00821456  0.88995003  0.49072468  1
  O  O305  1  1.00396353  0.88699935  1.00625343  1
  O  O306  1  0.48729001  0.49750324  0.38453679  1
  O  O307  1  0.49581424  0.49115302  0.87915776  1
  O  O308  1  0.49511696  0.98786893  0.38633084  1
  O  O309  1  0.50113862  0.98965748  0.88272024  1
  O  O310  1  0.98595897  0.49148728  0.38161914  1
  O  O311  1  1.03904153  0.45828905  0.86424948  1
  O  O312  1  0.99943140  0.98727496  0.37384281  1
  O  O313  1  1.00961595  0.98894157  0.89134788  1
  O  O314  1  0.01492648  0.00651121  0.11915553  1
  O  O315  1  -0.00666075  0.00568049  0.60301286  1
  O  O316  1  0.01710951  0.51163870  0.13897749  1
  O  O317  1  0.00841788  0.48391553  0.60993634  1
  O  O318  1  0.50272871  0.01100030  0.11409055  1
  O  O319  1  0.50376949  0.01455143  0.64136878  1
  O  O320  1  0.51914405  0.48468945  0.11273885  1
  O  O321  1  0.49855825  0.50582310  0.61402712  1
  O  O322  1  0.23493309  0.39082103  0.26135795  1
  O  O323  1  0.24595310  0.37860494  0.73045353  1
  O  O324  1  0.25048480  0.88945123  0.23225351  1
  O  O325  1  0.25847241  0.85969941  0.75612924  1
  O  O326  1  0.72629778  0.37507388  0.25071940  1
  O  O327  1  0.76458912  0.38860346  0.73222367  1
  O  O328  1  0.75010162  0.88438560  0.23918267  1
  O  O329  1  0.74053027  0.88119625  0.75717463  1
  O  O330  1  0.27014271  0.12370553  0.25089473  1
  O  O331  1  0.26757124  0.11869820  0.77686720  1
  O  O332  1  0.24148881  0.61679572  0.25981719  1
  O  O333  1  0.25679690  0.60930874  0.73972858  1
  O  O334  1  0.77235172  0.10240521  0.23818855  1
  O  O335  1  0.73443256  0.11500187  0.76760498  1
  O  O336  1  0.75706664  0.62690247  0.24496397  1
  O  O337  1  0.74765874  0.60784067  0.75545320  1
  O  O338  1  0.39036267  0.09834391  0.35786548  1
  O  O339  1  0.36787485  0.11933973  0.87594896  1
  O  O340  1  0.38447960  0.61783836  0.37731089  1
  O  O341  1  0.38482724  0.60612605  0.87038385  1
  O  O342  1  0.88800479  0.10613707  0.35773422  1
  O  O343  1  0.84726990  0.14449576  0.89001382  1
  O  O344  1  0.87532439  0.61603869  0.36656793  1
  O  O345  1  0.85794078  0.63444912  0.85805614  1
  O  O346  1  0.11682691  0.39126592  0.14076343  1
  O  O347  1  0.13616292  0.38602522  0.60827764  1
  O  O348  1  0.12311279  0.88132688  0.12328851  1
  O  O349  1  0.15862904  0.87283112  0.59798753  1
  O  O350  1  0.62716725  0.37328558  0.13974530  1
  O  O351  1  0.63382563  0.36034620  0.60415332  1
  O  O352  1  0.62243715  0.86411565  0.13383351  1
  O  O353  1  0.63562706  0.88142435  0.64247834  1
  O  O354  1  0.13470340  0.25952528  0.26073641  1
  O  O355  1  0.15601962  0.21684811  0.73374858  1
  O  O356  1  0.11400961  0.73348574  0.26872143  1
  O  O357  1  0.12399449  0.73145941  0.76498555  1
  O  O358  1  0.60263439  0.26555688  0.24945774  1
  O  O359  1  0.64071089  0.27802485  0.75209767  1
  O  O360  1  0.64046687  0.77792050  0.27282493  1
  O  O361  1  0.62199175  0.76360712  0.75381716  1
  O  O362  1  0.36648899  0.26218750  0.23929832  1
  O  O363  1  0.36602378  0.24747142  0.75166434  1
  O  O364  1  0.36802936  0.74142183  0.24405346  1
  O  O365  1  0.39935774  0.74065493  0.75568560  1
  O  O366  1  0.87433095  0.23084071  0.25497138  1
  O  O367  1  0.86336860  0.20416973  0.74513744  1
  O  O368  1  0.87977613  0.74355835  0.24251394  1
  O  O369  1  0.87207145  0.73396256  0.74081789  1
  O  O370  1  0.38279012  0.50456113  0.49121495  1
  O  O371  1  0.38297631  0.49455801  0.99375532  1
  O  O372  1  0.37668995  1.01065737  0.49954255  1
  O  O373  1  0.39404225  1.00610616  1.00371113  1
  O  O374  1  0.87618621  0.48949884  0.49260698  1
  O  O375  1  0.89062462  0.47623864  1.06243993  1
  O  O376  1  0.89106117  1.00460186  0.47824112  1
  O  O377  1  0.89882842  1.00842549  1.01152184  1
  O  O378  1  0.11850680  0.00900500  0.01642776  1
  O  O379  1  0.11437075  0.01502914  0.48197385  1
  O  O380  1  0.13250061  0.49526825  0.01805173  1
  O  O381  1  0.11465930  0.50857239  0.49820363  1
  O  O382  1  0.60940471  0.02851607  -0.00130713  1
  O  O383  1  0.60700823  -0.00770423  0.53280140  1
  O  O384  1  0.62049880  0.49485764  0.01109894  1
  O  O385  1  0.61444351  0.51614492  0.48649674  1
  O  O386  1  0.38492701  0.36808746  0.11556841  1
  O  O387  1  0.35959920  0.38044388  0.61608855  1
  O  O388  1  0.41473858  0.84121897  0.12031269  1
  O  O389  1  0.38627651  0.85375735  0.62480759  1
  O  O390  1  0.85596385  0.35163087  0.15323389  1
  O  O391  1  0.87787810  0.36239047  0.60307212  1
  O  O392  1  0.88751690  0.85573717  0.13059967  1
  O  O393  1  0.86122943  0.87400165  0.63752922  1
  O  O394  1  0.11726281  0.13892732  0.37622808  1
  O  O395  1  0.14069386  0.11971097  0.89403712  1
  O  O396  1  0.11588973  0.63120370  0.39185420  1
  O  O397  1  0.10587975  0.62506171  0.87667419  1
  O  O398  1  0.59086179  0.12304470  0.36630265  1
  O  O399  1  0.61199921  0.14001818  0.87826491  1
  O  O400  1  0.62239648  0.64613105  0.38716398  1
  O  O401  1  0.64765916  0.62246667  0.87816383  1
