# generated using pymatgen
data_V73Zn73O256
_symmetry_space_group_name_H-M   'P 1'
_cell_length_a   16.89626063
_cell_length_b   16.92440344
_cell_length_c   16.89121026
_cell_angle_alpha   90.10841059
_cell_angle_beta   89.81297552
_cell_angle_gamma   90.00364455
_symmetry_Int_Tables_number   1
_chemical_formula_structural   V73Zn73O256
_chemical_formula_sum   'V73 Zn73 O256'
_cell_volume   4830.16142954
_cell_formula_units_Z   1
loop_
 _symmetry_equiv_pos_site_id
 _symmetry_equiv_pos_as_xyz
  1  'x, y, z'
loop_
 _atom_site_type_symbol
 _atom_site_label
 _atom_site_symmetry_multiplicity
 _atom_site_fract_x
 _atom_site_fract_y
 _atom_site_fract_z
 _atom_site_occupancy
  V  V0  1  0.62082796  0.11082043  0.49451173  1
  V  V1  1  0.88584223  0.25050313  0.13331868  1
  V  V2  1  0.50063752  0.50718038  -0.00049139  1
  V  V3  1  0.75516334  0.37383873  0.12078749  1
  V  V4  1  0.25346665  0.11892355  0.88153789  1
  V  V5  1  0.40324338  0.35943370  0.53033635  1
  V  V6  1  0.24670560  0.25947703  0.51239238  1
  V  V7  1  0.49633538  0.62967559  0.12950322  1
  V  V8  1  -0.00558467  0.73628745  0.74809663  1
  V  V9  1  0.88212759  0.00422033  0.37426291  1
  V  V10  1  0.36787712  0.62133216  0.25959593  1
  V  V11  1  -0.00494236  0.24566485  0.75284198  1
  V  V12  1  0.12259695  0.24367372  0.36322145  1
  V  V13  1  0.87765639  0.50294856  0.37871220  1
  V  V14  1  0.12378272  0.24454787  0.87823193  1
  V  V15  1  0.62040216  0.00034622  0.11362776  1
  V  V16  1  0.50980450  0.38277735  0.87691505  1
  V  V17  1  0.11548348  0.89294105  0.74789401  1
  V  V18  1  0.86755290  0.76136505  0.12448159  1
  V  V19  1  0.75261460  0.87909328  0.61820446  1
  V  V20  1  0.36807744  0.38098106  0.00342877  1
  V  V21  1  0.01075143  0.87008244  0.36898293  1
  V  V22  1  0.48904529  0.25514553  0.23431750  1
  V  V23  1  0.74521633  0.12029791  0.88213335  1
  V  V24  1  -0.02034926  0.36889612  0.89479719  1
  V  V25  1  0.38715913  0.88969314  -0.00335817  1
  V  V26  1  0.75216570  0.74755349  0.49148999  1
  V  V27  1  0.62583381  0.49815152  0.12899787  1
  V  V28  1  0.75396761  0.51311865  0.74421121  1
  V  V29  1  0.12917659  0.74477770  0.86638063  1
  V  V30  1  0.26522602  0.00255810  0.74862186  1
  V  V31  1  0.74336331  0.50228328  0.25805340  1
  V  V32  1  0.12706643  -0.01982438  0.13332147  1
  V  V33  1  0.25713585  0.87921110  0.62248688  1
  V  V34  1  0.00451552  -0.01372272  0.51521967  1
  V  V35  1  0.87596920  0.73713315  0.62756948  1
  V  V36  1  0.87503172  0.62929450  0.25253251  1
  V  V37  1  0.86736358  0.52025403  0.88663020  1
  V  V38  1  0.36225172  0.50302426  0.86397143  1
  V  V39  1  0.63317462  0.63319910  -0.00918826  1
  V  V40  1  0.86567217  0.25005217  0.62775697  1
  V  V41  1  0.38946160  0.88262422  0.48825785  1
  V  V42  1  0.86627643  0.11790382  0.75186935  1
  V  V43  1  0.50346303  0.76295396  0.25508045  1
  V  V44  1  0.62237255  0.85248438  0.74833325  1
  V  V45  1  -0.02001985  0.88271457  0.87717515  1
  V  V46  1  0.61852304  0.24581354  0.88635591  1
  V  V47  1  0.64825056  0.88903951  0.25139512  1
  V  V48  1  0.75115107  0.76196757  -0.00949991  1
  V  V49  1  0.49501767  0.61357512  0.61539024  1
  V  V50  1  0.13083116  0.73281461  0.38165513  1
  V  V51  1  0.11537776  0.12165107  0.00057468  1
  V  V52  1  0.38245671  0.47159549  0.36568259  1
  V  V53  1  0.47390682  0.73311836  0.74458680  1
  V  V54  1  0.61202113  0.25808131  0.36930363  1
  V  V55  1  -0.02348721  -0.00181838  0.00216729  1
  V  V56  1  0.36861989  0.23608390  0.10928994  1
  V  V57  1  0.25935773  0.11665412  0.36478189  1
  V  V58  1  0.11725887  0.39174564  0.74694423  1
  V  V59  1  0.25058066  0.74903894  0.01383692  1
  V  V60  1  0.49258292  0.12006182  0.61766540  1
  V  V61  1  0.87340937  0.37558460  0.50336663  1
  V  V62  1  0.62659881  0.61440878  0.49558306  1
  V  V63  1  -0.00224174  0.37480858  0.37431482  1
  V  V64  1  0.63946666  0.37570419  0.73688008  1
  V  V65  1  0.73450048  0.00263232  0.74368445  1
  V  V66  1  -0.00366535  0.12322614  0.14511437  1
  V  V67  1  0.12296086  0.39264656  0.24739349  1
  V  V68  1  0.12422228  0.12228055  0.51411804  1
  V  V69  1  0.25145940  0.73703920  0.51149313  1
  V  V70  1  0.24903665  0.38597119  0.12909348  1
  V  V71  1  0.00193524  0.61917746  0.10986306  1
  V  V72  1  0.75936730  0.23515499  0.48742406  1
  Zn  Zn73  1  0.49578087  0.26077449  0.73701277  1
  Zn  Zn74  1  0.50909863  0.85105704  0.88085851  1
  Zn  Zn75  1  -0.00020154  0.11875794  0.63174549  1
  Zn  Zn76  1  0.36633818  0.15420617  0.72866167  1
  Zn  Zn77  1  0.62244985  0.75472648  0.37495226  1
  Zn  Zn78  1  0.01993483  0.74981957  0.23543865  1
  Zn  Zn79  1  0.37372275  0.77368337  0.13082370  1
  Zn  Zn80  1  0.74932145  0.25650628  0.00128941  1
  Zn  Zn81  1  0.12259259  0.51373335  0.08714323  1
  Zn  Zn82  1  0.19060192  0.18605631  0.18149507  1
  Zn  Zn83  1  0.18764636  0.19225831  0.69371972  1
  Zn  Zn84  1  0.18558470  0.68648457  0.18877092  1
  Zn  Zn85  1  0.26289757  0.71552412  0.72546317  1
  Zn  Zn86  1  0.67253476  0.18450151  0.18791010  1
  Zn  Zn87  1  0.67839699  0.18934692  0.68339061  1
  Zn  Zn88  1  0.68697446  0.68818765  0.18631794  1
  Zn  Zn89  1  0.68817995  0.68217771  0.67756082  1
  Zn  Zn90  1  0.30348620  0.29490415  0.30135447  1
  Zn  Zn91  1  0.32652541  0.35771529  0.73489265  1
  Zn  Zn92  1  0.32375155  0.79270894  0.33025571  1
  Zn  Zn93  1  0.29656603  0.84239998  0.84762373  1
  Zn  Zn94  1  0.80120591  0.31296619  0.30569108  1
  Zn  Zn95  1  0.80491985  0.30613327  0.81586857  1
  Zn  Zn96  1  0.82697926  0.82808866  0.31394666  1
  Zn  Zn97  1  0.80541120  0.80730273  0.80692967  1
  Zn  Zn98  1  0.20421743  0.43525790  0.41767926  1
  Zn  Zn99  1  0.18716370  0.42210365  0.93056762  1
  Zn  Zn100  1  0.18714522  0.93712333  0.43752438  1
  Zn  Zn101  1  0.17852796  0.93539751  0.94291213  1
  Zn  Zn102  1  0.69012814  0.42845984  0.44236016  1
  Zn  Zn103  1  0.69232179  0.44515767  0.93766648  1
  Zn  Zn104  1  0.69081680  0.93492019  0.43051265  1
  Zn  Zn105  1  0.68620456  0.93451486  0.92897290  1
  Zn  Zn106  1  0.30415760  0.05104838  0.05897934  1
  Zn  Zn107  1  0.31105358  0.06217795  0.55335955  1
  Zn  Zn108  1  0.30941347  0.56701254  0.06079749  1
  Zn  Zn109  1  0.32441148  0.54651194  0.52733740  1
  Zn  Zn110  1  0.79845291  0.07442392  0.07966251  1
  Zn  Zn111  1  0.81762418  0.05919096  0.55803492  1
  Zn  Zn112  1  0.81328134  0.56781777  0.06775498  1
  Zn  Zn113  1  0.80573475  0.56145881  0.56219144  1
  Zn  Zn114  1  0.44145028  0.43613600  0.19032325  1
  Zn  Zn115  1  0.46031317  0.45212367  0.68987721  1
  Zn  Zn116  1  0.44499083  0.95697597  0.18467646  1
  Zn  Zn117  1  0.44628938  0.93321721  0.68103746  1
  Zn  Zn118  1  0.93683308  0.44000182  0.18726192  1
  Zn  Zn119  1  0.92009546  0.42223924  0.70711695  1
  Zn  Zn120  1  0.94959146  0.93372632  0.19042262  1
  Zn  Zn121  1  0.92762189  0.93617179  0.68710539  1
  Zn  Zn122  1  0.06912032  0.05320468  0.31867959  1
  Zn  Zn123  1  0.05282614  0.06032670  0.81789234  1
  Zn  Zn124  1  0.05524333  0.56731874  0.31354070  1
  Zn  Zn125  1  0.07341257  0.53993724  0.88263857  1
  Zn  Zn126  1  0.55382537  0.07713708  0.29507450  1
  Zn  Zn127  1  0.56093852  0.07495501  0.79330771  1
  Zn  Zn128  1  0.55604104  0.56714299  0.32319118  1
  Zn  Zn129  1  0.57025657  0.56590030  0.80545355  1
  Zn  Zn130  1  0.43863276  0.19085565  0.43531768  1
  Zn  Zn131  1  0.38819451  0.24378517  0.88692675  1
  Zn  Zn132  1  0.43738524  0.69656695  0.44379211  1
  Zn  Zn133  1  0.42753687  0.68798784  0.93314308  1
  Zn  Zn134  1  0.94430754  0.18546268  0.43598051  1
  Zn  Zn135  1  0.92786750  0.18743188  0.94623025  1
  Zn  Zn136  1  0.92627318  0.70159831  0.43106568  1
  Zn  Zn137  1  0.93471138  0.69653536  0.93766692  1
  Zn  Zn138  1  0.06705818  0.30889302  0.06684987  1
  Zn  Zn139  1  0.05765110  0.31355692  0.56546294  1
  Zn  Zn140  1  0.05774759  0.80578092  0.05103961  1
  Zn  Zn141  1  0.07209946  0.80413628  0.57146449  1
  Zn  Zn142  1  0.55968547  0.31531055  0.06406456  1
  Zn  Zn143  1  0.57944097  0.29448916  0.56477613  1
  Zn  Zn144  1  0.56720249  0.81735664  0.06953302  1
  Zn  Zn145  1  0.56432542  0.80331853  0.56912638  1
  O  O146  1  0.11157011  0.12713457  0.11724916  1
  O  O147  1  0.12504152  0.12893420  0.61656533  1
  O  O148  1  0.10764380  0.62735292  0.12852645  1
  O  O149  1  0.15113658  0.60669218  0.66845150  1
  O  O150  1  0.69212344  0.08382818  0.12907550  1
  O  O151  1  0.61734832  0.12951469  0.60499150  1
  O  O152  1  0.61574958  0.61691134  0.12021571  1
  O  O153  1  0.62012480  0.63286101  0.60299754  1
  O  O154  1  0.37599889  0.37276620  0.34765138  1
  O  O155  1  0.39272537  0.38328093  0.89047912  1
  O  O156  1  0.37709495  0.87470124  0.38762718  1
  O  O157  1  0.39518026  0.87573943  0.88465953  1
  O  O158  1  0.88127309  0.38077446  0.37696806  1
  O  O159  1  0.87940729  0.35394395  0.88714924  1
  O  O160  1  0.90406931  0.87325237  0.38693968  1
  O  O161  1  0.88224735  0.87463123  0.86601350  1
  O  O162  1  0.23974518  0.01821408  0.37958567  1
  O  O163  1  0.23905599  0.01085129  0.86058970  1
  O  O164  1  0.28522974  0.50875001  0.39341818  1
  O  O165  1  0.26466493  0.48965158  0.87681934  1
  O  O166  1  0.78361360  -0.01326132  0.39193639  1
  O  O167  1  0.73890887  0.01543966  0.86210320  1
  O  O168  1  0.75729078  0.49200218  0.36208750  1
  O  O169  1  0.76170968  0.49850389  0.86707268  1
  O  O170  1  0.23914869  0.49126193  0.11665338  1
  O  O171  1  0.21481680  0.49455538  0.57501038  1
  O  O172  1  0.22583863  0.99444260  0.11482979  1
  O  O173  1  0.24986217  0.99321432  0.63956567  1
  O  O174  1  0.74540763  0.49451357  0.13345237  1
  O  O175  1  0.76008103  0.49731782  0.64363782  1
  O  O176  1  0.78266751  1.06561218  0.24504846  1
  O  O177  1  0.75425117  0.98570395  0.62672410  1
  O  O178  1  0.01259690  0.37832669  0.25770903  1
  O  O179  1  -0.00422815  0.35852031  0.76861791  1
  O  O180  1  0.00822172  0.86286775  0.26539666  1
  O  O181  1  0.00391690  0.88591019  0.75977603  1
  O  O182  1  0.51281126  0.35335181  0.23128134  1
  O  O183  1  0.52028772  0.38031781  0.76316913  1
  O  O184  1  0.49693305  0.86152091  0.24149994  1
  O  O185  1  0.51040253  0.85212483  0.73786363  1
  O  O186  1  0.55834892  0.17541309  0.21913378  1
  O  O187  1  0.48735926  0.13601625  0.73723953  1
  O  O188  1  0.49568984  0.63336281  0.24344588  1
  O  O189  1  0.50215007  0.62708630  0.73540811  1
  O  O190  1  1.00749048  0.12213410  0.24224034  1
  O  O191  1  0.98403062  0.12890815  0.75503213  1
  O  O192  1  0.98880297  0.63196476  0.24358505  1
  O  O193  1  1.00117637  0.64157275  0.75117717  1
  O  O194  1  0.37636399  0.26711656  0.00317654  1
  O  O195  1  0.36082579  0.26531963  0.49333039  1
  O  O196  1  0.36463773  0.75742805  0.00581593  1
  O  O197  1  0.35646213  0.76450966  0.49763280  1
  O  O198  1  0.86080634  0.23731565  0.02631726  1
  O  O199  1  0.87349122  0.24860647  0.50956182  1
  O  O200  1  0.86255886  0.74661327  0.01356301  1
  O  O201  1  0.86525883  0.74823341  0.51452862  1
  O  O202  1  0.12936903  0.24181022  0.49730159  1
  O  O203  1  0.11574443  0.23424451  0.99152247  1
  O  O204  1  0.14034084  0.74795593  0.49970736  1
  O  O205  1  0.14267188  0.76485422  0.97694119  1
  O  O206  1  0.64585406  0.24140245  0.48287522  1
  O  O207  1  0.62454100  0.25024005  0.99118859  1
  O  O208  1  0.64171023  0.75134610  0.49551039  1
  O  O209  1  0.63618032  0.74117099  1.00867599  1
  O  O210  1  0.47725758  0.25515123  0.11878162  1
  O  O211  1  0.50488013  0.23390605  0.62513389  1
  O  O212  1  0.50061970  0.74167764  0.13427214  1
  O  O213  1  0.50124587  0.73307095  0.63819841  1
  O  O214  1  0.99232238  0.23951810  0.12791684  1
  O  O215  1  0.98888947  0.24337790  0.63909394  1
  O  O216  1  0.98945819  0.74030455  0.12121567  1
  O  O217  1  0.98700165  0.75662630  0.63549841  1
  O  O218  1  0.01468187  0.26019518  0.37868417  1
  O  O219  1  -0.00048053  0.24800466  0.87207159  1
  O  O220  1  0.01506680  0.75787809  0.39012189  1
  O  O221  1  -0.00013749  0.76563121  0.86593828  1
  O  O222  1  0.50475889  0.24597199  0.34942226  1
  O  O223  1  0.51084363  0.26408921  0.87920345  1
  O  O224  1  0.50026348  0.74968126  0.35797297  1
  O  O225  1  0.49412526  0.73753034  0.85015627  1
  O  O226  1  0.23649845  0.13358280  0.49343458  1
  O  O227  1  0.23025667  0.11129626  0.98657078  1
  O  O228  1  0.25938036  0.63935515  0.51610343  1
  O  O229  1  0.25363314  0.64854308  1.00063102  1
  O  O230  1  0.74239773  0.12995387  0.50358970  1
  O  O231  1  0.74946815  0.12156565  0.98185847  1
  O  O232  1  0.74234111  0.63957932  0.50212784  1
  O  O233  1  0.73548888  0.63034726  1.00676976  1
  O  O234  1  0.26087166  0.37681743  0.00906880  1
  O  O235  1  0.23635177  0.35807864  0.49884665  1
  O  O236  1  0.26642124  0.86138836  -0.02886219  1
  O  O237  1  0.25073052  0.87849568  0.51741706  1
  O  O238  1  0.74746813  0.37974433  0.01737012  1
  O  O239  1  0.76587837  0.35480440  0.49387150  1
  O  O240  1  0.74417570  0.86126310  -0.00373465  1
  O  O241  1  0.74355711  0.86552505  0.51452859  1
  O  O242  1  0.12510825  0.49185788  0.25537325  1
  O  O243  1  0.10533477  0.48608484  0.77780035  1
  O  O244  1  0.11805017  0.99681283  0.23321630  1
  O  O245  1  0.12382068  0.99519434  0.75160938  1
  O  O246  1  0.63684814  0.51286451  0.24622031  1
  O  O247  1  0.64090127  0.48476047  0.76014073  1
  O  O248  1  0.62892179  0.99151479  0.24727759  1
  O  O249  1  0.63171524  1.00020318  0.74234067  1
  O  O250  1  0.30022705  -0.05491717  0.24648143  1
  O  O251  1  0.36420695  -0.00499560  0.75126372  1
  O  O252  1  0.38069597  0.51023696  0.25739795  1
  O  O253  1  0.37372005  0.47207595  0.76356366  1
  O  O254  1  0.89526987  -0.01510429  0.27388929  1
  O  O255  1  0.85810368  0.01207095  0.74539605  1
  O  O256  1  0.86799413  0.50853314  0.25832264  1
  O  O257  1  0.86245354  0.49729618  0.76440371  1
  O  O258  1  0.12148033  0.37050221  0.36495341  1
  O  O259  1  0.10859698  0.35676172  0.86976580  1
  O  O260  1  0.11684693  0.86429634  0.38585099  1
  O  O261  1  0.11656496  0.87170562  0.86124701  1
  O  O262  1  0.61932635  0.35677081  0.38994708  1
  O  O263  1  0.62215335  0.36688315  0.88067816  1
  O  O264  1  0.63010080  0.87245617  0.35649470  1
  O  O265  1  0.61708285  0.88300030  0.85202594  1
  O  O266  1  0.36218062  0.13808280  0.10365426  1
  O  O267  1  0.38479121  0.12710822  0.61457650  1
  O  O268  1  0.38802728  0.61962489  0.13318950  1
  O  O269  1  0.39433532  0.60309693  0.60345053  1
  O  O270  1  0.88831435  0.13176875  0.13379809  1
  O  O271  1  0.87463294  0.13163139  0.63529874  1
  O  O272  1  0.88487261  0.63187116  0.13357538  1
  O  O273  1  0.87165604  0.63799332  0.62397752  1
  O  O274  1  0.26297090  0.26433222  0.12803824  1
  O  O275  1  0.24811755  0.24793563  0.61326225  1
  O  O276  1  0.24480370  0.75996573  0.11565290  1
  O  O277  1  0.24439489  0.76613577  0.62232235  1
  O  O278  1  0.73958017  0.26748762  0.12969541  1
  O  O279  1  0.76116526  0.24477461  0.61604672  1
  O  O280  1  0.76252540  0.74780515  0.12025039  1
  O  O281  1  0.76088448  0.75636015  0.62073073  1
  O  O282  1  0.23492163  0.24350174  0.38363629  1
  O  O283  1  0.22886256  0.22759882  0.86764703  1
  O  O284  1  0.23861901  0.74924845  0.39391545  1
  O  O285  1  0.23281609  0.74504354  0.83761547  1
  O  O286  1  0.77844242  0.23627208  0.38994521  1
  O  O287  1  0.73437182  0.24150569  0.88047824  1
  O  O288  1  0.76460141  0.76056304  0.39167529  1
  O  O289  1  0.75916262  0.74669052  0.89123628  1
  O  O290  1  0.00001086  0.11477372  0.00464102  1
  O  O291  1  0.01525815  0.12288154  0.50600419  1
  O  O292  1  -0.00347961  0.62918093  0.00998245  1
  O  O293  1  0.03129649  0.60732893  0.53523669  1
  O  O294  1  0.50022251  0.06300670  -0.05047580  1
  O  O295  1  0.50893614  0.12940526  0.50482458  1
  O  O296  1  0.50579377  0.62180360  0.00765227  1
  O  O297  1  0.51349796  0.63432243  0.50513308  1
  O  O298  1  0.49874582  0.35195196  0.50580935  1
  O  O299  1  0.49730753  0.39181192  0.99871980  1
  O  O300  1  0.48659968  0.86267934  0.51115853  1
  O  O301  1  0.49448685  0.86734634  0.99635512  1
  O  O302  1  0.98648813  0.36849854  0.48756519  1
  O  O303  1  0.99863321  0.36164350  0.99263303  1
  O  O304  1  1.01373916  0.88534923  0.50840646  1
  O  O305  1  0.99541403  0.88063428  0.98371119  1
  O  O306  1  0.47976986  0.50234390  0.37800362  1
  O  O307  1  0.50361464  0.49657746  0.88391893  1
  O  O308  1  0.45552004  1.02946184  0.27000276  1
  O  O309  1  0.50563964  1.01969814  0.88945360  1
  O  O310  1  0.98856064  0.48942192  0.37290253  1
  O  O311  1  0.97349746  0.47610066  0.87671142  1
  O  O312  1  1.00711324  0.98369047  0.38947802  1
  O  O313  1  0.99087074  0.99116698  0.88592392  1
  O  O314  1  0.00429865  0.01153190  0.12126840  1
  O  O315  1  -0.00141911  0.00017311  0.61961643  1
  O  O316  1  -0.00057530  0.51444363  0.12539729  1
  O  O317  1  0.01755552  0.55695018  0.58619682  1
  O  O318  1  0.52414560  0.02471901  0.12007295  1
  O  O319  1  0.50230138  0.01923135  0.63325156  1
  O  O320  1  0.50704672  0.50662825  0.11862422  1
  O  O321  1  0.52272513  0.51592076  0.62456876  1
  O  O322  1  0.23354292  0.37255732  0.24301505  1
  O  O323  1  0.21658882  0.37140377  0.74694783  1
  O  O324  1  0.26157495  0.88296706  0.25402019  1
  O  O325  1  0.23937519  0.88982769  0.75056510  1
  O  O326  1  0.75350124  0.39512992  0.23779231  1
  O  O327  1  0.74259199  0.37535424  0.75166793  1
  O  O328  1  0.74767104  0.87845114  0.24785033  1
  O  O329  1  0.73860534  0.88213983  0.74494363  1
  O  O330  1  0.24680964  0.13210412  0.26459506  1
  O  O331  1  0.25417776  0.11578608  0.75439857  1
  O  O332  1  0.27014572  0.63032423  0.24040002  1
  O  O333  1  0.21656854  0.60558578  0.70399389  1
  O  O334  1  0.75197283  0.12175377  0.28008778  1
  O  O335  1  0.74838089  0.12077102  0.75124460  1
  O  O336  1  0.76158134  0.61276348  0.24261007  1
  O  O337  1  0.73991378  0.61233475  0.75087553  1
  O  O338  1  0.35746374  0.13221521  0.38281487  1
  O  O339  1  0.35280449  0.13055961  0.88386989  1
  O  O340  1  0.37863671  0.63564298  0.35972859  1
  O  O341  1  0.37850991  0.60269585  0.87092523  1
  O  O342  1  0.89517913  0.10531394  0.37570750  1
  O  O343  1  0.85358644  0.13669562  0.86403242  1
  O  O344  1  0.88354326  0.61617061  0.36854703  1
  O  O345  1  0.88113189  0.61825048  0.87492331  1
  O  O346  1  0.12765753  0.37653825  0.13676451  1
  O  O347  1  0.08978440  0.38587432  0.64768186  1
  O  O348  1  0.10843904  0.88163493  0.12064055  1
  O  O349  1  0.13381804  0.87433533  0.64457799  1
  O  O350  1  0.63252870  0.39173697  0.12126599  1
  O  O351  1  0.62869907  0.36901657  0.63812893  1
  O  O352  1  0.62492442  0.89035233  0.13880641  1
  O  O353  1  0.63959755  0.86474343  0.63837897  1
  O  O354  1  0.12682164  0.25364682  0.26201401  1
  O  O355  1  0.10734975  0.24317513  0.75924262  1
  O  O356  1  0.13101315  0.74292898  0.27440177  1
  O  O357  1  0.10275895  0.76637812  0.75607857  1
  O  O358  1  0.67071676  0.25505188  0.28682094  1
  O  O359  1  0.62517027  0.26388110  0.76180812  1
  O  O360  1  0.61745957  0.76102291  0.24653226  1
  O  O361  1  0.63519960  0.75408291  0.75481382  1
  O  O362  1  0.38281803  0.24277496  0.23006873  1
  O  O363  1  0.37909909  0.26192468  0.77145056  1
  O  O364  1  0.38534850  0.74221393  0.24415381  1
  O  O365  1  0.37422657  0.73826503  0.74294684  1
  O  O366  1  0.86455736  0.25074678  0.23229152  1
  O  O367  1  0.87527353  0.24218971  0.74474189  1
  O  O368  1  0.87184468  0.74263749  0.24130916  1
  O  O369  1  0.88242904  0.75190472  0.74001536  1
  O  O370  1  0.37872418  0.45244757  0.49039135  1
  O  O371  1  0.38397511  0.49857329  0.99380630  1
  O  O372  1  0.37440907  0.98170214  0.50574128  1
  O  O373  1  0.37148306  0.98849865  0.99321188  1
  O  O374  1  0.86147890  0.48970053  0.48886190  1
  O  O375  1  0.86345183  0.50602922  0.98713983  1
  O  O376  1  0.90097372  1.00429547  0.49710782  1
  O  O377  1  0.87807806  1.00636404  1.02202148  1
  O  O378  1  0.10655785  0.00475546  0.00831969  1
  O  O379  1  0.11754470  0.01470747  0.50066093  1
  O  O380  1  0.11830644  0.49677080  -0.02280188  1
  O  O381  1  0.16062705  0.49941440  0.52304898  1
  O  O382  1  0.63620753  -0.01146964  0.01489955  1
  O  O383  1  0.62888869  0.01236583  0.48925350  1
  O  O384  1  0.61901999  0.51263896  0.00808782  1
  O  O385  1  0.63911685  0.51521702  0.49256056  1
  O  O386  1  0.36612880  0.38145197  0.11853308  1
  O  O387  1  0.39035333  0.37367111  0.63224109  1
  O  O388  1  0.38666993  0.88696632  0.10907896  1
  O  O389  1  0.35912354  0.87548306  0.62853187  1
  O  O390  1  0.86595664  0.36544547  0.12745100  1
  O  O391  1  0.88493562  0.36349372  0.61565576  1
  O  O392  1  0.88400215  0.85940668  0.13192162  1
  O  O393  1  0.85740608  0.86485131  0.63181986  1
  O  O394  1  0.12450880  0.13679306  0.38171306  1
  O  O395  1  0.11925045  0.12646392  0.88387874  1
  O  O396  1  0.11482960  0.63325753  0.38686814  1
  O  O397  1  0.10840991  0.64840350  0.86992877  1
  O  O398  1  0.61104602  0.13485203  0.38615131  1
  O  O399  1  0.62951125  0.13975279  0.86645261  1
  O  O400  1  0.62220347  0.63572277  0.38859117  1
  O  O401  1  0.62090473  0.62343621  0.89272676  1
