# generated using pymatgen
data_V73Zn73O256
_symmetry_space_group_name_H-M   'P 1'
_cell_length_a   16.91625053
_cell_length_b   16.96095803
_cell_length_c   16.93561506
_cell_angle_alpha   90.16884308
_cell_angle_beta   90.49165853
_cell_angle_gamma   90.46092306
_symmetry_Int_Tables_number   1
_chemical_formula_structural   V73Zn73O256
_chemical_formula_sum   'V73 Zn73 O256'
_cell_volume   4858.73758163
_cell_formula_units_Z   1
loop_
 _symmetry_equiv_pos_site_id
 _symmetry_equiv_pos_as_xyz
  1  'x, y, z'
loop_
 _atom_site_type_symbol
 _atom_site_label
 _atom_site_symmetry_multiplicity
 _atom_site_fract_x
 _atom_site_fract_y
 _atom_site_fract_z
 _atom_site_occupancy
  V  V0  1  0.86445312  0.51002859  0.86700070  1
  V  V1  1  -0.00620051  0.00364797  0.49266005  1
  V  V2  1  0.24257453  0.87659795  0.62494613  1
  V  V3  1  0.76311005  0.01863576  0.25236709  1
  V  V4  1  0.12601326  0.14282429  0.49972269  1
  V  V5  1  0.62690840  0.62340979  -0.00579838  1
  V  V6  1  0.23807190  0.73502057  0.49554199  1
  V  V7  1  0.23963082  0.63150847  0.87441684  1
  V  V8  1  0.00604019  0.76258547  0.74260057  1
  V  V9  1  0.75790080  0.12063598  0.88476771  1
  V  V10  1  0.47659013  0.49342232  0.51221619  1
  V  V11  1  0.00738182  0.63065142  0.13011085  1
  V  V12  1  0.36902198  0.88011409  -0.00092824  1
  V  V13  1  0.37431672  0.63048839  0.75666308  1
  V  V14  1  0.62284486  0.90349820  0.22246713  1
  V  V15  1  0.11895172  0.00072243  0.62366792  1
  V  V16  1  0.14165930  0.48734206  0.12101565  1
  V  V17  1  0.63562753  0.51048425  0.64305668  1
  V  V18  1  0.19531255  0.06632096  0.93238548  1
  V  V19  1  0.11692026  0.74001217  0.35690921  1
  V  V20  1  0.48758079  0.60189129  0.11535074  1
  V  V21  1  0.49516255  0.63052927  0.62611358  1
  V  V22  1  0.00764137  0.13348992  0.11709407  1
  V  V23  1  0.62909569  0.12599068  0.49633060  1
  V  V24  1  0.37809274  0.01279463  0.87555762  1
  V  V25  1  0.25612467  0.52925490  0.27672244  1
  V  V26  1  0.24328839  0.74969273  0.00140329  1
  V  V27  1  0.86335621  0.87496716  0.49266608  1
  V  V28  1  0.86649368  0.26436079  0.11430284  1
  V  V29  1  0.74737876  0.37858411  0.63149013  1
  V  V30  1  0.62657223  0.23669162  0.89038275  1
  V  V31  1  0.48424088  0.48905547  -0.04201630  1
  V  V32  1  0.00054451  0.50692180  0.00280367  1
  V  V33  1  0.62788915  0.76508971  0.37361142  1
  V  V34  1  0.49620472  0.00486865  0.50438036  1
  V  V35  1  -0.00152490  0.25046188  0.74881643  1
  V  V36  1  0.62272656  0.39401414  0.24336389  1
  V  V37  1  0.37868499  0.25735746  0.11735357  1
  V  V38  1  0.48085700  0.71362966  0.28566432  1
  V  V39  1  0.38133664  0.11759861  0.72050569  1
  V  V40  1  0.50033344  0.86663061  0.86586286  1
  V  V41  1  0.64446469  0.62629247  0.49772602  1
  V  V42  1  0.37346512  0.75368447  0.63108912  1
  V  V43  1  0.25096336  0.88776036  0.14294103  1
  V  V44  1  0.25785426  0.27316125  -0.00587568  1
  V  V45  1  -0.01220376  0.88782528  0.88056566  1
  V  V46  1  0.13403993  0.24962271  0.88095803  1
  V  V47  1  0.75702902  -0.01306404  0.74747195  1
  V  V48  1  0.62348702  0.36333986  0.75519703  1
  V  V49  1  0.12661106  0.76582893  0.86772891  1
  V  V50  1  0.63822519  0.74876679  0.86751116  1
  V  V51  1  -0.00387305  0.37581364  0.88455939  1
  V  V52  1  0.50387011  0.24778213  0.26153376  1
  V  V53  1  0.12404606  0.37431391  0.74125577  1
  V  V54  1  -0.00380057  0.62749984  0.63247911  1
  V  V55  1  0.63007447  -0.01293132  0.63008159  1
  V  V56  1  0.73902062  0.24775597  0.49270892  1
  V  V57  1  0.38267142  0.74684380  0.12127404  1
  V  V58  1  0.00413175  0.51127368  0.49197101  1
  V  V59  1  0.49655212  0.37649841  0.38697744  1
  V  V60  1  0.29952167  0.10804132  0.33729358  1
  V  V61  1  0.51319620  0.22584120  0.73054319  1
  V  V62  1  0.86249781  0.50427653  0.37527117  1
  V  V63  1  0.51478468  0.00463940  0.00142530  1
  V  V64  1  0.24941135  0.50093698  0.75322340  1
  V  V65  1  0.12080400  0.50638270  0.62591693  1
  V  V66  1  0.87390184  0.24794637  0.63106294  1
  V  V67  1  0.86039900  0.75415249  0.62231989  1
  V  V68  1  0.88927397  0.37197297  0.49865393  1
  V  V69  1  0.51264418  0.13143302  0.11255040  1
  V  V70  1  0.87677425  0.14623297  0.27051581  1
  V  V71  1  0.37189843  0.87810183  0.49330735  1
  V  V72  1  0.24628106  0.00280603  0.74672916  1
  Zn  Zn73  1  -0.00253355  0.12506870  0.62893405  1
  Zn  Zn74  1  0.00821946  0.87421726  0.37205293  1
  Zn  Zn75  1  0.46956214  0.89220196  0.34030970  1
  Zn  Zn76  1  0.00529229  0.27252331  0.26075420  1
  Zn  Zn77  1  0.86430880  0.59299011  0.21881825  1
  Zn  Zn78  1  0.74876233  0.63045623  0.35115264  1
  Zn  Zn79  1  0.93803184  0.81235054  0.06346902  1
  Zn  Zn80  1  0.27477037  0.26133460  0.53239438  1
  Zn  Zn81  1  0.87595493  0.11712682  0.75711050  1
  Zn  Zn82  1  0.20550668  0.18282058  0.18221843  1
  Zn  Zn83  1  0.18870785  0.18584219  0.68441797  1
  Zn  Zn84  1  0.18995442  0.67781131  0.18216759  1
  Zn  Zn85  1  0.18382680  0.68883340  0.68464402  1
  Zn  Zn86  1  0.68538839  0.20008935  0.19980329  1
  Zn  Zn87  1  0.69316455  0.17181804  0.68293499  1
  Zn  Zn88  1  0.66298185  0.58109537  0.19123332  1
  Zn  Zn89  1  0.67318095  0.69860045  0.68382576  1
  Zn  Zn90  1  0.32872068  0.28794763  0.32556651  1
  Zn  Zn91  1  0.32210594  0.31329074  0.72296263  1
  Zn  Zn92  1  0.30554139  0.79295251  0.31040397  1
  Zn  Zn93  1  0.31259985  0.82005325  0.81236670  1
  Zn  Zn94  1  0.80443960  0.32350505  0.31253013  1
  Zn  Zn95  1  0.80909015  0.30802916  0.82139495  1
  Zn  Zn96  1  0.79319060  0.84195321  0.32205267  1
  Zn  Zn97  1  0.81734964  0.80528707  0.80882902  1
  Zn  Zn98  1  0.29749066  0.42626723  0.43537130  1
  Zn  Zn99  1  0.18302204  0.43999798  0.93325186  1
  Zn  Zn100  1  0.19207692  0.93810912  0.34691628  1
  Zn  Zn101  1  0.11308236  0.89456771  1.01425491  1
  Zn  Zn102  1  0.68048778  0.43469676  0.44599819  1
  Zn  Zn103  1  0.67414210  0.44462079  0.92335023  1
  Zn  Zn104  1  0.67830627  0.95214254  0.42675742  1
  Zn  Zn105  1  0.68531672  0.93960435  0.92472644  1
  Zn  Zn106  1  0.32593456  0.06681681  0.07403305  1
  Zn  Zn107  1  0.29913602  0.05859958  0.54385994  1
  Zn  Zn108  1  0.31580274  0.55693459  0.04624431  1
  Zn  Zn109  1  0.30777793  0.56140218  0.57224729  1
  Zn  Zn110  1  0.78348220  0.11299626  0.09341325  1
  Zn  Zn111  1  0.80929364  0.06091897  0.56277917  1
  Zn  Zn112  1  0.82439391  0.65902729  0.03428430  1
  Zn  Zn113  1  0.81920823  0.56217716  0.56598544  1
  Zn  Zn114  1  0.42504181  0.42884694  0.19671951  1
  Zn  Zn115  1  0.43423554  0.42279738  0.77388717  1
  Zn  Zn116  1  0.44882990  0.93084446  0.17683682  1
  Zn  Zn117  1  0.43936429  0.93703000  0.68379246  1
  Zn  Zn118  1  0.94553025  0.42892498  0.18974545  1
  Zn  Zn119  1  0.93794683  0.43666030  0.68973360  1
  Zn  Zn120  1  0.94560247  0.96278494  0.19247623  1
  Zn  Zn121  1  0.93292656  0.93196921  0.68213557  1
  Zn  Zn122  1  0.05752752  0.08116329  0.31557531  1
  Zn  Zn123  1  0.05917528  0.06343469  0.81015225  1
  Zn  Zn124  1  0.06796332  0.55212024  0.30254522  1
  Zn  Zn125  1  0.05923514  0.56769299  0.81158456  1
  Zn  Zn126  1  0.49059180  0.05484978  0.30659537  1
  Zn  Zn127  1  0.56993979  0.05834941  0.81322901  1
  Zn  Zn128  1  0.54344249  0.56036157  0.32836954  1
  Zn  Zn129  1  0.57032024  0.56719424  0.80449009  1
  Zn  Zn130  1  0.43719839  0.18563438  0.44631799  1
  Zn  Zn131  1  0.44058439  0.20081584  0.92978660  1
  Zn  Zn132  1  0.44034509  0.69838661  0.45165498  1
  Zn  Zn133  1  0.43464491  0.68690663  0.94163175  1
  Zn  Zn134  1  0.95382800  0.19973891  0.44090168  1
  Zn  Zn135  1  0.93364292  0.19345209  0.94244209  1
  Zn  Zn136  1  0.93629955  0.69035270  0.43665776  1
  Zn  Zn137  1  0.94751950  0.68602861  0.92804787  1
  Zn  Zn138  1  0.06591108  0.30460482  0.07094135  1
  Zn  Zn139  1  0.11954357  0.35384997  0.51462604  1
  Zn  Zn140  1  0.06063179  0.82632567  0.19056838  1
  Zn  Zn141  1  0.06211949  0.81760538  0.55300652  1
  Zn  Zn142  1  0.56012630  0.32765316  0.05980932  1
  Zn  Zn143  1  0.44214379  0.32272271  0.58507991  1
  Zn  Zn144  1  0.56729909  0.81187118  0.05421030  1
  Zn  Zn145  1  0.56199797  0.81210699  0.55877121  1
  O  O146  1  0.10709228  0.14854154  0.14156488  1
  O  O147  1  0.11850534  0.11639636  0.62326696  1
  O  O148  1  0.11463973  0.60378129  0.12921237  1
  O  O149  1  0.11231287  0.61489209  0.62807299  1
  O  O150  1  0.61146449  0.13897623  0.12466598  1
  O  O151  1  0.63067532  0.10477731  0.61259165  1
  O  O152  1  0.60078434  0.61743528  0.10300254  1
  O  O153  1  0.60468422  0.65133881  0.59787254  1
  O  O154  1  0.38808338  0.37133900  0.38024420  1
  O  O155  1  0.36541824  0.34614410  0.82486079  1
  O  O156  1  0.36091516  0.86584771  0.39278551  1
  O  O157  1  0.38153403  0.88748615  0.88113988  1
  O  O158  1  0.86804474  0.38581139  0.39596070  1
  O  O159  1  0.89395639  0.37405302  0.87094977  1
  O  O160  1  0.88514493  0.86602719  0.38682917  1
  O  O161  1  0.88981911  0.86890345  0.87157414  1
  O  O162  1  0.25316219  0.02650087  0.38209369  1
  O  O163  1  0.25789827  0.00980846  0.86544550  1
  O  O164  1  0.25863928  0.51567460  0.37701287  1
  O  O165  1  0.23342359  0.51768972  0.86158338  1
  O  O166  1  0.73546100  0.01051493  0.35156341  1
  O  O167  1  0.74433813  0.00875311  0.85907342  1
  O  O168  1  0.76126452  0.50027019  0.38934311  1
  O  O169  1  0.76702568  0.48654914  0.87726302  1
  O  O170  1  0.24013131  0.50063711  0.10691223  1
  O  O171  1  0.23303725  0.51033879  0.64229757  1
  O  O172  1  0.26574489  0.98455208  0.12778347  1
  O  O173  1  0.24085268  0.99438527  0.62673254  1
  O  O174  1  0.75500363  0.44586841  0.07705546  1
  O  O175  1  0.75415005  0.48417784  0.62270980  1
  O  O176  1  0.73914298  1.02455271  0.15099914  1
  O  O177  1  0.74212891  0.99772595  0.63482414  1
  O  O178  1  0.02071436  0.38688617  0.25976850  1
  O  O179  1  0.00851709  0.36795976  0.75872394  1
  O  O180  1  0.04241447  0.92806050  0.26499586  1
  O  O181  1  0.00015886  0.86537792  0.75354259  1
  O  O182  1  0.50299924  0.37322302  0.26416096  1
  O  O183  1  0.52083851  0.34121251  0.75119418  1
  O  O184  1  0.52570341  0.85828403  0.23825498  1
  O  O185  1  0.49502166  0.88121983  0.76768894  1
  O  O186  1  0.50830269  0.14586654  0.23634913  1
  O  O187  1  0.49662309  0.11717210  0.74352560  1
  O  O188  1  0.50068985  0.62558562  0.21785575  1
  O  O189  1  0.48759971  0.62052318  0.73576665  1
  O  O190  1  0.98755882  0.14283441  0.25166654  1
  O  O191  1  0.99425083  0.13806382  0.75154553  1
  O  O192  1  0.99175247  0.61094146  0.23262531  1
  O  O193  1  1.00070671  0.63930375  0.73964181  1
  O  O194  1  0.36529628  0.24752241  -0.00107423  1
  O  O195  1  0.38625839  0.25635369  0.51232395  1
  O  O196  1  0.36541961  0.76080552  0.00232523  1
  O  O197  1  0.36101318  0.75818694  0.51008458  1
  O  O198  1  0.87594126  0.26216732  0.01405294  1
  O  O199  1  0.87228799  0.26283133  0.50966879  1
  O  O200  1  0.87946160  0.74653436  -0.00514316  1
  O  O201  1  0.87805461  0.76267505  0.50909537  1
  O  O202  1  0.10205688  0.23877139  0.51695280  1
  O  O203  1  0.14390838  0.25995465  0.99409684  1
  O  O204  1  0.13660218  0.74560621  0.50480723  1
  O  O205  1  0.14171897  0.76329737  0.98813415  1
  O  O206  1  0.63569321  0.23693154  0.50753062  1
  O  O207  1  0.62038309  0.25643986  0.98731422  1
  O  O208  1  0.61013462  0.74035703  0.47798525  1
  O  O209  1  0.61573575  0.73280778  0.98736018  1
  O  O210  1  0.49643380  0.24400370  0.11281137  1
  O  O211  1  0.51307103  0.23759109  0.63315418  1
  O  O212  1  0.48487994  0.74663048  0.10863431  1
  O  O213  1  0.48249389  0.74372455  0.61433610  1
  O  O214  1  0.98719264  0.25743918  0.13949556  1
  O  O215  1  0.98814645  0.25370109  0.64123302  1
  O  O216  1  1.02262869  0.72882728  0.11737005  1
  O  O217  1  1.00421302  0.74741782  0.63142701  1
  O  O218  1  0.00753831  0.27115188  0.37553715  1
  O  O219  1  0.00908214  0.25914694  0.86956470  1
  O  O220  1  0.01211583  0.75166864  0.37632788  1
  O  O221  1  0.00744382  0.75405111  0.85676836  1
  O  O222  1  0.49729700  0.25463867  0.36441288  1
  O  O223  1  0.52335234  0.23313672  0.86043312  1
  O  O224  1  0.49362858  0.77764535  0.37459721  1
  O  O225  1  0.48945956  0.76628521  0.87802830  1
  O  O226  1  0.23119475  0.14370325  0.51727115  1
  O  O227  1  0.25187659  0.11921731  0.99769413  1
  O  O228  1  0.25388249  0.63772318  0.50768945  1
  O  O229  1  0.25652706  0.63850551  0.98371330  1
  O  O230  1  0.74422218  0.13684966  0.50282352  1
  O  O231  1  0.75699985  0.10561768  0.98325346  1
  O  O232  1  0.74332067  0.63242856  0.50832064  1
  O  O233  1  0.72560143  0.61334940  1.00978785  1
  O  O234  1  0.25958160  0.37127039  -0.01055854  1
  O  O235  1  0.22691363  0.35125705  0.47963904  1
  O  O236  1  0.26229916  0.86896570  0.00944593  1
  O  O237  1  0.26136497  0.86891463  0.51549754  1
  O  O238  1  0.73150080  0.39332073  0.03104368  1
  O  O239  1  0.75013667  0.36421013  0.51441609  1
  O  O240  1  0.75874653  0.87821030  0.00403954  1
  O  O241  1  0.76507105  0.88777335  0.48446586  1
  O  O242  1  0.15391560  0.50260731  0.24086401  1
  O  O243  1  0.12415273  0.49609676  0.74342042  1
  O  O244  1  0.10758155  0.98458031  0.27335900  1
  O  O245  1  0.13833906  1.01195491  0.74045578  1
  O  O246  1  0.61000488  0.50127645  0.25631635  1
  O  O247  1  0.61005577  0.46597684  0.75502365  1
  O  O248  1  0.60196872  0.99831761  0.24071275  1
  O  O249  1  0.63305127  0.99823524  0.73650361  1
  O  O250  1  0.41662439  -0.02676063  0.27368479  1
  O  O251  1  0.37290827  0.00662596  0.75452457  1
  O  O252  1  0.33585729  0.47922098  0.23992944  1
  O  O253  1  0.35319316  0.51564126  0.75066040  1
  O  O254  1  0.86910717  0.02198445  0.25412371  1
  O  O255  1  0.86229851  -0.00003677  0.73886544  1
  O  O256  1  0.87775145  0.48894310  0.27420681  1
  O  O257  1  0.88549947  0.49646786  0.76779429  1
  O  O258  1  0.16615053  0.31933000  0.29665259  1
  O  O259  1  0.11942429  0.36550783  0.86425899  1
  O  O260  1  0.12759196  0.85165772  0.38085314  1
  O  O261  1  0.11195448  0.86599743  0.87390815  1
  O  O262  1  0.60388258  0.38584571  0.37452333  1
  O  O263  1  0.64342923  0.35138739  0.86028641  1
  O  O264  1  0.62744948  0.86622329  0.36130996  1
  O  O265  1  0.60958545  0.85990506  0.88738962  1
  O  O266  1  0.39653206  0.14199454  0.11953937  1
  O  O267  1  0.37991341  0.10768277  0.62325732  1
  O  O268  1  0.38254330  0.63222670  0.10869699  1
  O  O269  1  0.37544555  0.63447567  0.63624013  1
  O  O270  1  0.88785020  0.14791208  0.13852633  1
  O  O271  1  0.87272544  0.14061218  0.62653998  1
  O  O272  1  0.89706152  0.61982447  0.11344387  1
  O  O273  1  0.88597196  0.64277926  0.61488188  1
  O  O274  1  0.26760271  0.24820135  0.10679087  1
  O  O275  1  0.25399643  0.26664715  0.64630244  1
  O  O276  1  0.26201455  0.75111328  0.11765572  1
  O  O277  1  0.25299217  0.75717124  0.61935055  1
  O  O278  1  0.76361465  0.23287174  0.12293655  1
  O  O279  1  0.75855179  0.25857535  0.61816061  1
  O  O280  1  0.78360261  0.77051256  0.15185804  1
  O  O281  1  0.76209496  0.74525388  0.63254965  1
  O  O282  1  0.27243440  0.20041099  0.37209265  1
  O  O283  1  0.24010967  0.24787617  0.88656874  1
  O  O284  1  0.23849830  0.74519761  0.38924324  1
  O  O285  1  0.24377469  0.75256208  0.87730002  1
  O  O286  1  0.74926937  0.26012387  0.39550114  1
  O  O287  1  0.74070638  0.23219670  0.87387037  1
  O  O288  1  0.73115907  0.74933792  0.36344215  1
  O  O289  1  0.73794640  0.75576951  0.87428801  1
  O  O290  1  0.00620239  0.15007285  0.01607494  1
  O  O291  1  -0.00272139  0.11585078  0.50994838  1
  O  O292  1  0.00770768  0.61045167  0.00213883  1
  O  O293  1  -0.00159944  0.61415853  0.50982253  1
  O  O294  1  0.50277202  0.11497615  0.00185384  1
  O  O295  1  0.50701612  0.10881851  0.50594480  1
  O  O296  1  0.49685743  0.60883326  -0.00168998  1
  O  O297  1  0.48110741  0.60965715  0.51347914  1
  O  O298  1  0.50311838  0.39072913  0.50739980  1
  O  O299  1  0.50621654  0.39427816  0.98356468  1
  O  O300  1  0.47698000  0.87572736  0.50745793  1
  O  O301  1  0.48776917  0.88800925  0.99712632  1
  O  O302  1  0.98998357  0.38385600  0.50545622  1
  O  O303  1  1.01037018  0.37379746  0.98542588  1
  O  O304  1  0.99459853  0.89127842  0.49740819  1
  O  O305  1  1.00276797  0.87513709  0.98490855  1
  O  O306  1  0.49241373  0.49392953  0.40700834  1
  O  O307  1  0.48750173  0.49409482  0.85326867  1
  O  O308  1  0.51357184  0.98407650  0.40423359  1
  O  O309  1  0.49759475  0.99224538  0.88487589  1
  O  O310  1  0.99448379  0.50797804  0.38993366  1
  O  O311  1  1.01296270  0.48664986  0.88114149  1
  O  O312  1  0.99507546  1.00776999  0.39348369  1
  O  O313  1  0.99896288  0.98610166  0.86442321  1
  O  O314  1  -0.00414187  0.03296116  0.12157909  1
  O  O315  1  0.00817030  0.00012287  0.62789395  1
  O  O316  1  0.00519383  0.49735733  0.11107149  1
  O  O317  1  -0.00019395  0.51076216  0.62218862  1
  O  O318  1  0.49523541  0.01505351  0.10792849  1
  O  O319  1  0.51387969  -0.01031242  0.61415275  1
  O  O320  1  0.47988600  0.50353856  0.12069990  1
  O  O321  1  0.51848561  0.51457536  0.61744018  1
  O  O322  1  0.23626776  0.34701986  0.27340051  1
  O  O323  1  0.23547995  0.39732099  0.75811333  1
  O  O324  1  0.25510970  0.87412376  0.24512598  1
  O  O325  1  0.25796903  0.89158251  0.73807997  1
  O  O326  1  0.72131417  0.37992009  0.26099466  1
  O  O327  1  0.74442239  0.36077780  0.73671944  1
  O  O328  1  0.73324660  0.90095452  0.24557184  1
  O  O329  1  0.75227678  0.88791199  0.75803086  1
  O  O330  1  0.27482841  0.11234038  0.23821544  1
  O  O331  1  0.27083062  0.11301336  0.73862700  1
  O  O332  1  0.26542957  0.62865855  0.25415308  1
  O  O333  1  0.25219292  0.62385300  0.75549881  1
  O  O334  1  0.76411076  0.13184853  0.25697978  1
  O  O335  1  0.75601542  0.11203568  0.75816115  1
  O  O336  1  0.75608498  0.61624426  0.23843285  1
  O  O337  1  0.66913476  0.58390424  0.70861043  1
  O  O338  1  0.40225003  0.11160295  0.36465832  1
  O  O339  1  0.38683094  0.11239310  0.87270922  1
  O  O340  1  0.44855578  0.63975844  0.34968004  1
  O  O341  1  0.36095600  0.63994788  0.86151363  1
  O  O342  1  0.88116126  0.13956583  0.36969059  1
  O  O343  1  0.86376745  0.13380556  0.87378558  1
  O  O344  1  0.86788327  0.61177941  0.38193601  1
  O  O345  1  0.87475052  0.61035614  0.87852567  1
  O  O346  1  0.12519929  0.38803009  0.12799696  1
  O  O347  1  0.11477308  0.38819879  0.63668610  1
  O  O348  1  0.14830400  0.87301429  0.12220706  1
  O  O349  1  0.13319671  0.88703117  0.61880981  1
  O  O350  1  0.61090658  0.38851928  0.14306290  1
  O  O351  1  0.64037064  0.38727858  0.63587721  1
  O  O352  1  0.62543544  0.88102506  0.12269314  1
  O  O353  1  0.62891467  0.88579967  0.61343010  1
  O  O354  1  0.13879909  0.25669389  0.25430630  1
  O  O355  1  0.11815050  0.25498863  0.75838003  1
  O  O356  1  0.12622746  0.75068080  0.25244098  1
  O  O357  1  0.11521607  0.75519009  0.75060124  1
  O  O358  1  0.60690089  0.27026852  0.24535709  1
  O  O359  1  0.62480116  0.24279071  0.74712229  1
  O  O360  1  0.59288290  0.72142088  0.28244884  1
  O  O361  1  0.61953304  0.74828487  0.76778267  1
  O  O362  1  0.39514652  0.25872724  0.23108648  1
  O  O363  1  0.39838701  0.22071398  0.74217401  1
  O  O364  1  0.39135843  0.75289941  0.24146647  1
  O  O365  1  0.36565035  0.74577287  0.73917081  1
  O  O366  1  0.87142528  0.25177630  0.25545911  1
  O  O367  1  0.88197243  0.25531233  0.74450016  1
  O  O368  1  0.82338976  0.76007094  0.21322851  1
  O  O369  1  0.88925878  0.75615651  0.73059878  1
  O  O370  1  0.37429534  0.48507836  0.51951196  1
  O  O371  1  0.38576136  0.50048632  0.97848192  1
  O  O372  1  0.38323650  0.98875962  0.50668754  1
  O  O373  1  0.37943312  0.99506945  0.99140550  1
  O  O374  1  0.88646670  0.49175102  0.49873582  1
  O  O375  1  0.90140883  0.49183814  0.97847325  1
  O  O376  1  0.88544845  0.98865042  0.51405540  1
  O  O377  1  0.81553793  0.91483790  1.03581162  1
  O  O378  1  0.14174542  0.00070313  -0.01773388  1
  O  O379  1  0.10760160  0.01412714  0.51379359  1
  O  O380  1  0.11575112  0.49235674  0.00920105  1
  O  O381  1  0.10547512  0.48523709  0.51340912  1
  O  O382  1  0.61239252  -0.00534649  -0.00372650  1
  O  O383  1  0.62036200  0.00502525  0.51026295  1
  O  O384  1  0.60234034  0.51623494  -0.02875766  1
  O  O385  1  0.63228791  0.51925833  0.52028001  1
  O  O386  1  0.39054966  0.35618480  0.11210782  1
  O  O387  1  0.39680805  0.38421329  0.66684014  1
  O  O388  1  0.36915541  0.86613744  0.11823727  1
  O  O389  1  0.36571809  0.86820663  0.62253737  1
  O  O390  1  0.86711650  0.36359546  0.14001247  1
  O  O391  1  0.86760724  0.37109535  0.61770222  1
  O  O392  1  0.95014281  0.85487012  0.16606955  1
  O  O393  1  0.87508923  0.86158859  0.61057315  1
  O  O394  1  0.11689228  0.13022872  0.40017965  1
  O  O395  1  0.12932714  0.13036651  0.87819455  1
  O  O396  1  0.11842843  0.63917520  0.36579737  1
  O  O397  1  0.13304278  0.64448582  0.86558529  1
  O  O398  1  0.61700091  0.11906002  0.40002884  1
  O  O399  1  0.63837502  0.12902661  0.87686442  1
  O  O400  1  0.63134195  0.61653137  0.39271917  1
  O  O401  1  0.61805269  0.63925171  0.87980967  1
