# generated using pymatgen
data_V73Zn73O256
_symmetry_space_group_name_H-M   'P 1'
_cell_length_a   16.82000820
_cell_length_b   16.83311851
_cell_length_c   16.84886727
_cell_angle_alpha   90.11041751
_cell_angle_beta   89.95462529
_cell_angle_gamma   89.99100027
_symmetry_Int_Tables_number   1
_chemical_formula_structural   V73Zn73O256
_chemical_formula_sum   'V73 Zn73 O256'
_cell_volume   4770.46314601
_cell_formula_units_Z   1
loop_
 _symmetry_equiv_pos_site_id
 _symmetry_equiv_pos_as_xyz
  1  'x, y, z'
loop_
 _atom_site_type_symbol
 _atom_site_label
 _atom_site_symmetry_multiplicity
 _atom_site_fract_x
 _atom_site_fract_y
 _atom_site_fract_z
 _atom_site_occupancy
  V  V0  1  0.75589694  0.49382358  0.75466996  1
  V  V1  1  0.12835561  -0.02306698  0.13406176  1
  V  V2  1  0.24728598  0.75625622  0.00580869  1
  V  V3  1  0.22993207  0.88110520  0.64936170  1
  V  V4  1  0.61621748  0.62096123  0.49765720  1
  V  V5  1  0.00713453  0.25641764  0.24669553  1
  V  V6  1  0.62508688  0.36843175  0.75114559  1
  V  V7  1  0.50380091  0.47303010  0.49104845  1
  V  V8  1  0.37732603  0.87323549  0.51205479  1
  V  V9  1  0.74391181  0.25349183  -0.00183085  1
  V  V10  1  0.00155659  0.12880966  0.62142677  1
  V  V11  1  0.62313246  0.49800518  0.62122355  1
  V  V12  1  0.37521202  0.49051590  0.37694827  1
  V  V13  1  0.12804774  0.74972604  0.38146219  1
  V  V14  1  0.24679566  0.36551861  0.12912940  1
  V  V15  1  0.00302723  -0.00245257  0.50774602  1
  V  V16  1  0.71784149  0.86935890  0.63019408  1
  V  V17  1  0.50942779  0.00845823  -0.00218654  1
  V  V18  1  0.62868807  0.01546352  0.11848074  1
  V  V19  1  0.13256993  0.49747272  0.13340622  1
  V  V20  1  0.12289906  0.62478984  -0.00312126  1
  V  V21  1  0.75916446  0.37172571  0.60894992  1
  V  V22  1  0.13500456  0.25547416  0.37204884  1
  V  V23  1  -0.01212441  0.49875756  -0.00642661  1
  V  V24  1  0.75384219  0.48419815  0.23987782  1
  V  V25  1  0.63959102  0.25980434  0.37097740  1
  V  V26  1  0.87805112  0.74624027  0.62902462  1
  V  V27  1  0.49993377  0.74659563  0.24836955  1
  V  V28  1  0.63094728  0.87585658  0.24623895  1
  V  V29  1  0.62545455  0.62804167  0.00656080  1
  V  V30  1  -0.01828251  0.37954531  0.87367458  1
  V  V31  1  0.00647665  0.86813891  0.36370127  1
  V  V32  1  0.87612568  0.87193771  0.50280537  1
  V  V33  1  0.87084444  0.26413234  0.11727696  1
  V  V34  1  0.38460772  0.24530319  0.62970125  1
  V  V35  1  0.13607427  0.12037012  0.49385676  1
  V  V36  1  0.75037770  0.62229944  0.87668078  1
  V  V37  1  0.11873269  0.76067005  0.86300104  1
  V  V38  1  0.62568919  0.74689798  0.37394838  1
  V  V39  1  0.50407475  0.89754280  0.37609407  1
  V  V40  1  0.62465365  0.23526029  0.87484267  1
  V  V41  1  0.87565815  0.12730776  0.24962910  1
  V  V42  1  0.36309031  0.36434566  -0.00536367  1
  V  V43  1  0.00953821  0.62392667  0.62014984  1
  V  V44  1  0.35989217  0.11716321  0.75557675  1
  V  V45  1  0.13337325  0.38038474  0.75812940  1
  V  V46  1  0.65474164  0.12500893  0.49555778  1
  V  V47  1  0.25232299  0.37089851  0.61433511  1
  V  V48  1  0.76460948  0.61518968  0.36341859  1
  V  V49  1  -0.00297127  0.49489460  0.49888409  1
  V  V50  1  0.36097379  0.62357725  0.24971887  1
  V  V51  1  0.75446258  0.86686886  0.10779309  1
  V  V52  1  0.25256892  0.62392437  0.85780370  1
  V  V53  1  0.87647128  0.74763191  0.12788960  1
  V  V54  1  0.75031422  0.74311571  0.49697710  1
  V  V55  1  0.49879459  0.37320683  0.86831197  1
  V  V56  1  -0.00832242  0.37813437  0.37783158  1
  V  V57  1  0.76048940  0.04909439  0.77979282  1
  V  V58  1  0.62062330  0.74741708  0.86059874  1
  V  V59  1  0.49566998  0.50051290  0.00021155  1
  V  V60  1  0.87941879  0.25311452  0.60409873  1
  V  V61  1  0.50406186  0.87108660  0.86400325  1
  V  V62  1  0.00784440  0.12307544  0.11290538  1
  V  V63  1  0.75018085  0.00560355  0.25234560  1
  V  V64  1  -0.03082841  0.86422256  0.87461746  1
  V  V65  1  -0.00153983  0.24861895  0.75947010  1
  V  V66  1  0.37671521  0.87211779  0.00742602  1
  V  V67  1  0.25101830  0.63046849  0.40532019  1
  V  V68  1  0.50887618  0.00695369  0.51999778  1
  V  V69  1  -0.01879032  -0.02599877  0.00846385  1
  V  V70  1  0.87872802  0.62228461  0.75172894  1
  V  V71  1  0.87261364  0.00312712  0.37752635  1
  V  V72  1  -0.00661261  0.62334496  0.14424445  1
  Zn  Zn73  1  0.51907368  0.13073093  0.64159297  1
  Zn  Zn74  1  0.37005382  0.50396126  0.86219547  1
  Zn  Zn75  1  0.14030294  0.50675435  0.62240513  1
  Zn  Zn76  1  0.49745538  0.62165171  0.12864479  1
  Zn  Zn77  1  0.09936844  0.92436135  0.75033264  1
  Zn  Zn78  1  0.36405587  0.75621279  0.13435067  1
  Zn  Zn79  1  0.36141942  -0.00060435  0.87362385  1
  Zn  Zn80  1  0.26475267  0.24407266  0.49070589  1
  Zn  Zn81  1  0.61999828  0.47354834  0.13483473  1
  Zn  Zn82  1  0.18662607  0.18406489  0.18000714  1
  Zn  Zn83  1  0.18292312  0.19117506  0.68674639  1
  Zn  Zn84  1  0.17735964  0.69289274  0.19075738  1
  Zn  Zn85  1  0.19258156  0.70205702  0.67853005  1
  Zn  Zn86  1  0.67673164  0.29955647  0.19258246  1
  Zn  Zn87  1  0.69401587  0.18466440  0.68434193  1
  Zn  Zn88  1  0.69170347  0.68500578  0.18734166  1
  Zn  Zn89  1  0.68859750  0.68243486  0.68452764  1
  Zn  Zn90  1  0.32020485  0.30877490  0.30478614  1
  Zn  Zn91  1  0.30877611  0.30004656  0.81366612  1
  Zn  Zn92  1  0.31824447  0.81158856  0.33142482  1
  Zn  Zn93  1  0.31117188  0.81426413  0.81477212  1
  Zn  Zn94  1  0.81617577  0.31078201  0.31495037  1
  Zn  Zn95  1  0.80772895  0.28535924  0.80066582  1
  Zn  Zn96  1  0.81783243  0.80973082  0.30915644  1
  Zn  Zn97  1  0.79581602  0.80574164  0.80578072  1
  Zn  Zn98  1  0.18232250  0.44042721  0.43885702  1
  Zn  Zn99  1  0.18408036  0.44538568  0.93476836  1
  Zn  Zn100  1  0.19109709  0.93145340  0.44417156  1
  Zn  Zn101  1  0.13988140  0.98051095  0.91288465  1
  Zn  Zn102  1  0.68970787  0.43198253  0.42327824  1
  Zn  Zn103  1  0.68901289  0.43599568  0.94251786  1
  Zn  Zn104  1  0.68732285  0.93978282  0.44486834  1
  Zn  Zn105  1  0.69213051  0.94184550  0.92628295  1
  Zn  Zn106  1  0.30358894  0.04465192  0.05693677  1
  Zn  Zn107  1  0.31791971  0.05399297  0.56656137  1
  Zn  Zn108  1  0.31086353  0.56435183  0.05569784  1
  Zn  Zn109  1  0.31212249  0.54141133  0.55611790  1
  Zn  Zn110  1  0.80777098  0.07189177  0.06545251  1
  Zn  Zn111  1  0.81182463  0.05146032  0.59299101  1
  Zn  Zn112  1  0.80924287  0.56016373  0.06787247  1
  Zn  Zn113  1  0.81500961  0.55763680  0.55877278  1
  Zn  Zn114  1  0.42360216  0.44186737  0.18046564  1
  Zn  Zn115  1  0.43805695  0.43376497  0.68112250  1
  Zn  Zn116  1  0.44685675  0.94023827  0.18459623  1
  Zn  Zn117  1  0.43131174  0.94597084  0.69056160  1
  Zn  Zn118  1  0.94158237  0.44364808  0.19287784  1
  Zn  Zn119  1  0.94014341  0.43705656  0.68569153  1
  Zn  Zn120  1  0.93452820  0.93471625  0.18716648  1
  Zn  Zn121  1  0.91957639  0.94184069  0.69296128  1
  Zn  Zn122  1  0.06364424  0.06297098  0.31128502  1
  Zn  Zn123  1  0.00487911  0.06679046  0.82553466  1
  Zn  Zn124  1  0.07522612  0.56135560  0.31999528  1
  Zn  Zn125  1  0.06560041  0.56065721  0.80877837  1
  Zn  Zn126  1  0.56439996  0.12974568  0.30528372  1
  Zn  Zn127  1  0.56304043  0.05383281  0.79942928  1
  Zn  Zn128  1  0.56507926  0.55707383  0.31066725  1
  Zn  Zn129  1  0.56118337  0.55760696  0.81054706  1
  Zn  Zn130  1  0.45805358  0.20377083  0.45109799  1
  Zn  Zn131  1  0.43727659  0.18723351  0.93072288  1
  Zn  Zn132  1  0.43578905  0.68871410  0.43692755  1
  Zn  Zn133  1  0.43672409  0.68881286  0.93507509  1
  Zn  Zn134  1  0.94263100  0.18686592  0.43382575  1
  Zn  Zn135  1  0.91739256  0.17932911  0.93941766  1
  Zn  Zn136  1  0.94353229  0.68457011  0.43855188  1
  Zn  Zn137  1  0.93135238  0.68798642  0.94274598  1
  Zn  Zn138  1  0.06777244  0.31118110  0.05011287  1
  Zn  Zn139  1  0.07174356  0.31332112  0.55898259  1
  Zn  Zn140  1  0.06007411  0.80597934  0.06408602  1
  Zn  Zn141  1  0.06839587  0.81156946  0.56738488  1
  Zn  Zn142  1  0.56472886  0.31716644  0.04556667  1
  Zn  Zn143  1  0.57492858  0.30040523  0.56128132  1
  Zn  Zn144  1  0.56412276  0.81160684  0.05845903  1
  Zn  Zn145  1  0.53054083  0.79545075  0.56421661  1
  O  O146  1  0.11050050  0.12130229  0.12145308  1
  O  O147  1  0.11471123  0.13619423  0.60353070  1
  O  O148  1  0.11426123  0.61822868  0.11859013  1
  O  O149  1  0.11190262  0.62783113  0.63412348  1
  O  O150  1  0.63032894  0.11087832  0.12468628  1
  O  O151  1  0.62738147  0.14154985  0.60599745  1
  O  O152  1  0.62314556  0.62823864  0.11143181  1
  O  O153  1  0.63557699  0.60733404  0.61246426  1
  O  O154  1  0.36631542  0.39222673  0.37156693  1
  O  O155  1  0.37886720  0.37681603  0.87596451  1
  O  O156  1  0.40246082  0.87294090  0.38108361  1
  O  O157  1  0.38868089  0.87569724  0.88303655  1
  O  O158  1  0.89246211  0.37410276  0.37485576  1
  O  O159  1  0.88373528  0.37216401  0.86731853  1
  O  O160  1  0.88510192  0.87573453  0.38553317  1
  O  O161  1  0.87108703  0.85088468  0.87889580  1
  O  O162  1  0.25279379  -0.02902491  0.33925267  1
  O  O163  1  0.24854360  0.02625822  0.91064986  1
  O  O164  1  0.26493972  0.51533309  0.39345569  1
  O  O165  1  0.24877095  0.51849585  0.87095016  1
  O  O166  1  0.76473043  -0.01208928  0.36804842  1
  O  O167  1  0.76772960  0.00634091  0.87303369  1
  O  O168  1  0.75032739  0.51013775  0.36652065  1
  O  O169  1  0.74097301  0.50773419  0.86433750  1
  O  O170  1  0.23638913  0.49836618  0.11700167  1
  O  O171  1  0.25817485  0.48095886  0.63064279  1
  O  O172  1  0.22784620  0.98547490  0.11489162  1
  O  O173  1  0.24582042  0.97259565  0.60363178  1
  O  O174  1  0.74173933  0.49893883  0.13487562  1
  O  O175  1  0.74562820  0.48758077  0.62976386  1
  O  O176  1  0.74335576  0.98856991  0.12914426  1
  O  O177  1  0.73271677  0.96409417  0.59840062  1
  O  O178  1  0.00308098  0.36636820  0.26033395  1
  O  O179  1  0.00509073  0.37337777  0.75958478  1
  O  O180  1  -0.00543158  0.87552465  0.26595834  1
  O  O181  1  -0.01621157  0.88643658  0.77055764  1
  O  O182  1  0.43993589  0.33060362  0.23932350  1
  O  O183  1  0.51286912  0.38131023  0.75595375  1
  O  O184  1  0.51079632  0.87108548  0.25812943  1
  O  O185  1  0.49783170  0.88485517  0.76593450  1
  O  O186  1  0.47738688  0.09729211  0.23037689  1
  O  O187  1  0.48181939  0.10984699  0.74501135  1
  O  O188  1  0.49226284  0.63383953  0.25331690  1
  O  O189  1  0.46893235  0.58451503  0.74240358  1
  O  O190  1  0.99333192  0.13533546  0.24189529  1
  O  O191  1  1.01696961  0.14514566  0.73106144  1
  O  O192  1  1.00414341  0.61422076  0.24242020  1
  O  O193  1  0.98740967  0.61391535  0.73704946  1
  O  O194  1  0.37905123  0.26509308  -0.00534265  1
  O  O195  1  0.37597965  0.24122581  0.51809235  1
  O  O196  1  0.37060508  0.75722930  0.00632878  1
  O  O197  1  0.42105341  0.77314808  0.51138309  1
  O  O198  1  0.86991582  0.25524030  0.00944448  1
  O  O199  1  0.88134731  0.25517145  0.50455115  1
  O  O200  1  0.87125398  0.73741138  0.02399859  1
  O  O201  1  0.86898363  0.75170407  0.50635419  1
  O  O202  1  0.12904462  0.23897705  0.48617184  1
  O  O203  1  0.13867621  0.23365709  0.98741527  1
  O  O204  1  0.12445273  0.75543611  0.48639626  1
  O  O205  1  0.12826077  0.74287316  0.99301370  1
  O  O206  1  0.62814996  0.23494719  0.48550787  1
  O  O207  1  0.63022042  0.24369899  0.98827850  1
  O  O208  1  0.62987741  0.74007293  0.49180602  1
  O  O209  1  0.61842861  0.73208392  0.98995022  1
  O  O210  1  0.46132881  0.27431601  0.19298228  1
  O  O211  1  0.48902033  0.25334683  0.62508766  1
  O  O212  1  0.49867471  0.75080814  0.13987730  1
  O  O213  1  0.48738516  0.74201370  0.66917921  1
  O  O214  1  1.00118270  0.24232765  0.12584755  1
  O  O215  1  0.99277966  0.25119260  0.62059473  1
  O  O216  1  0.99301006  0.73164957  0.12672866  1
  O  O217  1  0.99019924  0.73460260  0.61741165  1
  O  O218  1  0.00752385  0.25981301  0.36725696  1
  O  O219  1  -0.00085645  0.26481674  0.86474429  1
  O  O220  1  0.00827649  0.75981934  0.38030154  1
  O  O221  1  0.00604066  0.75791138  0.88268855  1
  O  O222  1  0.52369789  0.22208888  0.36608539  1
  O  O223  1  0.51453306  0.26239808  0.88122078  1
  O  O224  1  0.51425853  0.75153312  0.36570685  1
  O  O225  1  0.50866159  0.75865645  0.87555760  1
  O  O226  1  0.23895603  0.11805365  0.49937478  1
  O  O227  1  0.24936321  0.08910511  0.96354379  1
  O  O228  1  0.26621842  0.63247648  0.50521688  1
  O  O229  1  0.23868316  0.63464816  0.99197174  1
  O  O230  1  0.75343203  0.11416393  0.51141772  1
  O  O231  1  0.75721475  0.14939699  1.00358091  1
  O  O232  1  0.74443142  0.62857619  0.49015104  1
  O  O233  1  0.73411043  0.61119615  0.99071755  1
  O  O234  1  0.25922994  0.37962487  -0.00699812  1
  O  O235  1  0.24950266  0.37166558  0.51089017  1
  O  O236  1  0.27116758  0.86587348  -0.01037138  1
  O  O237  1  0.28077272  0.86998505  0.47916495  1
  O  O238  1  0.73939462  0.35900769  0.00770477  1
  O  O239  1  0.74796008  0.38079738  0.51116083  1
  O  O240  1  0.74531840  0.87651205  0.01021191  1
  O  O241  1  0.75633731  0.85583579  0.49653481  1
  O  O242  1  0.12496352  0.50176553  0.23296511  1
  O  O243  1  0.11891156  0.48516210  0.73887140  1
  O  O244  1  0.12083605  1.00636689  0.23332241  1
  O  O245  1  0.10568619  1.02028072  0.80964665  1
  O  O246  1  0.64054131  0.50359004  0.24813675  1
  O  O247  1  0.63425651  0.49164272  0.73874728  1
  O  O248  1  0.63246614  0.99141778  0.23515342  1
  O  O249  1  0.66464476  1.02630609  0.75047087  1
  O  O250  1  0.42666518  0.04088629  0.24734914  1
  O  O251  1  0.36134717  0.00790169  0.75550919  1
  O  O252  1  0.38223921  0.51360668  0.26574106  1
  O  O253  1  0.40722845  0.52777338  0.74616575  1
  O  O254  1  0.87117592  0.00459232  0.25753994  1
  O  O255  1  0.83493087  0.01564624  0.70955354  1
  O  O256  1  0.85593741  0.49681283  0.24539740  1
  O  O257  1  0.86409733  0.50637242  0.74345205  1
  O  O258  1  0.11913043  0.36050725  0.37776757  1
  O  O259  1  0.11788292  0.38363431  0.86183704  1
  O  O260  1  0.11447627  0.86824069  0.37889723  1
  O  O261  1  0.11524966  0.86426071  0.87360356  1
  O  O262  1  0.62010295  0.36044714  0.37051818  1
  O  O263  1  0.61716925  0.37376917  0.86697974  1
  O  O264  1  0.62259625  0.86866763  0.36670979  1
  O  O265  1  0.61945873  0.85767106  0.87809744  1
  O  O266  1  0.33680689  0.12729021  0.13712133  1
  O  O267  1  0.37316416  0.13245938  0.63446345  1
  O  O268  1  0.37304424  0.62522917  0.14021111  1
  O  O269  1  0.40839496  0.74159988  0.67894648  1
  O  O270  1  0.88606284  0.13639096  0.13446571  1
  O  O271  1  0.88781448  0.14349692  0.61639703  1
  O  O272  1  0.88666796  0.62544829  0.12945012  1
  O  O273  1  0.87888516  0.62909278  0.63009161  1
  O  O274  1  0.23567293  0.26660856  0.11595357  1
  O  O275  1  0.25787207  0.25814689  0.62027965  1
  O  O276  1  0.24475234  0.74675950  0.11206901  1
  O  O277  1  0.24449407  0.78224185  0.61944711  1
  O  O278  1  0.76542377  0.25614127  0.12149337  1
  O  O279  1  0.76727462  0.26289143  0.62625530  1
  O  O280  1  0.75604492  0.75955231  0.12555667  1
  O  O281  1  0.75579996  0.75164144  0.61430638  1
  O  O282  1  0.23915369  0.25630803  0.37274527  1
  O  O283  1  0.24165337  0.23611987  0.89970539  1
  O  O284  1  0.24637027  0.73842298  0.38253308  1
  O  O285  1  0.23588521  0.74531672  0.88153675  1
  O  O286  1  0.74345434  0.25722458  0.38125447  1
  O  O287  1  0.73691504  0.25756112  0.88668772  1
  O  O288  1  0.74333352  0.74198845  0.37770042  1
  O  O289  1  0.73223108  0.73481435  0.87275771  1
  O  O290  1  -0.00785268  0.11946425  0.01243392  1
  O  O291  1  0.00607717  0.11483360  0.50245972  1
  O  O292  1  0.00626874  0.61358781  -0.00090459  1
  O  O293  1  0.00077735  0.61457895  0.51154519  1
  O  O294  1  0.49571829  0.10701461  -0.00676837  1
  O  O295  1  0.49923354  0.11029805  0.51142686  1
  O  O296  1  0.50655024  0.61777884  -0.00056700  1
  O  O297  1  0.51417137  0.62174737  0.49528990  1
  O  O298  1  0.50687328  0.37460774  0.49217481  1
  O  O299  1  0.48654477  0.38167402  0.98974484  1
  O  O300  1  0.51291338  0.89224525  0.48793928  1
  O  O301  1  0.49266132  0.87584261  0.99207880  1
  O  O302  1  1.00359849  0.38105332  0.48972509  1
  O  O303  1  1.00562430  0.38621907  0.98456882  1
  O  O304  1  0.99358680  0.88101589  0.49928925  1
  O  O305  1  0.98376089  0.86812812  0.99976797  1
  O  O306  1  0.49166576  0.49971259  0.38342340  1
  O  O307  1  0.49803998  0.48841857  0.88260802  1
  O  O308  1  0.50921308  0.99584621  0.37381366  1
  O  O309  1  0.51617134  0.98381497  0.88729344  1
  O  O310  1  1.01123329  0.48808700  0.38345410  1
  O  O311  1  0.99739586  0.49399506  0.88293232  1
  O  O312  1  0.99237957  0.98783092  0.38401586  1
  O  O313  1  0.98135270  0.97328278  0.90009373  1
  O  O314  1  -0.00027697  0.00906128  0.12595430  1
  O  O315  1  -0.00972447  0.01084994  0.61660616  1
  O  O316  1  0.00843085  0.50675212  0.11517398  1
  O  O317  1  0.00069090  0.50872440  0.61608596  1
  O  O318  1  0.51877591  -0.00776332  0.10938746  1
  O  O319  1  0.51143748  -0.00623235  0.62063948  1
  O  O320  1  0.49852935  0.50122560  0.11597887  1
  O  O321  1  0.51411724  0.48544051  0.60570589  1
  O  O322  1  0.26164707  0.37178299  0.22884326  1
  O  O323  1  0.23690474  0.36659006  0.75070407  1
  O  O324  1  0.26426375  0.91425308  0.28832977  1
  O  O325  1  0.24677960  0.88538345  0.75118172  1
  O  O326  1  0.74874517  0.37943557  0.24923877  1
  O  O327  1  0.74451964  0.37886645  0.74504612  1
  O  O328  1  0.74446940  0.88311839  0.24599729  1
  O  O329  1  0.73993895  0.86730267  0.72988932  1
  O  O330  1  0.28885765  0.12441890  0.19905406  1
  O  O331  1  0.25809244  0.13006957  0.74648274  1
  O  O332  1  0.26021048  0.62769235  0.25532264  1
  O  O333  1  0.24366217  0.63506585  0.75852065  1
  O  O334  1  0.76447333  0.10936457  0.24246095  1
  O  O335  1  0.76440604  0.15349277  0.76847393  1
  O  O336  1  0.75131654  0.62137875  0.26057605  1
  O  O337  1  0.75623417  0.61379095  0.75475262  1
  O  O338  1  0.36465157  0.15178744  0.36128782  1
  O  O339  1  0.37487903  0.12465285  0.86111431  1
  O  O340  1  0.36444689  0.62476288  0.37114526  1
  O  O341  1  0.35581888  0.63238705  0.87656806  1
  O  O342  1  0.88587538  0.11335268  0.36403949  1
  O  O343  1  0.91303423  0.12398524  0.84668339  1
  O  O344  1  0.86288770  0.62978501  0.37863141  1
  O  O345  1  0.86271726  0.63316582  0.86482989  1
  O  O346  1  0.13322322  0.38782663  0.11354638  1
  O  O347  1  0.14103530  0.37293361  0.63134952  1
  O  O348  1  0.10857791  0.87680438  0.13685359  1
  O  O349  1  0.12015726  0.87957837  0.64639524  1
  O  O350  1  0.59863042  0.36044323  0.13961539  1
  O  O351  1  0.63849992  0.37529332  0.62995860  1
  O  O352  1  0.63802628  0.86971309  0.13162743  1
  O  O353  1  0.62020052  0.84629370  0.61825815  1
  O  O354  1  0.11983462  0.23767293  0.26173619  1
  O  O355  1  0.10802063  0.26789640  0.74116110  1
  O  O356  1  0.12877041  0.74445244  0.27670001  1
  O  O357  1  0.12013146  0.74831245  0.76455866  1
  O  O358  1  0.63625868  0.22460998  0.26766902  1
  O  O359  1  0.63335237  0.25973140  0.76205180  1
  O  O360  1  0.62214193  0.75587324  0.25535858  1
  O  O361  1  0.62025471  0.73511981  0.76102758  1
  O  O362  1  0.37171932  0.19638515  0.30074395  1
  O  O363  1  0.37348070  0.23772752  0.74046208  1
  O  O364  1  0.37948055  0.74195159  0.25469054  1
  O  O365  1  0.38601595  0.73736173  0.75535461  1
  O  O366  1  0.88553634  0.24545940  0.24201299  1
  O  O367  1  0.89635789  0.26069104  0.73267783  1
  O  O368  1  0.87128456  0.74762291  0.23269078  1
  O  O369  1  0.86571174  0.73743396  0.73706905  1
  O  O370  1  0.39615363  0.50030734  0.49210985  1
  O  O371  1  0.38295703  0.49784790  0.99103758  1
  O  O372  1  0.39788454  0.98704339  0.50407206  1
  O  O373  1  0.39076159  0.98801282  0.99772631  1
  O  O374  1  0.89461870  0.50011105  0.50025040  1
  O  O375  1  0.88914943  0.50305739  1.00501865  1
  O  O376  1  0.88141755  0.98986581  0.49640203  1
  O  O377  1  0.88380119  0.99774913  1.02374251  1
  O  O378  1  0.09351195  -0.01111941  0.01779744  1
  O  O379  1  0.11681799  0.00957527  0.48920854  1
  O  O380  1  0.11608072  0.51099470  0.00498793  1
  O  O381  1  0.11109793  0.49731963  0.50869877  1
  O  O382  1  0.62219456  -0.00386769  0.00691607  1
  O  O383  1  0.61793311  0.01376122  0.49807107  1
  O  O384  1  0.61133832  0.50670963  0.00182248  1
  O  O385  1  0.61752703  0.49955590  0.49798795  1
  O  O386  1  0.35777245  0.38345797  0.10427127  1
  O  O387  1  0.36320185  0.36024249  0.63723467  1
  O  O388  1  0.38045696  0.87682465  0.11392099  1
  O  O389  1  0.37258352  0.87884523  0.61586679  1
  O  O390  1  0.89136915  0.36092806  0.12808816  1
  O  O391  1  0.86757017  0.37072966  0.62126252  1
  O  O392  1  0.86382575  0.86411580  0.12713622  1
  O  O393  1  0.87559810  0.86293030  0.61427306  1
  O  O394  1  0.11827042  0.13549479  0.38564671  1
  O  O395  1  0.16380107  0.24616154  0.91126746  1
  O  O396  1  0.14353001  0.62915086  0.38512532  1
  O  O397  1  0.12809801  0.63342602  0.87942485  1
  O  O398  1  0.64512629  0.11933054  0.39095094  1
  O  O399  1  0.61606406  0.13798990  0.86852626  1
  O  O400  1  0.63482055  0.63097214  0.37993495  1
  O  O401  1  0.62569144  0.62881423  0.87975405  1
