# generated using pymatgen
data_V73Zn73O256
_symmetry_space_group_name_H-M   'P 1'
_cell_length_a   16.89458310
_cell_length_b   16.89437384
_cell_length_c   16.90929658
_cell_angle_alpha   90.47912533
_cell_angle_beta   89.91059032
_cell_angle_gamma   90.23586605
_symmetry_Int_Tables_number   1
_chemical_formula_structural   V73Zn73O256
_chemical_formula_sum   'V73 Zn73 O256'
_cell_volume   4826.09371091
_cell_formula_units_Z   1
loop_
 _symmetry_equiv_pos_site_id
 _symmetry_equiv_pos_as_xyz
  1  'x, y, z'
loop_
 _atom_site_type_symbol
 _atom_site_label
 _atom_site_symmetry_multiplicity
 _atom_site_fract_x
 _atom_site_fract_y
 _atom_site_fract_z
 _atom_site_occupancy
  V  V0  1  0.49390155  0.11960984  0.14078255  1
  V  V1  1  0.87730050  0.86455502  -0.01523097  1
  V  V2  1  0.87783448  0.24396848  0.13199997  1
  V  V3  1  0.25311526  0.00392810  0.24570253  1
  V  V4  1  0.36437525  0.86510450  -0.01373436  1
  V  V5  1  0.74802703  0.00082658  0.73122713  1
  V  V6  1  0.87111078  0.59536214  0.27002455  1
  V  V7  1  0.87720215  0.00230883  0.38230615  1
  V  V8  1  0.12874520  0.50488096  0.62844205  1
  V  V9  1  0.62946070  0.72705976  0.36499250  1
  V  V10  1  0.74258792  0.38823471  0.63172289  1
  V  V11  1  0.87663501  0.25166805  0.62813763  1
  V  V12  1  0.00438715  0.12160545  0.62060359  1
  V  V13  1  -0.00499937  0.64305696  0.62731806  1
  V  V14  1  0.26149157  0.75698356  0.49449811  1
  V  V15  1  0.14251755  0.38403518  0.24499676  1
  V  V16  1  0.37321785  0.24284937  0.14544871  1
  V  V17  1  0.50057078  0.00412314  -0.00661570  1
  V  V18  1  -0.00941023  0.62789088  0.12460847  1
  V  V19  1  0.63118744  0.25987672  0.87839496  1
  V  V20  1  0.25694367  0.25705618  0.50077086  1
  V  V21  1  0.50389876  0.28162857  0.75900338  1
  V  V22  1  0.62736553  -0.00736552  0.12491801  1
  V  V23  1  0.12407188  0.87654017  0.24382224  1
  V  V24  1  0.86669688  0.36354996  -0.00160592  1
  V  V25  1  0.76361816  0.86531166  0.12156074  1
  V  V26  1  0.62221460  0.12254644  0.50835303  1
  V  V27  1  0.51276525  0.86473142  0.86581108  1
  V  V28  1  0.76223268  0.50394288  0.77699818  1
  V  V29  1  0.50270385  0.47640670  0.01401221  1
  V  V30  1  0.00201854  0.37476865  0.36906503  1
  V  V31  1  -0.00307420  0.49579775  0.01267398  1
  V  V32  1  -0.00333001  0.38058404  0.87755422  1
  V  V33  1  -0.00294110  0.88312358  0.38202109  1
  V  V34  1  0.74782288  0.35984819  0.14229852  1
  V  V35  1  0.74803261  -0.00323398  0.25148401  1
  V  V36  1  0.12208766  0.75117771  0.37727317  1
  V  V37  1  0.37802966  0.01449266  0.86160770  1
  V  V38  1  0.37460387  -0.00802373  0.37508496  1
  V  V39  1  0.12938032  0.38598592  0.75453106  1
  V  V40  1  0.25172542  0.38302094  0.62742189  1
  V  V41  1  0.13145021  0.25115298  0.87553398  1
  V  V42  1  0.49685689  -0.00883979  0.50077073  1
  V  V43  1  0.12465816  0.25412817  0.36866202  1
  V  V44  1  0.61103877  0.35186555  0.25814525  1
  V  V45  1  0.37766749  0.74396837  0.64437725  1
  V  V46  1  0.87649743  0.38138865  0.49977121  1
  V  V47  1  0.49565467  0.12158868  0.63895342  1
  V  V48  1  0.12739141  -0.00541849  0.11944048  1
  V  V49  1  0.76180125  0.11701219  0.87627651  1
  V  V50  1  0.50381785  0.36582665  0.39028199  1
  V  V51  1  0.13301623  0.12501074  -0.00687382  1
  V  V52  1  0.74409964  0.12818280  0.37739976  1
  V  V53  1  0.25939930  0.26472280  0.00166176  1
  V  V54  1  0.12807282  0.63030830  0.49633503  1
  V  V55  1  0.87909404  0.64304733  0.76214805  1
  V  V56  1  -0.00168395  0.25145364  0.74894981  1
  V  V57  1  0.00315388  0.12832567  0.13185993  1
  V  V58  1  0.12496307  0.11733152  0.50125907  1
  V  V59  1  0.63524877  0.50475457  0.13374224  1
  V  V60  1  0.86554447  0.86928619  0.51024936  1
  V  V61  1  -0.01745805  0.75231145  0.25055528  1
  V  V62  1  0.47951572  0.66491371  0.12378762  1
  V  V63  1  0.25049157  0.88625523  0.62223087  1
  V  V64  1  0.62820430  0.86400848  0.72007293  1
  V  V65  1  0.25808097  0.12875491  0.37023162  1
  V  V66  1  0.33872091  0.51477629  0.85877780  1
  V  V67  1  -0.00222599  0.50182223  0.49688839  1
  V  V68  1  0.24796591  0.01704629  0.74849081  1
  V  V69  1  0.11721207  0.86738072  0.75702303  1
  V  V70  1  -0.00704670  -0.00088302  -0.01821257  1
  V  V71  1  0.36876526  0.51047754  0.36739377  1
  V  V72  1  0.74501869  0.25230936  0.50254899  1
  Zn  Zn73  1  0.17647885  0.64967816  0.02607852  1
  Zn  Zn74  1  0.74159243  0.74571661  0.50471969  1
  Zn  Zn75  1  0.51933682  0.86599795  0.35153349  1
  Zn  Zn76  1  0.32359470  0.76897087  0.10987440  1
  Zn  Zn77  1  0.38662690  0.39494384  0.50953413  1
  Zn  Zn78  1  0.63248957  0.12767935  -0.00086401  1
  Zn  Zn79  1  0.88141884  0.12792914  0.25923627  1
  Zn  Zn80  1  0.14326898  0.50285976  0.12436480  1
  Zn  Zn81  1  0.37134469  0.25203346  0.64690762  1
  Zn  Zn82  1  0.18796933  0.18989457  0.18491953  1
  Zn  Zn83  1  0.18543931  0.19587924  0.68627396  1
  Zn  Zn84  1  0.16645207  0.69539389  0.18477438  1
  Zn  Zn85  1  0.18404578  0.70098328  0.67806522  1
  Zn  Zn86  1  0.68573779  0.17906535  0.18731097  1
  Zn  Zn87  1  0.68454831  0.18689343  0.69646321  1
  Zn  Zn88  1  0.70227274  0.68699101  0.19894993  1
  Zn  Zn89  1  0.69540484  0.68022224  0.69247558  1
  Zn  Zn90  1  0.32261603  0.32169358  0.31613715  1
  Zn  Zn91  1  0.31946983  0.32758429  0.82523384  1
  Zn  Zn92  1  0.30782364  0.81823257  0.31282196  1
  Zn  Zn93  1  0.31796884  0.82889283  0.80427847  1
  Zn  Zn94  1  0.81820923  0.30882675  0.31769096  1
  Zn  Zn95  1  0.80764952  0.31010029  0.81160423  1
  Zn  Zn96  1  0.79587799  0.81520322  0.32088196  1
  Zn  Zn97  1  0.83789927  0.84946280  0.77568021  1
  Zn  Zn98  1  0.19211868  0.44392961  0.43614391  1
  Zn  Zn99  1  0.20575235  0.46289869  0.96183846  1
  Zn  Zn100  1  0.18952277  0.93718403  0.43399236  1
  Zn  Zn101  1  0.18715164  0.94321149  0.92650370  1
  Zn  Zn102  1  0.61760996  0.51092916  0.35842008  1
  Zn  Zn103  1  0.69452184  0.43896822  0.95176331  1
  Zn  Zn104  1  0.68169698  0.92979167  0.44692945  1
  Zn  Zn105  1  0.69447748  0.93948244  0.93595535  1
  Zn  Zn106  1  0.31491928  0.05996051  0.05421336  1
  Zn  Zn107  1  0.31818442  0.07009256  0.56151042  1
  Zn  Zn108  1  0.33739646  0.58700798  0.03300850  1
  Zn  Zn109  1  0.32373706  0.57354830  0.55005485  1
  Zn  Zn110  1  0.81396658  0.06061313  0.05865519  1
  Zn  Zn111  1  0.81897694  0.06576895  0.56063239  1
  Zn  Zn112  1  0.81379456  0.54846644  0.07836598  1
  Zn  Zn113  1  0.80190100  0.57745080  0.57007054  1
  Zn  Zn114  1  0.37715547  0.44943956  0.15127619  1
  Zn  Zn115  1  0.42744079  0.45053520  0.70169190  1
  Zn  Zn116  1  0.42702646  0.93082277  0.17428091  1
  Zn  Zn117  1  0.43971578  0.93085896  0.68460016  1
  Zn  Zn118  1  0.93617603  0.43033200  0.19138235  1
  Zn  Zn119  1  0.93644989  0.44605104  0.68764799  1
  Zn  Zn120  1  0.93707005  0.94304150  0.18771383  1
  Zn  Zn121  1  0.94106776  0.94700594  0.68660269  1
  Zn  Zn122  1  0.06783862  0.06317055  0.31462957  1
  Zn  Zn123  1  0.06496604  0.06426490  0.80441607  1
  Zn  Zn124  1  0.06130213  0.56193673  0.30988896  1
  Zn  Zn125  1  0.04834823  0.56600462  0.81652777  1
  Zn  Zn126  1  0.56686705  0.05669829  0.31798203  1
  Zn  Zn127  1  0.57928217  0.05648673  0.81292959  1
  Zn  Zn128  1  0.49915690  0.50667826  0.24619981  1
  Zn  Zn129  1  0.58830411  0.52592820  0.84355213  1
  Zn  Zn130  1  0.43889604  0.18652956  0.43877072  1
  Zn  Zn131  1  0.44544372  0.19303009  0.93350832  1
  Zn  Zn132  1  0.45704263  0.68622302  0.31106119  1
  Zn  Zn133  1  0.46035246  0.67226863  0.93409940  1
  Zn  Zn134  1  0.93804927  0.19264758  0.44032770  1
  Zn  Zn135  1  0.94083622  0.18645377  0.93852442  1
  Zn  Zn136  1  0.93678455  0.69229757  0.43990396  1
  Zn  Zn137  1  0.86209688  0.66298949  0.96267351  1
  Zn  Zn138  1  0.06704703  0.31314160  0.06421528  1
  Zn  Zn139  1  0.06719116  0.31361896  0.55963439  1
  Zn  Zn140  1  0.05063017  0.81074441  0.05593613  1
  Zn  Zn141  1  0.06437645  0.82616989  0.56620783  1
  Zn  Zn142  1  0.56091166  0.29991414  0.06804726  1
  Zn  Zn143  1  0.56351628  0.30957726  0.57241011  1
  Zn  Zn144  1  0.57299687  0.81944321  0.04096821  1
  Zn  Zn145  1  0.55085703  0.79440999  0.54453797  1
  O  O146  1  0.11706971  0.11973067  0.11525410  1
  O  O147  1  0.11900945  0.13670019  0.60933828  1
  O  O148  1  0.10007594  0.61431079  0.13038621  1
  O  O149  1  0.11919374  0.62271795  0.61885156  1
  O  O150  1  0.61142646  0.11507280  0.12049658  1
  O  O151  1  0.61030771  0.13154468  0.61765224  1
  O  O152  1  0.64648217  0.60304926  0.13971755  1
  O  O153  1  0.56926608  0.63320640  0.65583527  1
  O  O154  1  0.38989231  0.38347806  0.38399211  1
  O  O155  1  0.36106940  0.41775021  0.88309328  1
  O  O156  1  0.36398949  0.89275763  0.38283906  1
  O  O157  1  0.39067118  0.88795938  0.87304668  1
  O  O158  1  0.88746213  0.36668275  0.39041875  1
  O  O159  1  0.88183787  0.35771942  0.89151595  1
  O  O160  1  0.87915579  0.88449142  0.38171712  1
  O  O161  1  0.86534613  0.86833569  0.88633947  1
  O  O162  1  0.25339140  0.00948533  0.36693321  1
  O  O163  1  0.26556950  0.00496884  0.85914933  1
  O  O164  1  0.26685024  0.49881659  0.37118475  1
  O  O165  1  0.23569560  0.51412663  0.86539594  1
  O  O166  1  0.75788727  0.00884804  0.37023063  1
  O  O167  1  0.74937055  0.01186531  0.86613550  1
  O  O168  1  0.72592278  0.50155661  0.42433296  1
  O  O169  1  0.76521205  0.49142693  0.87590518  1
  O  O170  1  0.26822251  0.57376662  0.21519422  1
  O  O171  1  0.23633747  0.49663539  0.61703699  1
  O  O172  1  0.23540642  1.00852449  0.12896284  1
  O  O173  1  0.26317739  0.99377875  0.63161517  1
  O  O174  1  0.74356751  0.47004482  0.12648622  1
  O  O175  1  0.74957751  0.48816344  0.62115152  1
  O  O176  1  0.74468477  1.00291147  0.13314776  1
  O  O177  1  0.74956571  1.01218720  0.63121697  1
  O  O178  1  0.00981254  0.37783531  0.26526717  1
  O  O179  1  0.00636666  0.37153045  0.75723910  1
  O  O180  1  0.00512387  0.87181058  0.25586028  1
  O  O181  1  0.01932622  0.88959667  0.74077010  1
  O  O182  1  0.51172307  0.35927277  0.25236527  1
  O  O183  1  0.50791471  0.38130716  0.75077354  1
  O  O184  1  0.45534367  0.84883983  0.25100095  1
  O  O185  1  0.51723997  0.88170676  0.75732190  1
  O  O186  1  0.50044734  0.11206312  0.23933058  1
  O  O187  1  0.50517561  0.11127195  0.73683697  1
  O  O188  1  0.49759556  0.62424807  0.21925127  1
  O  O189  1  0.52394369  0.58031112  0.68778940  1
  O  O190  1  1.00466498  0.11986072  0.23517761  1
  O  O191  1  1.01420207  0.14045633  0.73233073  1
  O  O192  1  0.99103920  0.63212101  0.24673971  1
  O  O193  1  0.99428088  0.62604430  0.73492598  1
  O  O194  1  0.35882260  0.24587616  -0.01138246  1
  O  O195  1  0.36100663  0.25354277  0.50035321  1
  O  O196  1  0.37860684  0.76485729  -0.01899378  1
  O  O197  1  0.35686635  0.75055460  0.48811353  1
  O  O198  1  0.88659670  0.25709060  0.01691170  1
  O  O199  1  0.87013965  0.25919150  0.51066631  1
  O  O200  1  0.89116997  0.76658939  0.00094147  1
  O  O201  1  0.86945681  0.76513954  0.49529713  1
  O  O202  1  0.13823247  0.24964176  0.48991405  1
  O  O203  1  0.13510699  0.24455632  0.99539632  1
  O  O204  1  0.12369169  0.74853950  0.49174471  1
  O  O205  1  0.10724377  0.73494861  0.98105185  1
  O  O206  1  0.63890919  0.24176824  0.50853415  1
  O  O207  1  0.61725897  0.24419959  0.98399513  1
  O  O208  1  0.62860072  0.75337030  0.47924945  1
  O  O209  1  0.63992566  0.72860792  0.98650336  1
  O  O210  1  0.48823418  0.22694134  0.12415681  1
  O  O211  1  0.49975672  0.24497353  0.64693894  1
  O  O212  1  0.51427301  0.75932435  0.11718727  1
  O  O213  1  0.47271908  0.75342745  0.61234761  1
  O  O214  1  1.00029592  0.23388259  0.12123268  1
  O  O215  1  0.99678206  0.25220704  0.63123660  1
  O  O216  1  0.99977530  0.73549565  0.13309673  1
  O  O217  1  1.00588197  0.74138137  0.61894297  1
  O  O218  1  0.01412509  0.26118251  0.38426057  1
  O  O219  1  0.00791143  0.25828112  0.86777492  1
  O  O220  1  0.00546480  0.76264777  0.36862259  1
  O  O221  1  0.07246888  0.70484470  0.91055975  1
  O  O222  1  0.49469290  0.26517951  0.37834011  1
  O  O223  1  0.51267374  0.25488191  0.86480086  1
  O  O224  1  0.51945182  0.75282482  0.37637803  1
  O  O225  1  0.49522032  0.76690451  0.87445507  1
  O  O226  1  0.24156057  0.13466088  0.49376550  1
  O  O227  1  0.23592304  0.12531438  0.99659636  1
  O  O228  1  0.23552220  0.64412882  0.50245886  1
  O  O229  1  0.22910026  0.54918256  1.04680809  1
  O  O230  1  0.74372609  0.13151376  0.49800178  1
  O  O231  1  0.75096596  0.11892191  0.98458973  1
  O  O232  1  0.75551906  0.56745998  0.44634910  1
  O  O233  1  0.77262737  0.61452099  1.00133007  1
  O  O234  1  0.24577697  0.36327671  0.00980155  1
  O  O235  1  0.24774561  0.37219546  0.51195680  1
  O  O236  1  0.26506317  0.87485773  -0.02791686  1
  O  O237  1  0.24373394  0.86995222  0.51011934  1
  O  O238  1  0.76441664  0.36502130  0.01119293  1
  O  O239  1  0.76245889  0.36472163  0.51769358  1
  O  O240  1  0.76712566  0.88369942  0.00976864  1
  O  O241  1  0.76224091  0.87633683  0.50767814  1
  O  O242  1  0.12814990  0.48934454  0.24854530  1
  O  O243  1  0.11332228  0.49454843  0.74282041  1
  O  O244  1  0.12961018  0.99387989  0.24071373  1
  O  O245  1  0.14462105  0.99879422  0.75274532  1
  O  O246  1  0.62672678  0.47440546  0.24115399  1
  O  O247  1  0.65820056  0.51493086  0.76125496  1
  O  O248  1  0.63568647  1.00330369  0.23827803  1
  O  O249  1  0.63847210  0.98359817  0.74672441  1
  O  O250  1  0.35820369  -0.00714965  0.25277691  1
  O  O251  1  0.36915039  -0.00357926  0.75585921  1
  O  O252  1  0.38346595  0.48240509  0.25709847  1
  O  O253  1  0.36913604  0.52626149  0.76276334  1
  O  O254  1  0.86738969  0.00629391  0.26051788  1
  O  O255  1  0.85110724  -0.02894039  0.75010888  1
  O  O256  1  0.87703043  0.49435846  0.26475983  1
  O  O257  1  0.87021633  0.51747552  0.74665543  1
  O  O258  1  0.12334047  0.37201275  0.36773498  1
  O  O259  1  0.11470667  0.36869554  0.86851222  1
  O  O260  1  0.11525248  0.87384017  0.36659293  1
  O  O261  1  0.12816404  0.87707048  0.85781701  1
  O  O262  1  0.61419252  0.37868190  0.36511877  1
  O  O263  1  0.64315469  0.36026955  0.88108035  1
  O  O264  1  0.63021703  0.88061713  0.36249889  1
  O  O265  1  0.61350858  0.87455549  0.88350558  1
  O  O266  1  0.38673371  0.12124954  0.12293385  1
  O  O267  1  0.39123308  0.13716713  0.62190146  1
  O  O268  1  0.37401505  0.66500892  0.11562015  1
  O  O269  1  0.35269172  0.64488195  0.63025365  1
  O  O270  1  0.89080141  0.12605692  0.12312303  1
  O  O271  1  0.89442696  0.14003221  0.61288288  1
  O  O272  1  0.88815209  0.60869900  0.14911711  1
  O  O273  1  0.89451833  0.62564452  0.62299652  1
  O  O274  1  0.26441033  0.23269731  0.11003622  1
  O  O275  1  0.25230636  0.26384675  0.61959782  1
  O  O276  1  0.21759483  0.73573056  0.09521218  1
  O  O277  1  0.25649367  0.76319719  0.61165450  1
  O  O278  1  0.76132505  0.25058569  0.12734724  1
  O  O279  1  0.76171859  0.25236611  0.62543681  1
  O  O280  1  0.75256436  0.76733560  0.12788517  1
  O  O281  1  0.73642700  0.66929014  0.58784245  1
  O  O282  1  0.24576019  0.24628972  0.38096307  1
  O  O283  1  0.23935930  0.26206555  0.88509374  1
  O  O284  1  0.23442539  0.76313079  0.38419358  1
  O  O285  1  0.25007681  0.72207189  0.84558290  1
  O  O286  1  0.76022931  0.23922369  0.39075636  1
  O  O287  1  0.73761288  0.23517275  0.86017875  1
  O  O288  1  0.74016223  0.74393587  0.38499316  1
  O  O289  1  0.64046492  0.69992015  0.91334043  1
  O  O290  1  0.00997262  0.11517523  0.00560806  1
  O  O291  1  0.01596660  0.13540287  0.50662258  1
  O  O292  1  -0.02265295  0.60629381  0.01793990  1
  O  O293  1  0.00894323  0.62168936  0.50894478  1
  O  O294  1  0.49814109  0.11104585  0.00350753  1
  O  O295  1  0.50922691  0.12482854  0.50526949  1
  O  O296  1  0.50334549  0.61727609  0.03583449  1
  O  O297  1  0.58996185  0.59998435  0.52024190  1
  O  O298  1  0.50625796  0.37319295  0.49604427  1
  O  O299  1  0.50331653  0.37702318  1.00804698  1
  O  O300  1  0.49723321  0.89260511  0.50051620  1
  O  O301  1  0.49351684  0.88725271  0.98535070  1
  O  O302  1  0.99724496  0.38318678  0.49592873  1
  O  O303  1  0.99319549  0.37500750  0.99657738  1
  O  O304  1  0.99523378  0.87462049  0.48608350  1
  O  O305  1  0.99126391  0.88998853  0.99791701  1
  O  O306  1  0.50052156  0.48203988  0.36357241  1
  O  O307  1  0.50647762  0.50612319  0.91330054  1
  O  O308  1  0.49099976  0.99538310  0.38011397  1
  O  O309  1  0.49518051  0.99589572  0.87625913  1
  O  O310  1  1.01135127  0.49068453  0.39002223  1
  O  O311  1  0.99633221  0.48648903  0.88753638  1
  O  O312  1  0.99054241  0.99433088  0.36653152  1
  O  O313  1  1.00290076  1.00844357  0.88325776  1
  O  O314  1  0.01057259  0.01019105  0.11693301  1
  O  O315  1  0.00109703  0.02343370  0.62413191  1
  O  O316  1  -0.00143121  0.49857184  0.12061512  1
  O  O317  1  0.01368467  0.50563258  0.61479361  1
  O  O318  1  0.50437516  0.00122006  0.11810637  1
  O  O319  1  0.48810120  0.01175234  0.61063068  1
  O  O320  1  0.52715641  0.48609157  0.12911985  1
  O  O321  1  0.49533647  0.52320568  0.63600195  1
  O  O322  1  0.24197366  0.37572289  0.25167317  1
  O  O323  1  0.23811604  0.37250437  0.74156544  1
  O  O324  1  0.23211275  0.88424844  0.25121499  1
  O  O325  1  0.24160312  0.88543416  0.73860589  1
  O  O326  1  0.74897358  0.36448267  0.24472464  1
  O  O327  1  0.76775094  0.39237284  0.74019471  1
  O  O328  1  0.76136387  0.88863483  0.23457388  1
  O  O329  1  0.73475721  0.88201932  0.73660276  1
  O  O330  1  0.23659461  0.11463154  0.25996947  1
  O  O331  1  0.24961994  0.11669337  0.73732372  1
  O  O332  1  0.24997692  0.63558694  0.25414741  1
  O  O333  1  0.24319912  0.66880257  0.79284595  1
  O  O334  1  0.75274338  0.11707416  0.26165826  1
  O  O335  1  0.74657931  0.10962495  0.75593124  1
  O  O336  1  0.77473139  0.61979315  0.25565275  1
  O  O337  1  0.76998429  0.61832831  0.75992106  1
  O  O338  1  0.36175970  0.12028797  0.37645210  1
  O  O339  1  0.38738052  0.11268021  0.86991794  1
  O  O340  1  0.38528170  0.60966138  0.35766034  1
  O  O341  1  0.37012904  0.59922470  0.92018334  1
  O  O342  1  0.86910729  0.11994328  0.38069487  1
  O  O343  1  0.86205804  0.13652882  0.87299153  1
  O  O344  1  0.89187250  0.61835366  0.36807641  1
  O  O345  1  0.90157345  0.63824415  0.85967459  1
  O  O346  1  0.12504243  0.37693598  0.14086993  1
  O  O347  1  0.13018312  0.38453763  0.63350916  1
  O  O348  1  0.11123128  0.88333239  0.13147059  1
  O  O349  1  0.14227485  0.87844661  0.63161385  1
  O  O350  1  0.63940493  0.35641347  0.13677003  1
  O  O351  1  0.64487783  0.36927029  0.62953451  1
  O  O352  1  0.64396993  0.88696059  0.10999199  1
  O  O353  1  0.61382055  0.86651629  0.62212234  1
  O  O354  1  0.13251358  0.26062174  0.26146131  1
  O  O355  1  0.11849689  0.26318839  0.75606798  1
  O  O356  1  0.11158655  0.76016370  0.25994038  1
  O  O357  1  0.12220997  0.76590465  0.74552122  1
  O  O358  1  0.62992022  0.25224462  0.25604507  1
  O  O359  1  0.61132095  0.25093143  0.76067711  1
  O  O360  1  0.63752748  0.75159246  0.26519377  1
  O  O361  1  0.63661750  0.76414467  0.74109877  1
  O  O362  1  0.36163109  0.23844596  0.24402121  1
  O  O363  1  0.39485132  0.26644247  0.76219078  1
  O  O364  1  0.39770381  0.78140174  0.24901531  1
  O  O365  1  0.37897955  0.75229690  0.74488786  1
  O  O366  1  0.87877019  0.24448746  0.23897945  1
  O  O367  1  0.88886197  0.25778421  0.74126855  1
  O  O368  1  0.88352011  0.75749685  0.25891466  1
  O  O369  1  0.86674084  0.74220014  0.74548330  1
  O  O370  1  0.37977870  0.50675673  0.48119926  1
  O  O371  1  0.39995666  0.49077865  1.04876077  1
  O  O372  1  0.38843706  1.01365650  0.48796579  1
  O  O373  1  0.38037404  0.99422294  0.98196545  1
  O  O374  1  0.88732307  0.49129060  0.51186318  1
  O  O375  1  0.88488687  0.47109058  1.01327503  1
  O  O376  1  0.87216086  0.99196964  0.48820608  1
  O  O377  1  0.89060047  0.99804393  0.99726039  1
  O  O378  1  0.11841742  0.00447657  0.00152237  1
  O  O379  1  0.13014883  0.01838607  0.49415201  1
  O  O380  1  0.09878017  0.48661436  0.00498173  1
  O  O381  1  0.12116694  0.51202541  0.50563777  1
  O  O382  1  0.61654711  0.00146055  0.00748128  1
  O  O383  1  0.60813330  0.01076168  0.49691675  1
  O  O384  1  0.62137849  0.48837069  0.02331110  1
  O  O385  1  0.58668895  0.52858865  0.50731524  1
  O  O386  1  0.38055225  0.33977888  0.12678561  1
  O  O387  1  0.36400876  0.38276204  0.62749943  1
  O  O388  1  0.36632550  0.87529510  0.09510997  1
  O  O389  1  0.35823709  0.86451458  0.63134168  1
  O  O390  1  0.86725192  0.36125407  0.12495923  1
  O  O391  1  0.87531013  0.36804104  0.61883434  1
  O  O392  1  0.86861704  0.88280556  0.11550010  1
  O  O393  1  0.89026779  0.88065029  0.60607709  1
  O  O394  1  0.13157805  0.13417910  0.38398763  1
  O  O395  1  0.11672066  0.14168386  0.88006734  1
  O  O396  1  0.11403209  0.63964478  0.38346627  1
  O  O397  1  0.10764057  0.63392289  0.89495973  1
  O  O398  1  0.63745485  0.12048075  0.38736766  1
  O  O399  1  0.63594280  0.13212531  0.87692776  1
  O  O400  1  0.62122751  0.62580071  0.36237985  1
  O  O401  1  0.58452416  0.64284887  0.89753126  1
