# generated using pymatgen
data_V73Zn73O256
_symmetry_space_group_name_H-M   'P 1'
_cell_length_a   16.87555273
_cell_length_b   16.91402777
_cell_length_c   16.91573496
_cell_angle_alpha   89.96330579
_cell_angle_beta   89.85461409
_cell_angle_gamma   89.96008188
_symmetry_Int_Tables_number   1
_chemical_formula_structural   V73Zn73O256
_chemical_formula_sum   'V73 Zn73 O256'
_cell_volume   4828.30087305
_cell_formula_units_Z   1
loop_
 _symmetry_equiv_pos_site_id
 _symmetry_equiv_pos_as_xyz
  1  'x, y, z'
loop_
 _atom_site_type_symbol
 _atom_site_label
 _atom_site_symmetry_multiplicity
 _atom_site_fract_x
 _atom_site_fract_y
 _atom_site_fract_z
 _atom_site_occupancy
  V  V0  1  0.12435619  0.00002369  0.62868640  1
  V  V1  1  0.88623689  0.73345901  0.62325872  1
  V  V2  1  0.25829469  0.87124577  0.13291032  1
  V  V3  1  0.36140764  0.87166290  -0.01806141  1
  V  V4  1  0.36775081  0.37126565  0.50686500  1
  V  V5  1  0.01264381  0.12818606  0.12270871  1
  V  V6  1  0.36190437  0.11573325  0.27602768  1
  V  V7  1  0.62178102  0.75304847  0.37423326  1
  V  V8  1  0.75425045  0.13156998  0.38296099  1
  V  V9  1  0.88613103  0.50221794  0.36660230  1
  V  V10  1  0.50048916  0.75254391  0.24327904  1
  V  V11  1  0.11982596  0.86185537  0.74482300  1
  V  V12  1  0.35912810  0.50346459  0.37840144  1
  V  V13  1  0.14786884  0.50209679  0.62808586  1
  V  V14  1  0.62449267  0.52246255  0.13066690  1
  V  V15  1  0.87066414  0.87662262  0.50829199  1
  V  V16  1  0.62819176  0.50974430  0.62385721  1
  V  V17  1  0.87021480  0.25287009  0.62112308  1
  V  V18  1  0.75266371  0.14629850  0.87644290  1
  V  V19  1  0.49120674  0.25460454  0.73643132  1
  V  V20  1  0.37216744  0.12417423  0.74956456  1
  V  V21  1  0.00341518  0.25443447  0.75565247  1
  V  V22  1  -0.00353700  0.25817513  0.25230828  1
  V  V23  1  0.87900746  0.36901131  0.48679527  1
  V  V24  1  0.62649270  0.12370773  0.50199532  1
  V  V25  1  0.87180513  0.88079489  0.00541106  1
  V  V26  1  0.23134735  0.13828482  0.87613813  1
  V  V27  1  0.49395715  0.11104404  0.61992603  1
  V  V28  1  0.48014861  0.12534184  0.11636322  1
  V  V29  1  0.75283990  0.48366612  0.24566542  1
  V  V30  1  0.13083948  -0.01121901  0.13508418  1
  V  V31  1  0.64426489  -0.00654743  0.63377578  1
  V  V32  1  0.82307445  -0.04111986  0.81941580  1
  V  V33  1  0.62477318  0.00918069  0.12205264  1
  V  V34  1  0.13349713  0.24299063  0.37460225  1
  V  V35  1  0.62775507  0.37334357  0.73759354  1
  V  V36  1  0.50540933  0.49914064  0.49239115  1
  V  V37  1  0.62971033  0.62305880  0.48884050  1
  V  V38  1  0.38660745  0.39362282  -0.00631459  1
  V  V39  1  0.35667694  0.62123419  0.74889496  1
  V  V40  1  0.24655748  0.24544332  0.50892509  1
  V  V41  1  0.61802527  0.89251221  0.25962408  1
  V  V42  1  0.00843647  0.00317866  0.50006735  1
  V  V43  1  0.61236405  0.25594509  0.87446306  1
  V  V44  1  0.74786624  0.88465837  0.13225961  1
  V  V45  1  0.87027469  0.00090544  0.37537546  1
  V  V46  1  0.87101967  0.75566870  0.12401947  1
  V  V47  1  0.38397232  0.62657627  0.24453958  1
  V  V48  1  0.24559603  -0.00509762  0.75578469  1
  V  V49  1  0.52605025  0.88478041  0.87501769  1
  V  V50  1  0.62269124  0.25416568  0.37149126  1
  V  V51  1  0.26006089  0.25797997  0.01640797  1
  V  V52  1  0.53081093  0.74563114  0.74225977  1
  V  V53  1  0.00976877  0.87873433  0.37421076  1
  V  V54  1  0.75153585  0.74917345  0.49811915  1
  V  V55  1  0.37392031  0.75658081  0.62361307  1
  V  V56  1  0.64339260  0.73625459  0.91955258  1
  V  V57  1  0.25471029  0.50776405  0.22409980  1
  V  V58  1  -0.00277828  0.86481108  0.87525705  1
  V  V59  1  0.87039351  0.12093926  0.24163972  1
  V  V60  1  0.13623709  0.37965871  0.75041189  1
  V  V61  1  0.00421445  0.12944465  0.62117862  1
  V  V62  1  0.62229101  0.12694900  -0.00251041  1
  V  V63  1  0.00189465  0.49604894  0.00581461  1
  V  V64  1  0.86194391  0.63852758  0.25528428  1
  V  V65  1  0.12898318  0.73618440  0.88757950  1
  V  V66  1  0.14764746  0.38139327  0.24801774  1
  V  V67  1  0.87299648  0.13392174  0.75504805  1
  V  V68  1  -0.01799015  0.37378527  0.88183452  1
  V  V69  1  0.01277912  0.76167212  0.25479703  1
  V  V70  1  0.01480577  0.62491864  0.13310424  1
  V  V71  1  0.00569906  0.00221675  -0.00507620  1
  V  V72  1  0.00037241  0.50443594  0.51807555  1
  Zn  Zn73  1  0.40221804  0.50853335  0.86921710  1
  Zn  Zn74  1  0.50004135  0.37431585  0.36646724  1
  Zn  Zn75  1  0.75243698  0.37358228  0.61869411  1
  Zn  Zn76  1  0.38267148  0.00161252  0.87588029  1
  Zn  Zn77  1  0.25888943  0.74024551  0.50120317  1
  Zn  Zn78  1  0.13568388  0.62313572  0.48973478  1
  Zn  Zn79  1  0.37589796  0.73706663  0.10332740  1
  Zn  Zn80  1  0.48856230  0.25240401  0.23855757  1
  Zn  Zn81  1  0.76117937  0.57678551  0.88166230  1
  Zn  Zn82  1  0.19367151  0.18281922  0.19341283  1
  Zn  Zn83  1  0.18637440  0.19132062  0.69206211  1
  Zn  Zn84  1  0.19581999  0.69252701  0.18831930  1
  Zn  Zn85  1  0.18880446  0.68433346  0.67725381  1
  Zn  Zn86  1  0.69355762  0.20159530  0.17879355  1
  Zn  Zn87  1  0.68601734  0.18425582  0.68635205  1
  Zn  Zn88  1  0.68325492  0.69944538  0.18091288  1
  Zn  Zn89  1  0.72816917  0.68683332  0.70327184  1
  Zn  Zn90  1  0.31952075  0.30959305  0.31308256  1
  Zn  Zn91  1  0.32104508  0.31883933  0.81977716  1
  Zn  Zn92  1  0.30781561  0.80518556  0.30676349  1
  Zn  Zn93  1  0.30545246  0.79900727  0.80636688  1
  Zn  Zn94  1  0.81580102  0.30804681  0.31043199  1
  Zn  Zn95  1  0.76920896  0.38311671  0.86074709  1
  Zn  Zn96  1  0.80780733  0.82041889  0.31567784  1
  Zn  Zn97  1  0.80974098  0.79385895  0.81016301  1
  Zn  Zn98  1  0.17798791  0.42782114  0.43528808  1
  Zn  Zn99  1  0.16998138  0.39697940  0.95868157  1
  Zn  Zn100  1  0.14531306  0.74956903  0.37929694  1
  Zn  Zn101  1  0.18186431  0.93344326  0.93559850  1
  Zn  Zn102  1  0.69912058  0.43775196  0.43107976  1
  Zn  Zn103  1  0.59962151  0.45172365  0.93775455  1
  Zn  Zn104  1  0.68800473  0.94166412  0.44470718  1
  Zn  Zn105  1  0.69401157  0.94790755  0.94589380  1
  Zn  Zn106  1  0.30341784  0.05526631  0.04640174  1
  Zn  Zn107  1  0.29889655  0.07171554  0.56828762  1
  Zn  Zn108  1  0.45054278  0.55689444  0.06046738  1
  Zn  Zn109  1  0.32024984  0.57211186  0.56696705  1
  Zn  Zn110  1  0.81070068  0.06352122  0.05699743  1
  Zn  Zn111  1  0.81700867  0.06644152  0.56234126  1
  Zn  Zn112  1  0.82708757  0.54982347  0.06320280  1
  Zn  Zn113  1  0.80866360  0.55790009  0.55472102  1
  Zn  Zn114  1  0.44205067  0.43172694  0.18847046  1
  Zn  Zn115  1  0.44003134  0.44621757  0.68039822  1
  Zn  Zn116  1  0.43561969  0.94369587  0.18142065  1
  Zn  Zn117  1  0.44442981  0.93083758  0.69983458  1
  Zn  Zn118  1  0.93891011  0.44794636  0.18012763  1
  Zn  Zn119  1  0.93723062  0.43390802  0.68935582  1
  Zn  Zn120  1  0.94097461  0.94402282  0.18698951  1
  Zn  Zn121  1  0.94148996  0.93336502  0.68417919  1
  Zn  Zn122  1  0.06472380  0.06337383  0.31136848  1
  Zn  Zn123  1  0.05733510  0.06034644  0.81220233  1
  Zn  Zn124  1  0.06849660  0.56811085  0.30696907  1
  Zn  Zn125  1  0.09256844  0.53254858  0.84086852  1
  Zn  Zn126  1  0.57812941  0.09790033  0.28892702  1
  Zn  Zn127  1  0.56743687  0.06587985  0.80611996  1
  Zn  Zn128  1  0.56578056  0.56442674  0.31039233  1
  Zn  Zn129  1  0.60719978  0.58161402  0.81143197  1
  Zn  Zn130  1  0.43489501  0.18581989  0.43808120  1
  Zn  Zn131  1  0.43366122  0.18714845  0.93280420  1
  Zn  Zn132  1  0.44191742  0.68641700  0.43592717  1
  Zn  Zn133  1  0.44724294  0.69366733  0.91723348  1
  Zn  Zn134  1  0.94571428  0.18769062  0.43216468  1
  Zn  Zn135  1  0.93593619  0.19729630  0.94593071  1
  Zn  Zn136  1  0.94382433  0.68660393  0.43666357  1
  Zn  Zn137  1  0.92388607  0.67313702  0.94582449  1
  Zn  Zn138  1  0.07035491  0.31026689  0.06639031  1
  Zn  Zn139  1  0.06336082  0.32043621  0.56173315  1
  Zn  Zn140  1  0.06372604  0.81248233  0.06230092  1
  Zn  Zn141  1  0.06281108  0.80929855  0.55846492  1
  Zn  Zn142  1  0.52405752  0.31013788  0.04925259  1
  Zn  Zn143  1  0.55594903  0.30835701  0.55498633  1
  Zn  Zn144  1  0.55232625  0.82834332  0.06299572  1
  Zn  Zn145  1  0.59626041  0.79080935  0.59592457  1
  O  O146  1  0.11677330  0.11359322  0.12794402  1
  O  O147  1  0.11068603  0.11731866  0.63667468  1
  O  O148  1  0.11115945  0.65044687  0.12574700  1
  O  O149  1  0.12961967  0.60443516  0.61877678  1
  O  O150  1  0.63025980  0.12510296  0.11438988  1
  O  O151  1  0.61599720  0.11774589  0.62059913  1
  O  O152  1  0.63015041  0.62250709  0.11920156  1
  O  O153  1  0.62699738  0.60980652  0.61309480  1
  O  O154  1  0.37512810  0.39183522  0.37930290  1
  O  O155  1  0.37357585  0.39537706  0.87968139  1
  O  O156  1  0.28845386  0.96503318  0.36482451  1
  O  O157  1  0.36523949  0.87207389  0.87697972  1
  O  O158  1  0.87845100  0.37816851  0.38240073  1
  O  O159  1  0.88210970  0.37516961  0.87590187  1
  O  O160  1  0.87916902  0.88682204  0.38250372  1
  O  O161  1  0.87524425  0.88381783  0.88036332  1
  O  O162  1  0.22717293  -0.00363498  0.38678401  1
  O  O163  1  0.24167857  0.01221695  0.86567192  1
  O  O164  1  0.25989613  0.50063840  0.38003093  1
  O  O165  1  0.22118252  0.53184143  0.91330769  1
  O  O166  1  0.76357875  0.01150192  0.38023930  1
  O  O167  1  0.75907768  0.01761560  0.87549711  1
  O  O168  1  0.76779591  0.49577459  0.35661416  1
  O  O169  1  0.71049621  0.47148635  0.89551426  1
  O  O170  1  0.25463264  0.50192888  0.12939621  1
  O  O171  1  0.24583305  0.49359924  0.61933063  1
  O  O172  1  0.23626642  0.99232613  0.11628207  1
  O  O173  1  0.23296224  1.01004818  0.64051181  1
  O  O174  1  0.75068888  0.51273537  0.14255479  1
  O  O175  1  0.73277584  0.49324770  0.61650417  1
  O  O176  1  0.73923837  0.99703447  0.12452921  1
  O  O177  1  0.74495456  1.00580171  0.62412087  1
  O  O178  1  -0.02161432  0.35629584  0.23608979  1
  O  O179  1  0.00064424  0.37119051  0.76311776  1
  O  O180  1  -0.00824326  0.86815020  0.25767781  1
  O  O181  1  0.00938464  0.88007270  0.76171407  1
  O  O182  1  0.49934690  0.36328506  0.25437577  1
  O  O183  1  0.50032247  0.35791538  0.73385613  1
  O  O184  1  0.51290809  0.87507604  0.24678549  1
  O  O185  1  0.49700152  0.85383100  0.77210869  1
  O  O186  1  0.48691321  0.12776767  0.23040129  1
  O  O187  1  0.49134699  0.12958968  0.73784873  1
  O  O188  1  0.49794407  0.64066243  0.25498936  1
  O  O189  1  0.52170405  0.64697324  0.76412068  1
  O  O190  1  0.99546497  0.13175132  0.23870884  1
  O  O191  1  0.99276012  0.13472431  0.74630139  1
  O  O192  1  0.99354031  0.65027201  0.24773574  1
  O  O193  1  0.92378236  0.57502616  0.77408256  1
  O  O194  1  0.36695023  0.26252683  -0.01573448  1
  O  O195  1  0.36313295  0.26307187  0.49164495  1
  O  O196  1  0.38852434  0.76379022  -0.00803863  1
  O  O197  1  0.38776806  0.74267842  0.51924221  1
  O  O198  1  0.85990144  0.26911144  0.01116617  1
  O  O199  1  0.88963865  0.26329868  0.50283367  1
  O  O200  1  0.88555187  0.76825859  0.01561798  1
  O  O201  1  0.87148542  0.75612587  0.50210739  1
  O  O202  1  0.13332610  0.26506834  0.48534384  1
  O  O203  1  0.15541878  0.27891431  0.99580948  1
  O  O204  1  0.13197254  0.74469353  0.50036939  1
  O  O205  1  0.11766377  0.74648772  0.98733403  1
  O  O206  1  0.62221141  0.23447453  0.48898168  1
  O  O207  1  0.60921948  0.24634383  0.97832974  1
  O  O208  1  0.62942568  0.74325273  0.49483765  1
  O  O209  1  0.63348239  0.76309564  1.01603066  1
  O  O210  1  0.49862442  0.22909306  0.12045007  1
  O  O211  1  0.50231726  0.23396007  0.63253282  1
  O  O212  1  0.49340842  0.76314545  0.13904614  1
  O  O213  1  0.49707507  0.75078404  0.64183822  1
  O  O214  1  1.00945154  0.23462161  0.13303981  1
  O  O215  1  0.99618206  0.24502717  0.62869258  1
  O  O216  1  0.99142644  0.75654839  0.13991370  1
  O  O217  1  0.98545296  0.74902723  0.62337932  1
  O  O218  1  0.00967558  0.25014089  0.35821831  1
  O  O219  1  -0.00388830  0.26145852  0.86728741  1
  O  O220  1  -0.00671373  0.76248794  0.36325117  1
  O  O221  1  -0.01219200  0.76276149  0.88522451  1
  O  O222  1  0.51621209  0.24606254  0.37719799  1
  O  O223  1  0.50826576  0.23474094  0.85185969  1
  O  O224  1  0.51348799  0.75543487  0.36728198  1
  O  O225  1  0.54214106  0.75718023  0.87180917  1
  O  O226  1  0.25503888  0.14514798  0.49623903  1
  O  O227  1  0.25444691  0.14042371  0.98228934  1
  O  O228  1  0.25288767  0.62442551  0.49619105  1
  O  O229  1  0.22926989  0.58219282  0.96603688  1
  O  O230  1  0.74686175  0.12755068  0.49086872  1
  O  O231  1  0.73982389  0.12736711  0.98742948  1
  O  O232  1  0.73875906  0.63066943  0.49341160  1
  O  O233  1  0.83296262  0.60424940  0.96604741  1
  O  O234  1  0.27252582  0.36945704  0.00376295  1
  O  O235  1  0.26182575  0.37011305  0.49436368  1
  O  O236  1  0.25764340  0.87091012  0.00095771  1
  O  O237  1  0.29714745  0.91158368  0.51070302  1
  O  O238  1  0.62926480  0.32852950  0.11564283  1
  O  O239  1  0.77457656  0.38189712  0.50014350  1
  O  O240  1  0.76300952  0.88669898  0.01489119  1
  O  O241  1  0.76228808  0.86752222  0.49379607  1
  O  O242  1  0.14866696  0.49264997  0.25727266  1
  O  O243  1  0.12639660  0.49341281  0.73709129  1
  O  O244  1  0.11883581  0.99700231  0.23448342  1
  O  O245  1  0.12593672  0.99199167  0.74552514  1
  O  O246  1  0.64654745  0.50833074  0.24775454  1
  O  O247  1  0.60689659  0.48260436  0.73049916  1
  O  O248  1  0.62045114  0.99711261  0.24552680  1
  O  O249  1  0.63005598  1.00547029  0.73357578  1
  O  O250  1  0.38079038  0.01867264  0.24364245  1
  O  O251  1  0.36187758  0.00418429  0.75149197  1
  O  O252  1  0.36614418  0.50327949  0.25676264  1
  O  O253  1  0.39267898  0.51842108  0.74989961  1
  O  O254  1  0.88533995  0.01295823  0.26364412  1
  O  O255  1  0.88516439  0.01478631  0.75520843  1
  O  O256  1  0.86674411  0.51732599  0.24749229  1
  O  O257  1  0.87559512  0.51114318  0.75495063  1
  O  O258  1  0.12305228  0.36644777  0.35390114  1
  O  O259  1  0.11077616  0.40071911  0.85822942  1
  O  O260  1  0.10726540  0.87557748  0.37770242  1
  O  O261  1  0.11460671  0.85861847  0.86664737  1
  O  O262  1  0.63366137  0.35569445  0.37945514  1
  O  O263  1  0.60960565  0.36007849  0.85260105  1
  O  O264  1  0.62837484  0.87858267  0.36323868  1
  O  O265  1  0.62638509  0.88593915  0.87961449  1
  O  O266  1  0.38209351  0.11614665  0.10732708  1
  O  O267  1  0.38387275  0.11662338  0.63383095  1
  O  O268  1  0.38958026  0.62476830  0.13775458  1
  O  O269  1  0.38203483  0.63376812  0.64130131  1
  O  O270  1  0.88668091  0.10880865  0.13853153  1
  O  O271  1  0.88530989  0.13277306  0.63277015  1
  O  O272  1  0.88589933  0.63976000  0.13994796  1
  O  O273  1  0.87456723  0.63438032  0.60775340  1
  O  O274  1  0.25695232  0.23961754  0.11406373  1
  O  O275  1  0.23780217  0.25149643  0.60886385  1
  O  O276  1  0.25978313  0.76508944  0.12629790  1
  O  O277  1  0.26692233  0.75127183  0.62209958  1
  O  O278  1  0.76809684  0.26883999  0.11011131  1
  O  O279  1  0.76670915  0.24674796  0.62624174  1
  O  O280  1  0.76274308  0.76759917  0.12994971  1
  O  O281  1  0.75219522  0.74427300  0.60269232  1
  O  O282  1  0.23697611  0.25488569  0.37815026  1
  O  O283  1  0.24953675  0.23746698  0.86338135  1
  O  O284  1  0.25353667  0.78628230  0.39702270  1
  O  O285  1  0.22811535  0.74111145  0.87017322  1
  O  O286  1  0.74312559  0.23880806  0.36947284  1
  O  O287  1  0.72840975  0.25194032  0.87039642  1
  O  O288  1  0.73549418  0.75913024  0.38417395  1
  O  O289  1  0.73578139  0.76608164  0.88585955  1
  O  O290  1  -0.00884418  0.12094037  0.01563321  1
  O  O291  1  -0.00584446  0.11748520  0.51089416  1
  O  O292  1  -0.00503463  0.60508721  0.02346783  1
  O  O293  1  0.00532660  0.60371540  0.48796337  1
  O  O294  1  0.50993799  0.12699867  0.00427468  1
  O  O295  1  0.50319257  0.12588276  0.51540694  1
  O  O296  1  0.50920580  0.59910270  -0.03521367  1
  O  O297  1  0.51657969  0.61188369  0.49173990  1
  O  O298  1  0.48798299  0.37729291  0.48894830  1
  O  O299  1  0.49810733  0.38646184  0.97428865  1
  O  O300  1  0.47039160  0.89455161  0.45773696  1
  O  O301  1  0.49260362  0.87643530  0.97571213  1
  O  O302  1  0.98903296  0.39151074  0.50246188  1
  O  O303  1  1.00253859  0.36341831  0.98351801  1
  O  O304  1  0.99061438  0.88396618  0.49280076  1
  O  O305  1  0.99258005  0.88367407  0.99489439  1
  O  O306  1  0.50217568  0.49520810  0.38086823  1
  O  O307  1  0.51985984  0.53955419  0.90149137  1
  O  O308  1  0.45856094  0.94708058  0.40888667  1
  O  O309  1  0.50082584  0.98632584  0.85762250  1
  O  O310  1  0.98773218  0.49846836  0.35481581  1
  O  O311  1  0.99166777  0.49181435  0.89932654  1
  O  O312  1  0.99377177  0.99957428  0.38319236  1
  O  O313  1  1.00550940  0.98842383  0.88580765  1
  O  O314  1  0.01252769  0.00585387  0.11862428  1
  O  O315  1  0.00271711  0.00984050  0.62047487  1
  O  O316  1  0.02136502  0.53040079  0.16604569  1
  O  O317  1  -0.00678345  0.50829182  0.61765395  1
  O  O318  1  0.51504473  0.01459209  0.12372052  1
  O  O319  1  0.50389512  0.00955410  0.63185461  1
  O  O320  1  0.51750950  0.50974884  0.14262273  1
  O  O321  1  0.51733901  0.48815337  0.60174106  1
  O  O322  1  0.25250594  0.38454112  0.24482915  1
  O  O323  1  0.23401795  0.36771103  0.75583875  1
  O  O324  1  0.26540123  0.88108913  0.23203385  1
  O  O325  1  0.22993930  0.88302167  0.75850028  1
  O  O326  1  0.76673926  0.38426986  0.24014371  1
  O  O327  1  0.72934592  0.37208993  0.74616897  1
  O  O328  1  0.73514688  0.87777235  0.24172755  1
  O  O329  1  0.77071334  0.89905017  0.76189747  1
  O  O330  1  0.26044224  0.12092121  0.25878646  1
  O  O331  1  0.25360797  0.11994115  0.75619057  1
  O  O332  1  0.26374509  0.61570076  0.24161343  1
  O  O333  1  0.25645936  0.61863217  0.74711294  1
  O  O334  1  0.76726277  0.13062352  0.25173608  1
  O  O335  1  0.76351064  0.13456961  0.75970248  1
  O  O336  1  0.76225752  0.63915035  0.25012737  1
  O  O337  1  0.71627291  0.60494323  0.77583217  1
  O  O338  1  0.38019552  0.10906675  0.37642762  1
  O  O339  1  0.36900250  0.11994731  0.86019105  1
  O  O340  1  0.38460994  0.60870808  0.36305421  1
  O  O341  1  0.37741773  0.62717659  0.85537980  1
  O  O342  1  0.87210193  0.12066995  0.36968143  1
  O  O343  1  0.86707013  0.14321795  0.86808886  1
  O  O344  1  0.88021778  0.62135984  0.35951539  1
  O  O345  1  0.88854746  0.62488230  0.82213257  1
  O  O346  1  0.11337826  0.37282444  0.15371496  1
  O  O347  1  0.11528444  0.38908348  0.64011492  1
  O  O348  1  0.13885924  0.88064018  0.12239927  1
  O  O349  1  0.11156523  0.88485739  0.63873473  1
  O  O350  1  0.62356102  0.38050768  0.16956912  1
  O  O351  1  0.62756079  0.36961327  0.62786287  1
  O  O352  1  0.62882448  0.89064526  0.13344285  1
  O  O353  1  0.62342864  0.89723579  0.61079728  1
  O  O354  1  0.12069555  0.25793541  0.25638763  1
  O  O355  1  0.11209402  0.26638511  0.74294807  1
  O  O356  1  0.11455997  0.75633029  0.25366249  1
  O  O357  1  0.12447656  0.76128316  0.74318992  1
  O  O358  1  0.62226495  0.22768497  0.26630322  1
  O  O359  1  0.61308546  0.25492364  0.74800287  1
  O  O360  1  0.61911579  0.76516506  0.25517354  1
  O  O361  1  0.62977607  0.75786167  0.71905383  1
  O  O362  1  0.37702448  0.22686235  0.26305717  1
  O  O363  1  0.38468277  0.24160607  0.75103065  1
  O  O364  1  0.38529088  0.74114076  0.25567619  1
  O  O365  1  0.37854523  0.73555730  0.74360657  1
  O  O366  1  0.88818845  0.23251955  0.25457489  1
  O  O367  1  0.88915453  0.24534025  0.73687410  1
  O  O368  1  0.87670763  0.74936442  0.24769937  1
  O  O369  1  0.84878786  0.74131224  0.72175490  1
  O  O370  1  0.38335574  0.49595067  0.48925772  1
  O  O371  1  0.37840338  0.49800769  0.99240448  1
  O  O372  1  0.34372586  0.96890891  0.51831228  1
  O  O373  1  0.37089429  0.98066803  0.98907327  1
  O  O374  1  0.88672205  0.49530007  0.48744463  1
  O  O375  1  0.91759224  0.46681560  1.06723783  1
  O  O376  1  0.88414857  0.99539651  0.49524231  1
  O  O377  1  0.88876126  0.99140721  1.00767287  1
  O  O378  1  0.11288167  -0.00582381  0.00996999  1
  O  O379  1  0.11057269  -0.00454585  0.51541442  1
  O  O380  1  0.09843269  0.47505568  0.02222901  1
  O  O381  1  0.11315769  0.48827641  0.51331697  1
  O  O382  1  0.62645700  0.01537912  0.00846947  1
  O  O383  1  0.62847016  0.01628825  0.50843879  1
  O  O384  1  0.63748326  0.47675785  0.04335185  1
  O  O385  1  0.62608058  0.50311140  0.49843364  1
  O  O386  1  0.40360050  0.37733996  0.09584904  1
  O  O387  1  0.37828699  0.38270384  0.60510460  1
  O  O388  1  0.36654085  0.87991221  0.10875765  1
  O  O389  1  0.38417835  0.85655313  0.63806729  1
  O  O390  1  0.82798844  0.22922203  0.07343769  1
  O  O391  1  0.87605399  0.36755011  0.61686374  1
  O  O392  1  0.86852503  0.87672451  0.12467599  1
  O  O393  1  0.88077938  0.86740633  0.61231569  1
  O  O394  1  0.12106404  0.14282745  0.37133154  1
  O  O395  1  0.13156256  0.12888858  0.86871731  1
  O  O396  1  0.12561718  0.63547491  0.37352302  1
  O  O397  1  0.09757872  0.64182336  0.86257908  1
  O  O398  1  0.63590001  0.12601232  0.38328054  1
  O  O399  1  0.63186045  0.13392377  0.87650266  1
  O  O400  1  0.62564537  0.63933067  0.37894229  1
  O  O401  1  0.65095091  0.63594352  0.91733202  1
