# generated using pymatgen
data_V73Zn73O256
_symmetry_space_group_name_H-M   'P 1'
_cell_length_a   16.81943539
_cell_length_b   16.82589448
_cell_length_c   16.82337128
_cell_angle_alpha   89.96073893
_cell_angle_beta   90.06311801
_cell_angle_gamma   90.02947835
_symmetry_Int_Tables_number   1
_chemical_formula_structural   V73Zn73O256
_chemical_formula_sum   'V73 Zn73 O256'
_cell_volume   4761.04384091
_cell_formula_units_Z   1
loop_
 _symmetry_equiv_pos_site_id
 _symmetry_equiv_pos_as_xyz
  1  'x, y, z'
loop_
 _atom_site_type_symbol
 _atom_site_label
 _atom_site_symmetry_multiplicity
 _atom_site_fract_x
 _atom_site_fract_y
 _atom_site_fract_z
 _atom_site_occupancy
  V  V0  1  0.00132100  0.14314139  0.63412510  1
  V  V1  1  0.11367961  -0.01052915  0.62469289  1
  V  V2  1  0.86728813  0.25536284  0.64271124  1
  V  V3  1  0.11383626  0.48322474  0.12002872  1
  V  V4  1  0.25023829  -0.00489078  0.23765205  1
  V  V5  1  0.37812543  0.13649766  0.73977695  1
  V  V6  1  0.75233422  0.62399812  0.37593853  1
  V  V7  1  0.88054951  0.62749170  0.74419372  1
  V  V8  1  0.51255846  0.36612476  0.87080127  1
  V  V9  1  0.87753756  0.62994659  0.25108535  1
  V  V10  1  0.87158696  0.75393859  0.11162157  1
  V  V11  1  0.76114943  0.75110359  0.50691289  1
  V  V12  1  0.62681148  0.49413977  0.12362355  1
  V  V13  1  0.37251238  0.63024262  0.75575294  1
  V  V14  1  0.01146676  0.11271167  0.12235968  1
  V  V15  1  0.63137716  0.75937347  0.87262221  1
  V  V16  1  0.11569941  0.36864793  0.76620630  1
  V  V17  1  0.23493615  0.73081766  0.00182979  1
  V  V18  1  0.75002152  0.48565439  0.74728493  1
  V  V19  1  0.38850786  0.63031561  0.25017209  1
  V  V20  1  0.88499336  0.49071031  0.89059189  1
  V  V21  1  0.27892869  0.87019804  0.62375061  1
  V  V22  1  0.36947116  0.00796150  0.38124450  1
  V  V23  1  0.49698568  0.63146774  0.62680745  1
  V  V24  1  0.74543818  0.12359913  0.86196661  1
  V  V25  1  0.62364552  0.75354321  0.36955491  1
  V  V26  1  0.60649395  0.37618354  0.25559499  1
  V  V27  1  0.01222152  0.25218214  0.25661066  1
  V  V28  1  0.62628093  0.62764511  0.50430298  1
  V  V29  1  0.88266119  0.49607735  0.38264150  1
  V  V30  1  0.86712295  0.25962204  0.12641195  1
  V  V31  1  0.01280470  0.88216605  0.38563940  1
  V  V32  1  0.49176269  0.22621714  0.24954859  1
  V  V33  1  -0.00202654  0.87122666  0.84150895  1
  V  V34  1  0.00194465  0.62219114  0.60516926  1
  V  V35  1  0.50553131  0.75752678  0.74906895  1
  V  V36  1  0.24601787  0.13254062  0.87852330  1
  V  V37  1  0.62648604  0.48831404  0.63044464  1
  V  V38  1  0.74144434  0.87919940  0.63663774  1
  V  V39  1  0.50092199  0.49573310  -0.00017915  1
  V  V40  1  0.50444377  0.25491168  0.73188043  1
  V  V41  1  0.24771319  0.50311244  0.75189055  1
  V  V42  1  0.38069459  0.22496443  0.11652932  1
  V  V43  1  0.24798453  0.24432469  0.52238650  1
  V  V44  1  0.25930689  -0.00314428  0.75373102  1
  V  V45  1  0.87406255  0.00064695  0.86717067  1
  V  V46  1  0.49292275  0.49900809  0.48637333  1
  V  V47  1  0.49711445  0.00018480  0.01976454  1
  V  V48  1  0.25420824  0.74848184  0.48897355  1
  V  V49  1  0.62380746  0.63053367  0.00419232  1
  V  V50  1  0.74280671  0.25801506  0.00357318  1
  V  V51  1  0.37057167  0.49398544  0.88126849  1
  V  V52  1  0.87602183  0.89652352  0.49713071  1
  V  V53  1  0.23863345  0.13089703  0.37241158  1
  V  V54  1  0.12372132  0.49694838  0.60923467  1
  V  V55  1  0.75092206  0.87821431  0.11187405  1
  V  V56  1  0.48696191  0.86628049  0.37865639  1
  V  V57  1  0.62615564  0.01398833  0.63425181  1
  V  V58  1  0.74889177  0.62427110  0.87473862  1
  V  V59  1  0.38558042  0.75707395  0.11587384  1
  V  V60  1  0.62631626  0.24019626  0.38016655  1
  V  V61  1  0.00552929  0.62431574  0.11238491  1
  V  V62  1  0.50954491  0.01338097  0.50027386  1
  V  V63  1  0.01582694  0.37027979  0.38151414  1
  V  V64  1  0.49386563  0.88797787  0.87707873  1
  V  V65  1  0.86055638  0.36314465  0.50126474  1
  V  V66  1  0.87123244  0.11663736  0.25612376  1
  V  V67  1  0.12741556  0.87451250  0.22988888  1
  V  V68  1  0.62681170  0.11662296  0.01798869  1
  V  V69  1  0.27616106  0.38021008  0.12240894  1
  V  V70  1  0.74235543  -0.00469105  0.25948989  1
  V  V71  1  0.22512880  0.62206326  0.37087765  1
  V  V72  1  0.75105979  0.48981999  0.24834809  1
  Zn  Zn73  1  0.25095686  0.49570171  0.25171444  1
  Zn  Zn74  1  0.61710919  0.87340514  0.24227656  1
  Zn  Zn75  1  0.10874400  0.12271302  0.49537253  1
  Zn  Zn76  1  0.01558182  0.74388181  0.25984462  1
  Zn  Zn77  1  0.25849302  0.36856056  0.63332981  1
  Zn  Zn78  1  0.24855677  0.25140009  -0.00339299  1
  Zn  Zn79  1  0.37523913  0.36926033  0.49407831  1
  Zn  Zn80  1  0.92148419  0.78950784  0.66553200  1
  Zn  Zn81  1  0.75003026  0.12310719  0.39743537  1
  Zn  Zn82  1  0.19696942  0.18660206  0.18842222  1
  Zn  Zn83  1  0.17700165  0.17932660  0.69948797  1
  Zn  Zn84  1  0.19484745  0.69252121  0.18537217  1
  Zn  Zn85  1  0.18625306  0.68674474  0.66850433  1
  Zn  Zn86  1  0.68646029  0.18823664  0.19198717  1
  Zn  Zn87  1  0.68251726  0.19739831  0.67809150  1
  Zn  Zn88  1  0.69014027  0.68914213  0.18496580  1
  Zn  Zn89  1  0.69151186  0.68695183  0.68973176  1
  Zn  Zn90  1  0.31646475  0.31406142  0.30597962  1
  Zn  Zn91  1  0.31428244  0.31435294  0.81296248  1
  Zn  Zn92  1  0.31052873  0.80703653  0.30408018  1
  Zn  Zn93  1  0.32094200  0.81639731  0.80998057  1
  Zn  Zn94  1  0.81444630  0.30794175  0.31506137  1
  Zn  Zn95  1  0.81285874  0.30707350  0.82534435  1
  Zn  Zn96  1  0.81628665  0.81553270  0.31703410  1
  Zn  Zn97  1  0.81528644  0.81526716  0.81943726  1
  Zn  Zn98  1  0.22021697  0.41550995  0.41986381  1
  Zn  Zn99  1  0.18552125  0.43953066  0.94887242  1
  Zn  Zn100  1  0.19272151  0.93720710  0.45129752  1
  Zn  Zn101  1  0.17855987  0.92250153  0.91209039  1
  Zn  Zn102  1  0.68235046  0.43521197  0.43673139  1
  Zn  Zn103  1  0.68947862  0.43755190  0.93445541  1
  Zn  Zn104  1  0.68760729  0.93678585  0.44074139  1
  Zn  Zn105  1  0.68752524  0.94659494  0.93706239  1
  Zn  Zn106  1  0.31370265  0.05149623  0.05403149  1
  Zn  Zn107  1  0.31247731  0.06002014  0.56141295  1
  Zn  Zn108  1  0.30940975  0.57111279  0.06410544  1
  Zn  Zn109  1  0.30943840  0.56688160  0.55950612  1
  Zn  Zn110  1  0.81616805  0.05959840  0.06608519  1
  Zn  Zn111  1  0.81189608  0.07258090  0.57531435  1
  Zn  Zn112  1  0.81029825  0.56495895  0.06423031  1
  Zn  Zn113  1  0.81416613  0.55613473  0.56352660  1
  Zn  Zn114  1  0.43703290  0.45438176  0.18944743  1
  Zn  Zn115  1  0.43605805  0.43761249  0.68355606  1
  Zn  Zn116  1  0.43130453  0.92975635  0.19461028  1
  Zn  Zn117  1  0.44581422  0.94702349  0.68976307  1
  Zn  Zn118  1  0.94089768  0.43708385  0.19201450  1
  Zn  Zn119  1  0.94045737  0.43586825  0.68607613  1
  Zn  Zn120  1  0.93851279  0.93416274  0.19395609  1
  Zn  Zn121  1  0.92327628  0.95970051  0.68579320  1
  Zn  Zn122  1  0.06069090  0.05535564  0.30766927  1
  Zn  Zn123  1  0.06443863  0.05985126  0.80738867  1
  Zn  Zn124  1  0.06669646  0.55385866  0.30440096  1
  Zn  Zn125  1  0.05645736  0.55309064  0.81019935  1
  Zn  Zn126  1  0.56170613  0.05546279  0.31219894  1
  Zn  Zn127  1  0.56682904  0.07775285  0.81571067  1
  Zn  Zn128  1  0.56395266  0.56983140  0.30813304  1
  Zn  Zn129  1  0.56131010  0.56158342  0.81419110  1
  Zn  Zn130  1  0.43267924  0.19121554  0.43531705  1
  Zn  Zn131  1  0.43585354  0.17465591  0.93044588  1
  Zn  Zn132  1  0.42669783  0.68548163  0.44058211  1
  Zn  Zn133  1  0.43904805  0.68973203  0.93935576  1
  Zn  Zn134  1  0.93630902  0.18273681  0.44218894  1
  Zn  Zn135  1  0.91333996  0.14642516  0.96167745  1
  Zn  Zn136  1  0.94474942  0.69474319  0.43556735  1
  Zn  Zn137  1  0.93834637  0.68711750  0.93026629  1
  Zn  Zn138  1  0.07105832  0.28239867  0.07450289  1
  Zn  Zn139  1  0.07041854  0.31412652  0.56083044  1
  Zn  Zn140  1  0.06278940  0.80245310  0.06352528  1
  Zn  Zn141  1  0.06980168  0.80794847  0.55546775  1
  Zn  Zn142  1  0.55991667  0.31092854  0.06505270  1
  Zn  Zn143  1  0.55790318  0.31429716  0.55564536  1
  Zn  Zn144  1  0.56402395  0.81667268  0.06116589  1
  Zn  Zn145  1  0.56040623  0.81940895  0.55854331  1
  O  O146  1  0.11140008  0.12649261  0.14015611  1
  O  O147  1  0.11273618  0.12255988  0.62283185  1
  O  O148  1  0.10498906  0.63408033  0.13006447  1
  O  O149  1  0.11093079  0.61204972  0.62945198  1
  O  O150  1  0.62465089  0.12291195  0.11855193  1
  O  O151  1  0.63212561  0.11322795  0.61816437  1
  O  O152  1  0.63073860  0.62123236  0.10951192  1
  O  O153  1  0.62123071  0.62148827  0.61752943  1
  O  O154  1  0.33144740  0.38791647  0.38830665  1
  O  O155  1  0.38274228  0.39035694  0.87576523  1
  O  O156  1  0.38377811  0.87456071  0.37477428  1
  O  O157  1  0.39529177  0.87696096  0.87613995  1
  O  O158  1  0.87751849  0.37913526  0.38433965  1
  O  O159  1  0.87108376  0.39200582  0.87469287  1
  O  O160  1  0.87357864  0.88012312  0.39348546  1
  O  O161  1  0.87610264  0.89185375  0.87601803  1
  O  O162  1  0.26058132  0.00176494  0.38097308  1
  O  O163  1  0.24692563  0.00014750  0.85799771  1
  O  O164  1  0.23153317  0.51823633  0.36900492  1
  O  O165  1  0.26488387  0.49892913  0.87140508  1
  O  O166  1  0.74520127  0.00507286  0.36416611  1
  O  O167  1  0.75547330  0.01287045  0.87487950  1
  O  O168  1  0.75565719  0.50872369  0.37060401  1
  O  O169  1  0.75204691  0.50679333  0.86277417  1
  O  O170  1  0.24651524  0.48614238  0.11992945  1
  O  O171  1  0.23648905  0.51241447  0.63512530  1
  O  O172  1  0.25636173  1.00010858  0.13859189  1
  O  O173  1  0.25182808  0.98301110  0.62837933  1
  O  O174  1  0.73870703  0.50784538  0.13654105  1
  O  O175  1  0.73936856  0.50304317  0.63558748  1
  O  O176  1  0.76130353  0.98262675  0.13574108  1
  O  O177  1  0.73906585  0.99006063  0.62319229  1
  O  O178  1  -0.00685095  0.35971831  0.26316785  1
  O  O179  1  0.01557987  0.38668913  0.75594750  1
  O  O180  1  0.01717131  0.87732416  0.26155122  1
  O  O181  1  -0.02457478  0.86592292  0.73953950  1
  O  O182  1  0.50640889  0.38338291  0.25347942  1
  O  O183  1  0.49115974  0.36578469  0.75964042  1
  O  O184  1  0.50542262  0.88335387  0.27271230  1
  O  O185  1  0.49955560  0.86507220  0.75849056  1
  O  O186  1  0.49916794  0.12748033  0.24472192  1
  O  O187  1  0.48867461  0.14237043  0.75707380  1
  O  O188  1  0.49070803  0.62852682  0.24766309  1
  O  O189  1  0.49759316  0.63355857  0.74464519  1
  O  O190  1  0.98895833  0.13329614  0.25311837  1
  O  O191  1  1.00499670  0.12870685  0.73532470  1
  O  O192  1  0.98815489  0.62515528  0.24596350  1
  O  O193  1  0.98254966  0.62188285  0.75013511  1
  O  O194  1  0.37660131  0.23804935  0.01335322  1
  O  O195  1  0.35375864  0.25015717  0.49074902  1
  O  O196  1  0.36508860  0.73914204  0.00833347  1
  O  O197  1  0.35539537  0.73701089  0.51474838  1
  O  O198  1  0.86066469  0.23919482  0.01872657  1
  O  O199  1  0.86955789  0.26125354  0.49971807  1
  O  O200  1  0.87385517  0.74649919  0.01287117  1
  O  O201  1  0.86359582  0.74915097  0.50327816  1
  O  O202  1  0.14062183  0.23900152  0.50321439  1
  O  O203  1  0.13637283  0.23781976  1.00142984  1
  O  O204  1  0.15676717  0.74034702  0.52807428  1
  O  O205  1  0.13271358  0.74485294  0.99846403  1
  O  O206  1  0.61507755  0.25573586  0.47877255  1
  O  O207  1  0.63516353  0.23874792  1.01265020  1
  O  O208  1  0.63412104  0.74137823  0.49305769  1
  O  O209  1  0.62013765  0.73688431  0.98722380  1
  O  O210  1  0.48894868  0.25062002  0.13519501  1
  O  O211  1  0.49469171  0.25871377  0.63193393  1
  O  O212  1  0.48812079  0.74931622  0.11191049  1
  O  O213  1  0.51260744  0.74219962  0.63396327  1
  O  O214  1  0.98763897  0.24120258  0.14220409  1
  O  O215  1  0.99595092  0.24869178  0.62527404  1
  O  O216  1  0.98616429  0.74252725  0.13201604  1
  O  O217  1  1.00503048  0.72917138  0.61859144  1
  O  O218  1  -0.00204114  0.25640350  0.36636442  1
  O  O219  1  -0.00846336  0.26701987  0.89632626  1
  O  O220  1  -0.01156411  0.77171621  0.36884447  1
  O  O221  1  -0.01845056  0.77660742  0.87812561  1
  O  O222  1  0.50565784  0.24375156  0.35681283  1
  O  O223  1  0.49435791  0.26507251  0.87706138  1
  O  O224  1  0.50722543  0.75988962  0.38722375  1
  O  O225  1  0.51275767  0.75947488  0.87065359  1
  O  O226  1  0.25242904  0.13158821  0.48693882  1
  O  O227  1  0.25474217  0.11488313  0.98096222  1
  O  O228  1  0.25172429  0.63047665  0.47958930  1
  O  O229  1  0.24640822  0.63032812  0.98762918  1
  O  O230  1  0.74994370  0.13484067  0.50786670  1
  O  O231  1  0.73819436  0.12826163  1.00381927  1
  O  O232  1  0.74596000  0.62842713  0.49632465  1
  O  O233  1  0.73620463  0.61853034  0.98685863  1
  O  O234  1  0.24566037  0.36777092  0.01945795  1
  O  O235  1  0.23713419  0.35235654  0.51523436  1
  O  O236  1  0.25351665  0.84169818  -0.04822551  1
  O  O237  1  0.25644930  0.86267684  0.51550641  1
  O  O238  1  0.74128206  0.35845779  -0.00093518  1
  O  O239  1  0.76056206  0.37805641  0.49805782  1
  O  O240  1  0.75123167  0.88111397  0.01259293  1
  O  O241  1  0.76047267  0.86982331  0.50543886  1
  O  O242  1  0.13385046  0.50635030  0.22504525  1
  O  O243  1  0.13826271  0.49938272  0.75349470  1
  O  O244  1  0.13891777  0.98618682  0.25535205  1
  O  O245  1  0.14759521  1.01016609  0.73056357  1
  O  O246  1  0.62927182  0.49319988  0.24564187  1
  O  O247  1  0.63429671  0.50477114  0.73934457  1
  O  O248  1  0.63875738  0.99753752  0.24718094  1
  O  O249  1  0.61297986  1.00749309  0.73322788  1
  O  O250  1  0.35906319  -0.01177395  0.26647659  1
  O  O251  1  0.36729334  0.01199018  0.74531209  1
  O  O252  1  0.36666500  0.52209918  0.24424500  1
  O  O253  1  0.37005917  0.50836277  0.76013861  1
  O  O254  1  0.86858824  0.01110255  0.25269950  1
  O  O255  1  0.86206593  0.01135868  0.76390266  1
  O  O256  1  0.86775296  0.50717055  0.25774459  1
  O  O257  1  0.86237826  0.50609106  0.75179749  1
  O  O258  1  0.11435754  0.37850069  0.37873008  1
  O  O259  1  0.13350364  0.38337659  0.86610416  1
  O  O260  1  0.11384202  0.87396922  0.39498030  1
  O  O261  1  0.09899910  0.87924448  0.84389897  1
  O  O262  1  0.62562962  0.36794417  0.35960369  1
  O  O263  1  0.61228512  0.37900517  0.86956516  1
  O  O264  1  0.62291354  0.86308734  0.37540729  1
  O  O265  1  0.62884988  0.86147171  0.87844714  1
  O  O266  1  0.37248374  0.12698693  0.12702041  1
  O  O267  1  0.37285228  0.12229116  0.63882863  1
  O  O268  1  0.36737565  0.63678549  0.13731754  1
  O  O269  1  0.38928689  0.61589291  0.64086424  1
  O  O270  1  0.88342263  0.13063601  0.13894567  1
  O  O271  1  0.88529664  0.14499892  0.62967197  1
  O  O272  1  0.87879112  0.63302168  0.13197314  1
  O  O273  1  0.88694547  0.61451171  0.63340192  1
  O  O274  1  0.27116571  0.25530045  0.12946201  1
  O  O275  1  0.25153571  0.23947873  0.62407931  1
  O  O276  1  0.25322052  0.74965225  0.10529368  1
  O  O277  1  0.25528944  0.77154340  0.64741654  1
  O  O278  1  0.75798194  0.25026234  0.12310494  1
  O  O279  1  0.76699626  0.25563275  0.63110421  1
  O  O280  1  0.76407208  0.75754264  0.12888667  1
  O  O281  1  0.74010165  0.76280524  0.61617834  1
  O  O282  1  0.24704448  0.22947584  0.35825705  1
  O  O283  1  0.25676421  0.23865715  0.87706633  1
  O  O284  1  0.24679880  0.75063321  0.38512600  1
  O  O285  1  0.24835295  0.77714048  0.89286132  1
  O  O286  1  0.73042075  0.24567450  0.36220585  1
  O  O287  1  0.75446552  0.23804806  0.89587706  1
  O  O288  1  0.74621625  0.74012087  0.38431335  1
  O  O289  1  0.73884857  0.74124445  0.87040428  1
  O  O290  1  0.00628531  0.13377132  0.02212706  1
  O  O291  1  -0.00439082  0.12614407  0.51843890  1
  O  O292  1  -0.00528400  0.63005266  0.01308048  1
  O  O293  1  -0.00627397  0.61781582  0.50569485  1
  O  O294  1  0.51433778  0.11198111  -0.00530431  1
  O  O295  1  0.49519753  0.11271825  0.49337741  1
  O  O296  1  0.51775458  0.61121296  -0.01342955  1
  O  O297  1  0.51028079  0.62381415  0.50780716  1
  O  O298  1  0.49602756  0.39494892  0.49919480  1
  O  O299  1  0.50771041  0.38660725  0.98911871  1
  O  O300  1  0.50465807  0.88814051  0.48412143  1
  O  O301  1  0.51457588  0.89080682  0.98679175  1
  O  O302  1  0.99332569  0.36698693  0.48429246  1
  O  O303  1  1.00568021  0.32033305  0.94424741  1
  O  O304  1  0.98512013  0.86949262  0.49770999  1
  O  O305  1  1.03285042  0.90644284  0.99354639  1
  O  O306  1  0.51182725  0.50821727  0.38850822  1
  O  O307  1  0.49417302  0.48953881  0.87745193  1
  O  O308  1  0.48887681  0.99432239  0.38124277  1
  O  O309  1  0.51156496  0.98750899  0.86743219  1
  O  O310  1  0.99107088  0.48329644  0.36291214  1
  O  O311  1  0.98546666  0.50739066  0.88334308  1
  O  O312  1  0.99844349  0.98251796  0.37339651  1
  O  O313  1  0.98730805  0.98851278  0.85626910  1
  O  O314  1  -0.00425372  0.01298459  0.13450367  1
  O  O315  1  0.01023828  0.00923261  0.63083010  1
  O  O316  1  0.00357728  0.51267193  0.12894331  1
  O  O317  1  0.01194603  0.50902078  0.62597065  1
  O  O318  1  0.49844511  -0.01074717  0.11949840  1
  O  O319  1  0.51311521  -0.00474810  0.60917896  1
  O  O320  1  0.51434814  0.50044106  0.11315544  1
  O  O321  1  0.51476011  0.51177965  0.62292214  1
  O  O322  1  0.25222024  0.37436980  0.22666090  1
  O  O323  1  0.24746837  0.38936934  0.74896304  1
  O  O324  1  0.23787784  0.88355029  0.25455529  1
  O  O325  1  0.26302601  0.88962152  0.74249231  1
  O  O326  1  0.74501326  0.38753375  0.25555317  1
  O  O327  1  0.74986416  0.38751480  0.75636631  1
  O  O328  1  0.75221229  0.88661337  0.25095125  1
  O  O329  1  0.75165584  0.86798505  0.73512106  1
  O  O330  1  0.24365355  0.10462095  0.26240396  1
  O  O331  1  0.26153561  0.11847337  0.75410186  1
  O  O332  1  0.25000636  0.63177770  0.26419126  1
  O  O333  1  0.26730694  0.62272164  0.74567594  1
  O  O334  1  0.75886860  0.11117828  0.24325141  1
  O  O335  1  0.73491721  0.13632439  0.76397357  1
  O  O336  1  0.75469596  0.61656336  0.26013259  1
  O  O337  1  0.75649832  0.61558517  0.75651680  1
  O  O338  1  0.36499759  0.11142580  0.37152424  1
  O  O339  1  0.36278359  0.12292753  0.85719208  1
  O  O340  1  0.36797708  0.63835855  0.35554465  1
  O  O341  1  0.38868397  0.61323456  0.86101139  1
  O  O342  1  0.86719779  0.13584906  0.35985340  1
  O  O343  1  0.85729337  0.12541789  0.86571545  1
  O  O344  1  0.87001262  0.61776275  0.37179580  1
  O  O345  1  0.86663892  0.61722798  0.86477425  1
  O  O346  1  0.10379371  0.38278381  0.12097595  1
  O  O347  1  0.12683857  0.38996807  0.63797025  1
  O  O348  1  0.11966263  0.87910157  0.13113026  1
  O  O349  1  0.11837230  0.88738587  0.62599821  1
  O  O350  1  0.62217575  0.38456445  0.13934737  1
  O  O351  1  0.62182213  0.39004187  0.62090591  1
  O  O352  1  0.64568117  0.85981119  0.12974380  1
  O  O353  1  0.63622632  0.88528461  0.61833868  1
  O  O354  1  0.11072805  0.24813181  0.24697962  1
  O  O355  1  0.13095142  0.27002543  0.75005953  1
  O  O356  1  0.13020299  0.76919573  0.24654859  1
  O  O357  1  0.12637592  0.71327145  0.78551951  1
  O  O358  1  0.60915685  0.26189290  0.24755436  1
  O  O359  1  0.60455474  0.24958422  0.74407808  1
  O  O360  1  0.63065801  0.74553840  0.26582984  1
  O  O361  1  0.61845214  0.74267393  0.76417607  1
  O  O362  1  0.38805723  0.24758444  0.24238947  1
  O  O363  1  0.37997762  0.24425978  0.74673775  1
  O  O364  1  0.37079733  0.74324202  0.23236058  1
  O  O365  1  0.38853917  0.73683112  0.75886636  1
  O  O366  1  0.87296020  0.23973102  0.24109743  1
  O  O367  1  0.87933857  0.26827309  0.74129237  1
  O  O368  1  0.86940948  0.73573259  0.24910593  1
  O  O369  1  0.86172167  0.73104434  0.74699801  1
  O  O370  1  0.39378170  0.51923854  0.49645630  1
  O  O371  1  0.38571482  0.51238719  0.98737567  1
  O  O372  1  0.38452770  0.99940891  0.48737449  1
  O  O373  1  0.39879987  1.00385353  0.99645242  1
  O  O374  1  0.87299273  0.49055589  0.48849589  1
  O  O375  1  0.86531251  0.50214402  0.98942578  1
  O  O376  1  0.87266111  0.99484959  0.50707890  1
  O  O377  1  0.88089230  1.02578697  0.97632071  1
  O  O378  1  0.09169156  -0.04390456  -0.00509550  1
  O  O379  1  0.13566561  0.00803811  0.52156949  1
  O  O380  1  0.12913860  0.50776618  0.02130521  1
  O  O381  1  0.13382097  0.49126140  0.51296183  1
  O  O382  1  0.61955259  0.00891271  0.00607656  1
  O  O383  1  0.61428891  0.00518696  0.49699695  1
  O  O384  1  0.62293796  0.50605888  0.00563609  1
  O  O385  1  0.62229564  0.50945042  0.51006252  1
  O  O386  1  0.37742913  0.37962540  0.12017599  1
  O  O387  1  0.36613109  0.39625267  0.60764771  1
  O  O388  1  0.37289394  0.85853704  0.12658244  1
  O  O389  1  0.37848036  0.87466644  0.62578659  1
  O  O390  1  0.88114262  0.35945344  0.12934532  1
  O  O391  1  0.88436968  0.36821367  0.60925725  1
  O  O392  1  0.87062737  0.86074965  0.13178262  1
  O  O393  1  0.86237279  0.87825358  0.61541173  1
  O  O394  1  0.13532766  0.11230866  0.37867488  1
  O  O395  1  0.14562991  0.12086188  0.86067120  1
  O  O396  1  0.12432462  0.63406455  0.36709275  1
  O  O397  1  0.12320356  0.66109284  0.84007990  1
  O  O398  1  0.62577720  0.13605375  0.36677381  1
  O  O399  1  0.63931564  0.12398340  0.89148281  1
  O  O400  1  0.63499920  0.62953636  0.38426625  1
  O  O401  1  0.63206285  0.63005970  0.87992872  1
