# generated using pymatgen
data_V73Zn73O256
_symmetry_space_group_name_H-M   'P 1'
_cell_length_a   16.84684080
_cell_length_b   16.86264355
_cell_length_c   16.83418587
_cell_angle_alpha   89.91220406
_cell_angle_beta   89.97470550
_cell_angle_gamma   90.03050575
_symmetry_Int_Tables_number   1
_chemical_formula_structural   V73Zn73O256
_chemical_formula_sum   'V73 Zn73 O256'
_cell_volume   4782.28699893
_cell_formula_units_Z   1
loop_
 _symmetry_equiv_pos_site_id
 _symmetry_equiv_pos_as_xyz
  1  'x, y, z'
loop_
 _atom_site_type_symbol
 _atom_site_label
 _atom_site_symmetry_multiplicity
 _atom_site_fract_x
 _atom_site_fract_y
 _atom_site_fract_z
 _atom_site_occupancy
  V  V0  1  0.75253198  0.37795805  0.62636096  1
  V  V1  1  0.24712089  0.00586925  0.75175999  1
  V  V2  1  0.61932393  0.87168513  0.24975708  1
  V  V3  1  0.36826548  -0.00507767  0.36902311  1
  V  V4  1  0.88457936  0.23931565  0.62753359  1
  V  V5  1  0.49596979  0.62497408  0.12482041  1
  V  V6  1  0.62788614  0.62744607  -0.00620945  1
  V  V7  1  0.36416027  0.37020200  0.48413713  1
  V  V8  1  0.87821087  0.12442457  0.25875302  1
  V  V9  1  0.11887995  0.50663031  0.61170792  1
  V  V10  1  0.61662932  0.00077158  0.12799449  1
  V  V11  1  0.62423849  0.36804358  0.75811063  1
  V  V12  1  0.75709538  0.62098607  0.38466376  1
  V  V13  1  0.73765952  0.48834091  0.24812740  1
  V  V14  1  0.62144709  0.87349837  0.74438675  1
  V  V15  1  0.00977068  0.25536223  0.25288442  1
  V  V16  1  0.62375574  0.73951264  0.38146302  1
  V  V17  1  0.38248276  0.26729779  0.11697663  1
  V  V18  1  0.61357079  0.12180816  -0.01055497  1
  V  V19  1  0.12443936  0.11510485  0.51379143  1
  V  V20  1  0.74402158  0.12214375  0.38015718  1
  V  V21  1  0.13506019  0.48827939  0.14078372  1
  V  V22  1  0.00634960  0.49506762  -0.00195682  1
  V  V23  1  0.00854202  0.62621165  0.11962438  1
  V  V24  1  0.49647585  0.87312883  0.38812268  1
  V  V25  1  0.88380889  0.38259177  0.49968968  1
  V  V26  1  -0.00192786  0.88603604  0.88554798  1
  V  V27  1  0.12978229  0.24960731  0.38590179  1
  V  V28  1  0.12833502  0.87356188  0.75261955  1
  V  V29  1  0.86843734  0.25493155  0.13032959  1
  V  V30  1  0.25611213  0.48214449  0.74519312  1
  V  V31  1  0.30075610  0.67334789  0.92648741  1
  V  V32  1  0.00129464  0.38521721  0.37678004  1
  V  V33  1  0.74364690  0.24804216  0.50204449  1
  V  V34  1  0.79569352  0.92605961  0.68360659  1
  V  V35  1  0.75121058  0.77698084  0.50609947  1
  V  V36  1  -0.00306407  0.23568203  0.75506532  1
  V  V37  1  0.75523594  0.50832067  0.75088605  1
  V  V38  1  0.49526794  0.87487320  0.88432489  1
  V  V39  1  0.13282986  0.11350125  0.00211194  1
  V  V40  1  0.49201707  0.01579376  0.50712458  1
  V  V41  1  0.50064498  0.62251367  0.61020146  1
  V  V42  1  0.86423851  0.37835666  0.00347727  1
  V  V43  1  0.36738977  0.62391536  0.74485976  1
  V  V44  1  0.61950582  0.26122778  0.35953550  1
  V  V45  1  -0.00415217  0.73738518  0.74754488  1
  V  V46  1  0.49206343  0.37151893  0.88482810  1
  V  V47  1  0.62678430  0.50218285  0.62025710  1
  V  V48  1  0.50162043  0.48381972  0.48902081  1
  V  V49  1  0.13407774  0.25716137  0.88473778  1
  V  V50  1  0.25410476  0.12314907  0.36962519  1
  V  V51  1  0.75370612  -0.00447457  0.25099919  1
  V  V52  1  0.24870965  0.87876475  0.61400571  1
  V  V53  1  0.37061323  0.26075346  0.62168588  1
  V  V54  1  -0.01479658  0.76167186  0.24089173  1
  V  V55  1  0.87040257  0.74155099  0.63074758  1
  V  V56  1  0.87368484  0.50484378  0.87492414  1
  V  V57  1  0.01075574  0.11985652  0.12640689  1
  V  V58  1  0.75640725  0.75646347  0.01240642  1
  V  V59  1  0.11228698  0.37672231  0.74556593  1
  V  V60  1  0.75278341  0.23548839  -0.01234752  1
  V  V61  1  0.37657675  0.00571516  0.88535850  1
  V  V62  1  0.86566135  0.61914404  0.23699229  1
  V  V63  1  0.38662673  0.12153016  0.73790044  1
  V  V64  1  0.49283557  0.12649136  0.15271699  1
  V  V65  1  0.50296774  0.74720179  0.74840685  1
  V  V66  1  0.37224164  0.75166248  0.61113875  1
  V  V67  1  0.62299238  0.48281486  0.11892778  1
  V  V68  1  0.12535249  0.73596206  0.88626797  1
  V  V69  1  -0.01490084  0.00132316  0.50598831  1
  V  V70  1  0.12366068  0.74321062  0.37535854  1
  V  V71  1  0.14701064  0.88825383  0.24569524  1
  V  V72  1  0.61995528  0.00895867  0.62374678  1
  Zn  Zn73  1  0.87175199  0.87629462  -0.00009370  1
  Zn  Zn74  1  0.51199157  0.23752900  0.74705388  1
  Zn  Zn75  1  0.47419309  0.74454328  0.24433053  1
  Zn  Zn76  1  0.23707663  0.72434778  0.49988384  1
  Zn  Zn77  1  0.05114431  0.65738217  0.54593341  1
  Zn  Zn78  1  -0.01368404  0.89383903  0.37306083  1
  Zn  Zn79  1  0.33784093  0.59984796  0.28721198  1
  Zn  Zn80  1  0.74752584  0.63453735  0.86868772  1
  Zn  Zn81  1  0.37378955  0.49537821  0.88205125  1
  Zn  Zn82  1  0.19882704  0.19202093  0.18964018  1
  Zn  Zn83  1  0.19038672  0.19193919  0.68951283  1
  Zn  Zn84  1  0.18863083  0.72246792  0.19001277  1
  Zn  Zn85  1  0.18510414  0.68969366  0.68786362  1
  Zn  Zn86  1  0.68523457  0.18490264  0.18703145  1
  Zn  Zn87  1  0.69372242  0.18860299  0.68624337  1
  Zn  Zn88  1  0.67782573  0.68192511  0.18680345  1
  Zn  Zn89  1  0.68571458  0.68722456  0.68030190  1
  Zn  Zn90  1  0.30773437  0.30980080  0.29506699  1
  Zn  Zn91  1  0.31430611  0.30398147  0.81356281  1
  Zn  Zn92  1  0.31365874  0.80195368  0.31989871  1
  Zn  Zn93  1  0.31662960  0.81607029  0.80883821  1
  Zn  Zn94  1  0.81414896  0.30960638  0.31752921  1
  Zn  Zn95  1  0.81863803  0.31845346  0.81582499  1
  Zn  Zn96  1  0.80964232  0.81136503  0.30813081  1
  Zn  Zn97  1  0.81424049  0.80719076  0.82632588  1
  Zn  Zn98  1  0.18720728  0.43817519  0.43352801  1
  Zn  Zn99  1  0.18465428  0.44871856  0.92670735  1
  Zn  Zn100  1  0.17235544  0.93618770  0.42805192  1
  Zn  Zn101  1  0.19411863  0.93177605  0.93968848  1
  Zn  Zn102  1  0.69135772  0.43816209  0.43602843  1
  Zn  Zn103  1  0.69045189  0.43432168  0.93936527  1
  Zn  Zn104  1  0.67801457  0.94371848  0.43712627  1
  Zn  Zn105  1  0.67050678  0.92721007  0.94489479  1
  Zn  Zn106  1  0.33586191  0.11207036  0.03805570  1
  Zn  Zn107  1  0.30549675  0.06426666  0.55743540  1
  Zn  Zn108  1  0.27744041  0.61354672  0.10630263  1
  Zn  Zn109  1  0.31461883  0.54704379  0.56371907  1
  Zn  Zn110  1  0.81676059  0.05688542  0.06856760  1
  Zn  Zn111  1  0.81108767  0.06305580  0.56457746  1
  Zn  Zn112  1  0.80530311  0.56204627  0.06367325  1
  Zn  Zn113  1  0.87748850  0.59164049  0.52692451  1
  Zn  Zn114  1  0.39435099  0.47564585  0.14961023  1
  Zn  Zn115  1  0.44214643  0.43445704  0.68405785  1
  Zn  Zn116  1  0.43278630  0.93614467  0.18959239  1
  Zn  Zn117  1  0.43366630  0.93518110  0.68579307  1
  Zn  Zn118  1  0.93579380  0.44012750  0.18902512  1
  Zn  Zn119  1  0.93757020  0.44326833  0.68357647  1
  Zn  Zn120  1  0.93146026  0.94333404  0.16630455  1
  Zn  Zn121  1  0.95861438  0.93919905  0.68775595  1
  Zn  Zn122  1  0.06499700  0.06200078  0.31807239  1
  Zn  Zn123  1  0.06802199  0.06605899  0.81989560  1
  Zn  Zn124  1  0.05704366  0.56980646  0.31082883  1
  Zn  Zn125  1  0.06299881  0.55868840  0.81258556  1
  Zn  Zn126  1  0.56304468  0.06241575  0.32253977  1
  Zn  Zn127  1  0.56337728  0.05251789  0.81249002  1
  Zn  Zn128  1  0.51448425  0.51764892  0.27683071  1
  Zn  Zn129  1  0.55923785  0.55359985  0.81101866  1
  Zn  Zn130  1  0.43728026  0.19093477  0.43691569  1
  Zn  Zn131  1  0.43861136  0.19540908  0.92894331  1
  Zn  Zn132  1  0.42388188  0.68246831  0.42286154  1
  Zn  Zn133  1  0.46278357  0.68435735  0.93509088  1
  Zn  Zn134  1  0.94140942  0.18575928  0.44157314  1
  Zn  Zn135  1  0.96260709  0.21120383  0.95524186  1
  Zn  Zn136  1  0.92265745  0.73001625  0.42292358  1
  Zn  Zn137  1  0.93304822  0.69088263  0.94067504  1
  Zn  Zn138  1  0.05902811  0.32007257  0.07096316  1
  Zn  Zn139  1  0.06762426  0.31228642  0.56593977  1
  Zn  Zn140  1  0.07437015  0.81730098  0.06571217  1
  Zn  Zn141  1  0.05983330  0.82690366  0.56343435  1
  Zn  Zn142  1  0.56538818  0.30085148  0.06180175  1
  Zn  Zn143  1  0.55531952  0.30520915  0.56724635  1
  Zn  Zn144  1  0.56198888  0.80370271  0.06668680  1
  Zn  Zn145  1  0.56460560  0.81367904  0.56398000  1
  O  O146  1  0.11794370  0.14423636  0.11825491  1
  O  O147  1  0.13206205  0.13016160  0.61308232  1
  O  O148  1  0.10833319  0.61366316  0.12397682  1
  O  O149  1  0.12803894  0.61696324  0.61810616  1
  O  O150  1  0.60912502  0.12038821  0.12477719  1
  O  O151  1  0.63220123  0.10842936  0.63388875  1
  O  O152  1  0.61681089  0.61572068  0.11323245  1
  O  O153  1  0.61358644  0.61332658  0.62672298  1
  O  O154  1  0.36973256  0.35584372  0.38499916  1
  O  O155  1  0.38625663  0.37231858  0.86835595  1
  O  O156  1  0.38176454  0.88661201  0.37667671  1
  O  O157  1  0.38623293  0.88532762  0.87034317  1
  O  O158  1  0.88688558  0.36542465  0.39128308  1
  O  O159  1  0.87269640  0.38862815  0.89024654  1
  O  O160  1  0.88945752  0.83542312  0.38115315  1
  O  O161  1  0.89315729  0.87406237  0.88004142  1
  O  O162  1  0.26189188  0.00549213  0.38336419  1
  O  O163  1  0.26577697  -0.01262550  0.86145155  1
  O  O164  1  0.24734049  0.46921409  0.33293316  1
  O  O165  1  0.25481590  0.50026813  0.85139690  1
  O  O166  1  0.74167485  0.01332080  0.36627317  1
  O  O167  1  0.75510380  -0.00833767  0.87428031  1
  O  O168  1  0.74030809  0.51519571  0.36288500  1
  O  O169  1  0.75559410  0.50069438  0.86578625  1
  O  O170  1  0.23479550  0.50498299  0.12508134  1
  O  O171  1  0.23567350  0.50381936  0.63818006  1
  O  O172  1  0.29712145  0.91303123  0.08277807  1
  O  O173  1  0.25689151  0.98659054  0.63819360  1
  O  O174  1  0.73876643  0.50160295  0.13967523  1
  O  O175  1  0.74575846  0.48837312  0.63199242  1
  O  O176  1  0.73069027  1.01485868  0.14767317  1
  O  O177  1  0.73780122  0.99162314  0.62032324  1
  O  O178  1  -0.01198782  0.36714882  0.26749251  1
  O  O179  1  0.01047561  0.37307453  0.74890824  1
  O  O180  1  -0.01869383  0.86482233  0.23287678  1
  O  O181  1  0.01284713  0.86903782  0.76126003  1
  O  O182  1  0.48796986  0.35673336  0.26127996  1
  O  O183  1  0.51883881  0.37577951  0.74869585  1
  O  O184  1  0.50080623  0.86373742  0.26127746  1
  O  O185  1  0.50255073  0.86450543  0.74903921  1
  O  O186  1  0.50050500  0.12964944  0.25179129  1
  O  O187  1  0.49048873  0.11820578  0.74862589  1
  O  O188  1  0.51280279  0.62807631  0.23008366  1
  O  O189  1  0.49084109  0.62850586  0.74070692  1
  O  O190  1  0.99709827  0.13599576  0.24781864  1
  O  O191  1  1.00359069  0.13641728  0.75289434  1
  O  O192  1  0.98378337  0.62747361  0.23703584  1
  O  O193  1  1.00308929  0.63838578  0.75161893  1
  O  O194  1  0.36703791  0.23280127  0.01882820  1
  O  O195  1  0.38003443  0.25966092  0.51125206  1
  O  O196  1  0.36370607  0.72914816  -0.01999567  1
  O  O197  1  0.37111964  0.74581760  0.50924846  1
  O  O198  1  0.87083553  0.25550417  0.00833627  1
  O  O199  1  0.87135888  0.25417879  0.51382559  1
  O  O200  1  0.86460971  0.75603873  0.00844743  1
  O  O201  1  0.85598511  0.75550516  0.51612090  1
  O  O202  1  0.12125286  0.24130389  0.49087126  1
  O  O203  1  0.11339362  0.26335613  0.98574351  1
  O  O204  1  0.11120140  0.74749565  0.48910688  1
  O  O205  1  0.12364603  0.74898573  0.98568439  1
  O  O206  1  0.64235525  0.25245952  0.50930570  1
  O  O207  1  0.64275956  0.23141902  1.00529647  1
  O  O208  1  0.63935822  0.75582788  0.49303790  1
  O  O209  1  0.63063222  0.73440236  1.00141766  1
  O  O210  1  0.49093905  0.23739889  0.12606683  1
  O  O211  1  0.48368196  0.24850169  0.63450344  1
  O  O212  1  0.49061338  0.73367788  0.12466356  1
  O  O213  1  0.49300245  0.74165318  0.62603218  1
  O  O214  1  0.99162341  0.24827154  0.13657838  1
  O  O215  1  0.99162585  0.25184974  0.63543332  1
  O  O216  1  1.00864675  0.73699041  0.13227788  1
  O  O217  1  0.99301000  0.75497569  0.63688609  1
  O  O218  1  0.01074168  0.25266991  0.37050810  1
  O  O219  1  0.00523906  0.25354376  0.86022235  1
  O  O220  1  0.00878967  0.74574845  0.34602263  1
  O  O221  1  0.00892669  0.75373231  0.86684352  1
  O  O222  1  0.52267833  0.24204629  0.38396528  1
  O  O223  1  0.49943573  0.26365422  0.86066639  1
  O  O224  1  0.51750093  0.75340120  0.38979665  1
  O  O225  1  0.49382140  0.76257827  0.85877035  1
  O  O226  1  0.23522261  0.12253570  0.48758380  1
  O  O227  1  0.22941287  0.13691276  1.01449586  1
  O  O228  1  0.26938468  0.60845959  0.47216374  1
  O  O229  1  0.25528205  0.60897643  0.98729226  1
  O  O230  1  0.75780706  0.13235515  0.48714153  1
  O  O231  1  0.75514652  0.13112231  1.00438037  1
  O  O232  1  0.76519850  0.61822485  0.48495413  1
  O  O233  1  0.74117116  0.63308583  0.99994691  1
  O  O234  1  0.27939392  0.40876234  -0.00459929  1
  O  O235  1  0.26524706  0.38412569  0.49789150  1
  O  O236  1  0.26437368  0.87355328  0.02173455  1
  O  O237  1  0.23800713  0.88359941  0.51488282  1
  O  O238  1  0.75693856  0.35697244  0.00053183  1
  O  O239  1  0.76312149  0.36752789  0.50665313  1
  O  O240  1  0.74368720  0.86141102  0.00009815  1
  O  O241  1  0.74975642  0.87532452  0.49685350  1
  O  O242  1  0.11522635  0.50278228  0.23878353  1
  O  O243  1  0.13292215  0.48868987  0.74834348  1
  O  O244  1  0.13039928  0.98768219  0.26022492  1
  O  O245  1  0.14025078  0.99258965  0.76068233  1
  O  O246  1  0.63085530  0.49431392  0.24024182  1
  O  O247  1  0.63404027  0.48961540  0.74005317  1
  O  O248  1  0.62689415  0.99099985  0.25057726  1
  O  O249  1  0.61887606  0.98935340  0.73457509  1
  O  O250  1  0.38012289  0.00174229  0.26999248  1
  O  O251  1  0.36799943  0.00775138  0.75215828  1
  O  O252  1  0.39929140  0.50704385  0.25995098  1
  O  O253  1  0.36490807  0.50379674  0.73939748  1
  O  O254  1  0.85984717  0.00662837  0.24600495  1
  O  O255  1  0.85841328  -0.01597821  0.73508595  1
  O  O256  1  0.86231350  0.51287418  0.24733742  1
  O  O257  1  0.86612043  0.49078289  0.75959626  1
  O  O258  1  0.11169538  0.36126929  0.38533139  1
  O  O259  1  0.12930954  0.36765663  0.85955910  1
  O  O260  1  0.10943682  0.86796590  0.35973375  1
  O  O261  1  0.12315495  0.86376797  0.87040637  1
  O  O262  1  0.63344371  0.35976398  0.37920860  1
  O  O263  1  0.62081176  0.37989572  0.86229466  1
  O  O264  1  0.61401356  0.87294412  0.36800135  1
  O  O265  1  0.60597620  0.88756864  0.85808674  1
  O  O266  1  0.38985837  0.12472617  0.13750767  1
  O  O267  1  0.37282985  0.12338793  0.63469128  1
  O  O268  1  0.39715737  0.59227210  0.11030246  1
  O  O269  1  0.38117899  0.62956604  0.62778711  1
  O  O270  1  0.88975250  0.13242651  0.13833854  1
  O  O271  1  0.86771287  0.14142676  0.63021424  1
  O  O272  1  0.87808100  0.62264628  0.13287557  1
  O  O273  1  0.86883349  0.64125577  0.63241265  1
  O  O274  1  0.29859222  0.25642414  0.18678533  1
  O  O275  1  0.26999878  0.24604517  0.63024526  1
  O  O276  1  0.26111944  0.72793220  0.10857442  1
  O  O277  1  0.25292340  0.75640998  0.61617753  1
  O  O278  1  0.76531157  0.23927473  0.12149430  1
  O  O279  1  0.76285934  0.25914313  0.62389893  1
  O  O280  1  0.74075184  0.74589091  0.11324274  1
  O  O281  1  0.74976775  0.75420622  0.61368823  1
  O  O282  1  0.23720151  0.24256632  0.36734080  1
  O  O283  1  0.23356059  0.24892487  0.87362112  1
  O  O284  1  0.22774838  0.76176777  0.38746034  1
  O  O285  1  0.24076302  0.74579770  0.87039653  1
  O  O286  1  0.74329193  0.24204109  0.38294592  1
  O  O287  1  0.76182138  0.24441444  0.88792355  1
  O  O288  1  0.74310641  0.74621497  0.38985286  1
  O  O289  1  0.75125726  0.74503587  0.89430291  1
  O  O290  1  0.00729881  0.12766583  0.01832458  1
  O  O291  1  0.01376075  0.11874836  0.49882617  1
  O  O292  1  -0.01147408  0.61316601  0.01372511  1
  O  O293  1  -0.03251915  0.63909778  0.47870484  1
  O  O294  1  0.51241568  0.13148045  0.00035927  1
  O  O295  1  0.50044764  0.11408277  0.50058442  1
  O  O296  1  0.51754541  0.62012353  0.00766688  1
  O  O297  1  0.48962311  0.61240668  0.50725097  1
  O  O298  1  0.49687609  0.37978522  0.49881543  1
  O  O299  1  0.50657893  0.36320606  0.98366724  1
  O  O300  1  0.50190899  0.88115480  0.49196300  1
  O  O301  1  0.50812607  0.86489286  0.98296628  1
  O  O302  1  0.99156882  0.36834016  0.49434804  1
  O  O303  1  0.98486361  0.38993644  1.00696464  1
  O  O304  1  1.00285894  0.89485144  0.49644218  1
  O  O305  1  1.00619843  0.86992498  0.98812616  1
  O  O306  1  0.51395115  0.50177413  0.39223193  1
  O  O307  1  0.49155815  0.48165066  0.86916327  1
  O  O308  1  0.49237039  0.99545589  0.38813060  1
  O  O309  1  0.48693761  0.98740238  0.87303436  1
  O  O310  1  1.00652457  0.48388607  0.37398034  1
  O  O311  1  0.99321222  0.50666564  0.89117008  1
  O  O312  1  0.99702489  1.00704319  0.38894956  1
  O  O313  1  1.00736854  0.98552658  0.87311244  1
  O  O314  1  0.01485958  0.02267810  0.14168237  1
  O  O315  1  0.00188713  0.00398361  0.60969740  1
  O  O316  1  0.00263923  0.50654063  0.11705002  1
  O  O317  1  0.01732593  0.50316472  0.62895002  1
  O  O318  1  0.50560315  0.01320939  0.13646182  1
  O  O319  1  0.50530786  -0.00281292  0.61605355  1
  O  O320  1  0.51873815  0.50279342  0.12998750  1
  O  O321  1  0.50868566  0.50419792  0.61738686  1
  O  O322  1  0.24864088  0.41552109  0.27757157  1
  O  O323  1  0.24701580  0.38004662  0.74682199  1
  O  O324  1  0.24728135  0.86918651  0.25438302  1
  O  O325  1  0.24394251  0.88015631  0.74392468  1
  O  O326  1  0.75913019  0.39155545  0.25977729  1
  O  O327  1  0.74417884  0.38060133  0.74490172  1
  O  O328  1  0.74049207  0.88926454  0.25726795  1
  O  O329  1  0.74044560  0.86856611  0.75356640  1
  O  O330  1  0.23977229  0.11731537  0.27046002  1
  O  O331  1  0.25438368  0.10904566  0.74838700  1
  O  O332  1  0.25197985  0.63348308  0.22248033  1
  O  O333  1  0.26392933  0.62314322  0.74426870  1
  O  O334  1  0.75768087  0.11975339  0.26134263  1
  O  O335  1  0.75109935  0.11289654  0.76517456  1
  O  O336  1  0.75440912  0.61991404  0.25138540  1
  O  O337  1  0.74167203  0.61224374  0.74925985  1
  O  O338  1  0.36130680  0.11973484  0.38144771  1
  O  O339  1  0.38076443  0.11197618  0.86182399  1
  O  O340  1  0.33199773  0.60459527  0.41383496  1
  O  O341  1  0.37647828  0.61918296  0.86563847  1
  O  O342  1  0.86528058  0.13511386  0.36509789  1
  O  O343  1  0.81680886  0.12704069  0.79745976  1
  O  O344  1  0.85777710  0.63757899  0.35606269  1
  O  O345  1  0.87106641  0.60968600  0.88189746  1
  O  O346  1  0.12656315  0.38644925  0.12954462  1
  O  O347  1  0.12514301  0.38332708  0.63773235  1
  O  O348  1  0.12776776  0.87461571  0.14494001  1
  O  O349  1  0.13837904  0.86772784  0.63976730  1
  O  O350  1  0.62397913  0.38297730  0.11549425  1
  O  O351  1  0.63575401  0.37942759  0.63231584  1
  O  O352  1  0.60953121  0.88431181  0.13920179  1
  O  O353  1  0.62274213  0.88386198  0.63558625  1
  O  O354  1  0.11591478  0.24830529  0.26067999  1
  O  O355  1  0.11528024  0.25809997  0.75389654  1
  O  O356  1  0.11274670  0.76617397  0.25677470  1
  O  O357  1  0.11564484  0.75526400  0.75689726  1
  O  O358  1  0.62958345  0.25311190  0.25848483  1
  O  O359  1  0.63203842  0.26352283  0.74631250  1
  O  O360  1  0.63289665  0.76020439  0.26710469  1
  O  O361  1  0.61154192  0.75577558  0.73978743  1
  O  O362  1  0.43931529  0.30107700  0.25800165  1
  O  O363  1  0.37285273  0.23036466  0.74461777  1
  O  O364  1  0.38516376  0.71277759  0.31024925  1
  O  O365  1  0.38191737  0.74198959  0.73806272  1
  O  O366  1  0.88238730  0.24352395  0.24771799  1
  O  O367  1  0.88828544  0.25986606  0.74123461  1
  O  O368  1  0.87985135  0.74002067  0.23939933  1
  O  O369  1  0.88956125  0.75478219  0.74973954  1
  O  O370  1  0.39121652  0.47999551  0.50517898  1
  O  O371  1  0.33582830  0.46056889  0.99893943  1
  O  O372  1  0.38643047  1.00295286  0.49575867  1
  O  O373  1  0.36709067  1.01485049  0.98470803  1
  O  O374  1  0.87467820  0.48062443  0.50536358  1
  O  O375  1  0.87291984  0.49317158  0.99773428  1
  O  O376  1  0.88384527  1.00796080  0.50052554  1
  O  O377  1  0.81529397  1.02319230  0.90511879  1
  O  O378  1  0.13342041  0.01381342  -0.00443530  1
  O  O379  1  0.12183606  0.01224320  0.49964495  1
  O  O380  1  0.10931819  0.49259069  0.00317641  1
  O  O381  1  0.12884672  0.49628150  0.51194349  1
  O  O382  1  0.63236608  0.01251969  0.01593437  1
  O  O383  1  0.61133956  -0.00248323  0.51384546  1
  O  O384  1  0.64074255  0.50789838  0.01334944  1
  O  O385  1  0.61782967  0.48892206  0.51274516  1
  O  O386  1  0.39216317  0.36630825  0.11474067  1
  O  O387  1  0.37420522  0.36456748  0.62336494  1
  O  O388  1  0.36552759  0.87853922  0.10825435  1
  O  O389  1  0.35915786  0.86369063  0.63038743  1
  O  O390  1  0.87755184  0.36571527  0.11951094  1
  O  O391  1  0.87135463  0.36846551  0.61762402  1
  O  O392  1  0.87356521  0.96017036  0.07206084  1
  O  O393  1  0.86480532  0.86656121  0.63553201  1
  O  O394  1  0.13192267  0.13595707  0.38358147  1
  O  O395  1  0.11644611  0.14105662  0.89436785  1
  O  O396  1  0.12487765  0.64256070  0.36566668  1
  O  O397  1  0.12399829  0.63630749  0.87254373  1
  O  O398  1  0.64025021  0.13521553  0.37270154  1
  O  O399  1  0.62409468  0.11204573  0.88984730  1
  O  O400  1  0.63813230  0.64017504  0.37442260  1
  O  O401  1  0.62314202  0.61267896  0.88879258  1
