# generated using pymatgen
data_V73Zn73O256
_symmetry_space_group_name_H-M   'P 1'
_cell_length_a   16.88506361
_cell_length_b   16.87338365
_cell_length_c   16.90520594
_cell_angle_alpha   89.76591132
_cell_angle_beta   89.98660195
_cell_angle_gamma   90.18735155
_symmetry_Int_Tables_number   1
_chemical_formula_structural   V73Zn73O256
_chemical_formula_sum   'V73 Zn73 O256'
_cell_volume   4816.36496025
_cell_formula_units_Z   1
loop_
 _symmetry_equiv_pos_site_id
 _symmetry_equiv_pos_as_xyz
  1  'x, y, z'
loop_
 _atom_site_type_symbol
 _atom_site_label
 _atom_site_symmetry_multiplicity
 _atom_site_fract_x
 _atom_site_fract_y
 _atom_site_fract_z
 _atom_site_occupancy
  V  V0  1  0.85033545  0.36122210  0.49696310  1
  V  V1  1  0.74880103  0.13424164  0.37680359  1
  V  V2  1  0.02438941  0.25017787  0.74897808  1
  V  V3  1  0.38270015  0.24965573  0.13732990  1
  V  V4  1  0.59806860  0.62524257  0.00686835  1
  V  V5  1  0.61907919  0.00340022  0.11870006  1
  V  V6  1  -0.00163739  0.47944821  0.50883644  1
  V  V7  1  0.23658535  0.38230536  0.12821106  1
  V  V8  1  0.01469318  0.38545116  0.88452147  1
  V  V9  1  0.49889843  0.75159236  0.24569165  1
  V  V10  1  0.00426390  0.02250127  0.00125827  1
  V  V11  1  0.60726480  0.49963227  0.12968978  1
  V  V12  1  0.75612543  0.37299622  0.11858211  1
  V  V13  1  0.37468442  0.88084596  0.47118022  1
  V  V14  1  0.11643650  0.37225503  0.29325730  1
  V  V15  1  0.01938028  0.74701044  0.74821653  1
  V  V16  1  0.74562436  0.75292876  0.49578735  1
  V  V17  1  0.23249234  0.87916269  0.13740582  1
  V  V18  1  0.75501353  0.87715113  0.12361752  1
  V  V19  1  -0.00945043  0.50370793  0.02385301  1
  V  V20  1  0.37448678  0.24723519  0.62850925  1
  V  V21  1  0.23892239  0.75675649  0.00039027  1
  V  V22  1  0.02697929  0.87156964  0.87461280  1
  V  V23  1  0.87550004  0.87342542  0.50056495  1
  V  V24  1  0.49789292  0.12222487  0.63314395  1
  V  V25  1  0.37589244  0.75928724  0.11849213  1
  V  V26  1  0.75222959  0.87637984  0.63372417  1
  V  V27  1  0.75048392  0.12657203  0.87308751  1
  V  V28  1  0.87525252  0.00618087  0.36969465  1
  V  V29  1  0.62637763  0.12113774  -0.00462913  1
  V  V30  1  0.36785646  0.62407144  0.24591364  1
  V  V31  1  0.24751623  0.10854166  0.37204110  1
  V  V32  1  0.12645412  0.74815589  0.37064032  1
  V  V33  1  0.26052583  0.74288514  0.48969106  1
  V  V34  1  0.24429407  0.61956334  0.87240876  1
  V  V35  1  0.87530517  0.00016167  0.86771660  1
  V  V36  1  0.28936526  0.01574089  0.78035378  1
  V  V37  1  0.87716321  0.73622191  0.13003159  1
  V  V38  1  0.24616984  0.49043019  0.74652070  1
  V  V39  1  0.49972492  -0.00369035  0.48174484  1
  V  V40  1  0.00720009  -0.00186034  0.49829335  1
  V  V41  1  0.62405502  -0.00337915  0.62975819  1
  V  V42  1  0.13611483  -0.00910980  0.62820781  1
  V  V43  1  0.00419248  0.12472170  0.61658354  1
  V  V44  1  0.62053526  0.88105659  0.25285051  1
  V  V45  1  0.00376949  0.87997163  0.36001213  1
  V  V46  1  0.87280594  0.13157634  0.74031464  1
  V  V47  1  0.49944237  0.37326685  0.36059089  1
  V  V48  1  0.12889857  0.61100878  0.02220329  1
  V  V49  1  0.38786560  0.37418983  0.00066924  1
  V  V50  1  0.24779943  0.24748352  0.48671513  1
  V  V51  1  0.87962563  0.87334869  -0.00560646  1
  V  V52  1  0.37346227  0.50788447  0.38432678  1
  V  V53  1  0.37588494  0.10067527  0.25010724  1
  V  V54  1  0.62535604  0.26002022  0.87409671  1
  V  V55  1  0.38952606  0.50138622  0.88151324  1
  V  V56  1  0.50235519  0.26513437  0.75359242  1
  V  V57  1  0.10926539  0.63010222  0.51319705  1
  V  V58  1  0.12369948  0.02452736  0.13439312  1
  V  V59  1  0.61922628  0.86839670  0.75955523  1
  V  V60  1  0.87911676  0.49476257  0.36788029  1
  V  V61  1  0.75449613  0.00970633  0.24698673  1
  V  V62  1  0.38488334  0.37640721  0.51044258  1
  V  V63  1  0.74705480  0.33474107  0.64619547  1
  V  V64  1  0.62108249  0.74607539  0.37040267  1
  V  V65  1  0.48348432  -0.00319946  -0.00894800  1
  V  V66  1  0.50995729  0.62642357  0.62715849  1
  V  V67  1  -0.00734832  0.23839313  0.24997881  1
  V  V68  1  -0.00043161  0.73248976  0.24627170  1
  V  V69  1  0.47598350  0.86442947  0.87246300  1
  V  V70  1  0.26555648  0.85034474  0.65953220  1
  V  V71  1  0.74751814  0.73867453  -0.00449127  1
  V  V72  1  0.62674409  0.13390855  0.49591004  1
  Zn  Zn73  1  0.19040893  0.33986390  0.67077560  1
  Zn  Zn74  1  0.62679962  0.27504531  0.33935763  1
  Zn  Zn75  1  0.80269039  0.54980693  0.82557633  1
  Zn  Zn76  1  0.76062114  0.63361892  0.35593429  1
  Zn  Zn77  1  0.23274948  0.50657853  0.25091839  1
  Zn  Zn78  1  0.90822182  0.70020005  0.63741835  1
  Zn  Zn79  1  0.21302027  0.25579225  0.00787960  1
  Zn  Zn80  1  0.74159992  0.50177746  0.24721540  1
  Zn  Zn81  1  0.66615919  0.69897450  0.82993126  1
  Zn  Zn82  1  0.19432776  0.20220761  0.20071066  1
  Zn  Zn83  1  0.19529296  0.16391616  0.67814237  1
  Zn  Zn84  1  0.18869314  0.68991191  0.19112083  1
  Zn  Zn85  1  0.19725828  0.69193151  0.69303718  1
  Zn  Zn86  1  0.68295179  0.19520355  0.18294409  1
  Zn  Zn87  1  0.68179282  0.18081951  0.69206414  1
  Zn  Zn88  1  0.68684612  0.68062565  0.18546622  1
  Zn  Zn89  1  0.73003824  0.64334297  0.65374564  1
  Zn  Zn90  1  0.31131521  0.32305046  0.31397971  1
  Zn  Zn91  1  0.32136798  0.31123004  0.81743469  1
  Zn  Zn92  1  0.31025805  0.81724666  0.30733261  1
  Zn  Zn93  1  0.26823372  0.83384732  0.83250997  1
  Zn  Zn94  1  0.81281070  0.32146959  0.29370511  1
  Zn  Zn95  1  0.85520422  0.35788259  0.80496430  1
  Zn  Zn96  1  0.81409579  0.81808451  0.30948247  1
  Zn  Zn97  1  0.83263295  0.71694307  0.80878365  1
  Zn  Zn98  1  0.17598208  0.42389985  0.49078064  1
  Zn  Zn99  1  0.19013476  0.43543114  0.94130283  1
  Zn  Zn100  1  0.18810139  0.93449166  0.43125911  1
  Zn  Zn101  1  0.17941702  0.99202501  0.92427454  1
  Zn  Zn102  1  0.69604004  0.43295486  0.41774031  1
  Zn  Zn103  1  0.68975844  0.44268648  0.94965496  1
  Zn  Zn104  1  0.68670266  0.94187659  0.43661319  1
  Zn  Zn105  1  0.69353410  0.93692703  0.93518447  1
  Zn  Zn106  1  0.30622770  0.06712429  0.06793151  1
  Zn  Zn107  1  0.31878866  0.06307862  0.55366014  1
  Zn  Zn108  1  0.31758627  0.56121736  0.06388752  1
  Zn  Zn109  1  0.31369607  0.56767670  0.56423762  1
  Zn  Zn110  1  0.80989214  0.06123288  0.05175354  1
  Zn  Zn111  1  0.81167483  0.06006350  0.55919188  1
  Zn  Zn112  1  0.80805836  0.55178292  0.06701608  1
  Zn  Zn113  1  0.83165472  0.58062018  0.51520260  1
  Zn  Zn114  1  0.43227953  0.43738684  0.18455205  1
  Zn  Zn115  1  0.43371596  0.44219488  0.69687510  1
  Zn  Zn116  1  0.43518933  0.93652014  0.18215489  1
  Zn  Zn117  1  0.43939222  0.93785665  0.68652277  1
  Zn  Zn118  1  0.95252479  0.41128943  0.19514192  1
  Zn  Zn119  1  0.88614075  0.49294361  0.66561403  1
  Zn  Zn120  1  0.94185546  0.94548426  0.18189851  1
  Zn  Zn121  1  0.94153105  0.92841738  0.69089688  1
  Zn  Zn122  1  0.05542762  0.09282690  0.31125991  1
  Zn  Zn123  1  0.06102573  0.06417234  0.80624966  1
  Zn  Zn124  1  0.06211295  0.55717278  0.32423001  1
  Zn  Zn125  1  0.06722173  0.56073106  0.80941912  1
  Zn  Zn126  1  0.57165994  0.09705957  0.29202131  1
  Zn  Zn127  1  0.55575532  0.05521179  0.81528171  1
  Zn  Zn128  1  0.55192298  0.56167617  0.31059371  1
  Zn  Zn129  1  0.59644724  0.53352003  0.83943165  1
  Zn  Zn130  1  0.43396453  0.18722640  0.42991126  1
  Zn  Zn131  1  0.46525813  0.20891897  0.96673751  1
  Zn  Zn132  1  0.44514907  0.68877944  0.43429857  1
  Zn  Zn133  1  0.42947527  0.68823716  0.93564568  1
  Zn  Zn134  1  0.93990157  0.19264904  0.43020898  1
  Zn  Zn135  1  0.94610064  0.20696590  0.92000518  1
  Zn  Zn136  1  0.94040375  0.69150730  0.43171911  1
  Zn  Zn137  1  0.95196204  0.67754997  0.93167945  1
  Zn  Zn138  1  0.05250073  0.31270919  0.06957010  1
  Zn  Zn139  1  0.06321897  0.30278573  0.55772470  1
  Zn  Zn140  1  0.06153286  0.80987170  0.06096640  1
  Zn  Zn141  1  0.07633794  0.81619145  0.56375470  1
  Zn  Zn142  1  0.56662134  0.31264851  0.07127473  1
  Zn  Zn143  1  0.56691899  0.31683417  0.56373734  1
  Zn  Zn144  1  0.56262128  0.81803196  0.05567552  1
  Zn  Zn145  1  0.56333625  0.82100457  0.55642163  1
  O  O146  1  0.14796581  0.12078938  0.12379632  1
  O  O147  1  0.10787932  0.10971561  0.61591025  1
  O  O148  1  0.13288655  0.61710157  0.12227151  1
  O  O149  1  0.14026173  0.63392852  0.60804416  1
  O  O150  1  0.63324385  0.11149637  0.10939453  1
  O  O151  1  0.61935031  0.11615409  0.61245221  1
  O  O152  1  0.62273835  0.61922658  0.11480765  1
  O  O153  1  0.61288058  0.62321846  0.62254884  1
  O  O154  1  0.38567590  0.38517928  0.38579423  1
  O  O155  1  0.37216842  0.38349058  0.89214917  1
  O  O156  1  0.38235935  0.88026541  0.37255741  1
  O  O157  1  0.37759843  0.86578966  0.86497668  1
  O  O158  1  0.86586128  0.38743771  0.38451342  1
  O  O159  1  0.92306462  0.31963265  0.89169337  1
  O  O160  1  0.88259515  0.88514268  0.38014186  1
  O  O161  1  0.87475561  0.88542231  0.89024902  1
  O  O162  1  0.25893047  0.00807468  0.38137783  1
  O  O163  1  0.28314954  -0.00303056  0.88102642  1
  O  O164  1  0.27601195  0.49523019  0.36327502  1
  O  O165  1  0.25493841  0.50689626  0.87172004  1
  O  O166  1  0.75695964  0.00417438  0.36502271  1
  O  O167  1  0.76548642  0.01129780  0.88074134  1
  O  O168  1  0.76361637  0.50929797  0.37105659  1
  O  O169  1  0.70353658  0.49834321  0.85422408  1
  O  O170  1  0.26347792  0.48660827  0.13570854  1
  O  O171  1  0.26941045  0.50973010  0.64907318  1
  O  O172  1  0.23245041  0.98769673  0.11470468  1
  O  O173  1  0.23459459  1.01903565  0.61697071  1
  O  O174  1  0.73491963  0.49405799  0.12825120  1
  O  O175  1  0.70940426  0.51046368  0.58046695  1
  O  O176  1  0.74848291  0.99582013  0.12808729  1
  O  O177  1  0.73654649  0.98548080  0.61294075  1
  O  O178  1  0.01290917  0.37206909  0.29140192  1
  O  O179  1  0.00715406  0.34894489  0.76608837  1
  O  O180  1  -0.00423347  0.87578178  0.25830102  1
  O  O181  1  0.00640703  0.87858134  0.77219230  1
  O  O182  1  0.49374330  0.37667654  0.26110971  1
  O  O183  1  0.50406960  0.36431429  0.74680465  1
  O  O184  1  0.51098808  0.86797666  0.24049272  1
  O  O185  1  0.50765494  0.87935454  0.76257929  1
  O  O186  1  0.47566658  0.10430909  0.23558417  1
  O  O187  1  0.50820280  0.12666458  0.73512393  1
  O  O188  1  0.48959450  0.64572204  0.25105332  1
  O  O189  1  0.50172092  0.63808415  0.72879860  1
  O  O190  1  1.00364949  0.14484273  0.21375039  1
  O  O191  1  0.99383245  0.11766064  0.72920707  1
  O  O192  1  0.99552732  0.63494907  0.25669217  1
  O  O193  1  1.01298605  0.64547331  0.75679659  1
  O  O194  1  0.37458973  0.26257338  0.00978745  1
  O  O195  1  0.37847014  0.25966811  0.51025659  1
  O  O196  1  0.35909794  0.74254516  0.01657846  1
  O  O197  1  0.36906653  0.76304837  0.48251769  1
  O  O198  1  0.88064328  0.22130045  0.04970003  1
  O  O199  1  0.88232743  0.26541797  0.49367083  1
  O  O200  1  0.86952099  0.75718895  0.01407319  1
  O  O201  1  0.86233652  0.76154176  0.49466144  1
  O  O202  1  0.14960625  0.24416646  0.50350387  1
  O  O203  1  0.10117037  0.24604576  0.99828933  1
  O  O204  1  0.13624685  0.74487264  0.49036434  1
  O  O205  1  0.13443781  0.73379856  1.01045278  1
  O  O206  1  0.61611830  0.23221053  0.49596538  1
  O  O207  1  0.59913230  0.23224657  0.98388791  1
  O  O208  1  0.63341095  0.77088634  0.47815606  1
  O  O209  1  0.63977226  0.74134190  1.01452454  1
  O  O210  1  0.48360024  0.24726267  0.12021627  1
  O  O211  1  0.49851285  0.24390210  0.63586289  1
  O  O212  1  0.48280897  0.76352427  0.12751984  1
  O  O213  1  0.51361219  0.73187994  0.61840268  1
  O  O214  1  0.98879224  0.30023434  0.15858914  1
  O  O215  1  1.00120374  0.22892271  0.62309755  1
  O  O216  1  0.98922259  0.75338686  0.13653912  1
  O  O217  1  1.00795078  0.76296616  0.63729080  1
  O  O218  1  0.01954122  0.20272821  0.35468165  1
  O  O219  1  0.03359141  0.21068824  0.84073373  1
  O  O220  1  0.00057286  0.75940940  0.35965591  1
  O  O221  1  0.00822469  0.76507543  0.87054992  1
  O  O222  1  0.49657440  0.26973389  0.37965603  1
  O  O223  1  0.50378335  0.24175474  0.85920069  1
  O  O224  1  0.51411170  0.75522138  0.36573783  1
  O  O225  1  0.49527924  0.76552878  0.88324458  1
  O  O226  1  0.27191218  0.13900499  0.48193256  1
  O  O227  1  0.25852313  0.14246958  0.98426210  1
  O  O228  1  0.25700283  0.63992169  0.49403230  1
  O  O229  1  0.24087321  0.62657921  1.00146856  1
  O  O230  1  0.73573073  0.11756962  0.49271708  1
  O  O231  1  0.73841724  0.12387595  0.98751423  1
  O  O232  1  0.73856690  0.65186347  0.50100288  1
  O  O233  1  0.75419366  0.63925042  1.00534397  1
  O  O234  1  0.25521486  0.37279017  0.01363674  1
  O  O235  1  0.27241115  0.35851980  0.49827827  1
  O  O236  1  0.24120431  0.85635128  0.00585294  1
  O  O237  1  0.26974230  0.87137314  0.48845725  1
  O  O238  1  0.75547152  0.38432910  0.01531101  1
  O  O239  1  0.75028414  0.35516748  0.48419778  1
  O  O240  1  0.75723443  0.86991138  0.00988442  1
  O  O241  1  0.75911465  0.87356350  0.49964194  1
  O  O242  1  0.12162091  0.48142526  0.26694916  1
  O  O243  1  0.14568289  0.50029034  0.75148660  1
  O  O244  1  0.10814817  1.01407819  0.23299863  1
  O  O245  1  0.11604296  0.99705101  0.72531601  1
  O  O246  1  0.61902925  0.51238960  0.23455913  1
  O  O247  1  0.60154590  0.52031967  0.72923328  1
  O  O248  1  0.63218336  0.99819120  0.23713371  1
  O  O249  1  0.61978450  0.99349706  0.73520884  1
  O  O250  1  0.35970355  0.00165896  0.23608676  1
  O  O251  1  0.38579526  0.01498237  0.75176466  1
  O  O252  1  0.38296066  0.52029521  0.25228103  1
  O  O253  1  0.36717091  0.49282649  0.77442623  1
  O  O254  1  0.86723946  -0.00394101  0.25810604  1
  O  O255  1  0.88672173  0.00777188  0.76297746  1
  O  O256  1  0.89382076  0.49463318  0.26977652  1
  O  O257  1  0.86096432  0.46852721  0.77010746  1
  O  O258  1  0.14069759  0.37357031  0.38976288  1
  O  O259  1  0.11436691  0.36677097  0.88406374  1
  O  O260  1  0.11226399  0.86265876  0.38031332  1
  O  O261  1  0.12585134  0.88607682  0.88371886  1
  O  O262  1  0.60666126  0.37947802  0.38032056  1
  O  O263  1  0.62368811  0.35649498  0.88721751  1
  O  O264  1  0.63385272  0.87302001  0.35643258  1
  O  O265  1  0.62817125  0.88366077  0.85999005  1
  O  O266  1  0.35624738  0.14171103  0.14003838  1
  O  O267  1  0.38906505  0.13578542  0.61461296  1
  O  O268  1  0.36845736  0.64057697  0.13890075  1
  O  O269  1  0.40296459  0.63000086  0.62103868  1
  O  O270  1  0.86963281  0.16474387  0.09743298  1
  O  O271  1  0.88158784  0.10920554  0.63572587  1
  O  O272  1  0.87303585  0.63939744  0.12347503  1
  O  O273  1  0.84236472  0.60717190  0.62596965  1
  O  O274  1  0.25673541  0.26712159  0.12445715  1
  O  O275  1  0.26496604  0.24295176  0.61966755  1
  O  O276  1  0.25264252  0.75991271  0.12190254  1
  O  O277  1  0.24736304  0.75980591  0.59374932  1
  O  O278  1  0.73660827  0.27009052  0.12467460  1
  O  O279  1  0.75304425  0.23645733  0.62175872  1
  O  O280  1  0.76306518  0.76021119  0.12392598  1
  O  O281  1  0.74052684  0.76718649  0.60571247  1
  O  O282  1  0.25869761  0.24761772  0.38420375  1
  O  O283  1  0.26093920  0.23312468  0.88774799  1
  O  O284  1  0.23853929  0.75843834  0.37874364  1
  O  O285  1  0.25504036  0.73600449  0.89450343  1
  O  O286  1  0.74419828  0.23465357  0.36298333  1
  O  O287  1  0.72939210  0.23491753  0.87522616  1
  O  O288  1  0.74268663  0.75417281  0.37743633  1
  O  O289  1  0.75144104  0.75685961  0.89473116  1
  O  O290  1  -0.00904842  0.11952614  -0.01081812  1
  O  O291  1  -0.01533136  0.10962027  0.51094387  1
  O  O292  1  0.01897709  0.61553038  0.00150674  1
  O  O293  1  0.00844172  0.64581039  0.51598880  1
  O  O294  1  0.51089888  0.10434063  -0.01049732  1
  O  O295  1  0.50935429  0.11300338  0.50294151  1
  O  O296  1  0.49936346  0.63652943  0.01258556  1
  O  O297  1  0.50590674  0.62693811  0.51936560  1
  O  O298  1  0.48873446  0.37651067  0.50092264  1
  O  O299  1  0.48743986  0.37368634  1.00453762  1
  O  O300  1  0.48604099  0.88420883  0.50148925  1
  O  O301  1  0.50105494  0.88477764  0.98433577  1
  O  O302  1  0.99251533  0.37813471  0.50216925  1
  O  O303  1  1.00697376  0.39863537  0.99595403  1
  O  O304  1  0.99173127  0.87852502  0.49044720  1
  O  O305  1  0.99507652  0.87275818  0.98939101  1
  O  O306  1  0.48674130  0.49092683  0.37375267  1
  O  O307  1  0.48872668  0.50544152  0.87587318  1
  O  O308  1  0.50958015  1.00363654  0.38573142  1
  O  O309  1  0.49168329  0.98865927  0.88420402  1
  O  O310  1  0.98499590  0.51269750  0.39899590  1
  O  O311  1  1.00222015  0.48532910  0.86896681  1
  O  O312  1  0.99382644  0.99926381  0.37772256  1
  O  O313  1  0.99488963  0.98955083  0.88787666  1
  O  O314  1  0.00664561  0.00753721  0.11105732  1
  O  O315  1  0.00708823  -0.00628399  0.61334848  1
  O  O316  1  -0.00520298  0.49562505  0.12229897  1
  O  O317  1  -0.01628917  0.50462066  0.60506534  1
  O  O318  1  0.51326846  -0.01499874  0.10736405  1
  O  O319  1  0.50633928  0.00593759  0.61694969  1
  O  O320  1  0.50675416  0.49992589  0.12467589  1
  O  O321  1  0.49820411  0.52204248  0.62751226  1
  O  O322  1  0.23639620  0.37655169  0.24361974  1
  O  O323  1  0.25454756  0.38191943  0.75390886  1
  O  O324  1  0.24156397  0.87405436  0.23672550  1
  O  O325  1  0.25023857  0.91821354  0.74727564  1
  O  O326  1  0.73595997  0.38370491  0.24429499  1
  O  O327  1  0.75873888  0.33814036  0.74640181  1
  O  O328  1  0.74509581  0.88622577  0.23919818  1
  O  O329  1  0.73970036  0.87436007  0.73273040  1
  O  O330  1  0.25983364  0.13101241  0.26545700  1
  O  O331  1  0.25009069  0.10686934  0.75710601  1
  O  O332  1  0.26349656  0.62736978  0.25534267  1
  O  O333  1  0.25007858  0.61835781  0.76848005  1
  O  O334  1  0.74689223  0.11274809  0.25575432  1
  O  O335  1  0.76536523  0.12720396  0.75598508  1
  O  O336  1  0.75705816  0.61860540  0.24507689  1
  O  O337  1  0.74530583  0.64564705  0.76537031  1
  O  O338  1  0.37460123  0.12250730  0.35666125  1
  O  O339  1  0.29588364  0.16333608  0.91291064  1
  O  O340  1  0.38486048  0.61612490  0.36858275  1
  O  O341  1  0.36140258  0.60923439  0.89048891  1
  O  O342  1  0.86247626  0.11101620  0.38671368  1
  O  O343  1  0.87140122  0.12242064  0.86440647  1
  O  O344  1  0.86661685  0.61018213  0.40336770  1
  O  O345  1  0.87099960  0.63057252  0.87292656  1
  O  O346  1  0.13787155  0.38281559  0.12065578  1
  O  O347  1  0.13135837  0.38751706  0.59102191  1
  O  O348  1  0.13054946  0.87486363  0.12597316  1
  O  O349  1  0.15705503  0.88287268  0.61844039  1
  O  O350  1  0.62785713  0.39368669  0.11847901  1
  O  O351  1  0.65017410  0.36199447  0.62385660  1
  O  O352  1  0.63727089  0.88263135  0.12908294  1
  O  O353  1  0.62788712  0.87952708  0.63183282  1
  O  O354  1  0.11689797  0.27021107  0.25210892  1
  O  O355  1  0.12563322  0.25002883  0.71699154  1
  O  O356  1  0.10887355  0.74483406  0.25491793  1
  O  O357  1  0.12080432  0.76159975  0.74704702  1
  O  O358  1  0.60461203  0.20388506  0.25942449  1
  O  O359  1  0.61272651  0.24385836  0.76206403  1
  O  O360  1  0.62055796  0.75977756  0.25283133  1
  O  O361  1  0.62236313  0.76878503  0.75181941  1
  O  O362  1  0.37498062  0.26142567  0.23775102  1
  O  O363  1  0.38946685  0.25400901  0.74053949  1
  O  O364  1  0.37925178  0.74689944  0.24348663  1
  O  O365  1  0.28446356  0.77671271  0.72878860  1
  O  O366  1  0.89278641  0.24828708  0.27374917  1
  O  O367  1  0.89878677  0.22973566  0.74557209  1
  O  O368  1  0.88448275  0.75571833  0.23960569  1
  O  O369  1  0.90202638  0.76259565  0.73626827  1
  O  O370  1  0.36786213  0.49050873  0.49427719  1
  O  O371  1  0.37219136  0.48705426  0.99451957  1
  O  O372  1  0.38841734  0.99055615  0.49664524  1
  O  O373  1  0.38703407  1.00473413  1.01180020  1
  O  O374  1  0.88094432  0.47864552  0.49410383  1
  O  O375  1  0.89275609  0.51477728  1.00164201  1
  O  O376  1  0.88128370  0.98955936  0.49003784  1
  O  O377  1  0.88756480  0.99534033  0.99573340  1
  O  O378  1  0.10872036  0.00347039  0.01315242  1
  O  O379  1  0.11184614  -0.01153853  0.50407405  1
  O  O380  1  0.12235150  0.50878677  0.00576695  1
  O  O381  1  0.10626748  0.52059113  0.49379597  1
  O  O382  1  0.62432214  0.00282759  0.00329122  1
  O  O383  1  0.61200504  -0.00370000  0.50825402  1
  O  O384  1  0.61839451  0.51905952  0.00986476  1
  O  O385  1  0.65938128  0.50057338  0.52637403  1
  O  O386  1  0.36960199  0.36798265  0.11759513  1
  O  O387  1  0.38360022  0.36925539  0.61755098  1
  O  O388  1  0.35776462  0.86377518  0.12709348  1
  O  O389  1  0.35687295  0.88171081  0.62565791  1
  O  O390  1  0.85427020  0.38597303  0.13970986  1
  O  O391  1  0.83754496  0.38680086  0.60674626  1
  O  O392  1  0.86955755  0.87746141  0.11522595  1
  O  O393  1  0.86071632  0.88423363  0.61606031  1
  O  O394  1  0.14801713  0.11526074  0.37687629  1
  O  O395  1  0.13865432  0.08773468  0.87889736  1
  O  O396  1  0.11498185  0.64220831  0.38860129  1
  O  O397  1  0.14172135  0.61822118  0.88806497  1
  O  O398  1  0.63358731  0.11197263  0.39051813  1
  O  O399  1  0.63357855  0.11697070  0.87765431  1
  O  O400  1  0.62507262  0.64425348  0.36745483  1
  O  O401  1  0.60919803  0.63263634  0.89937491  1
