# generated using pymatgen
data_V73Zn73O256
_symmetry_space_group_name_H-M   'P 1'
_cell_length_a   16.88523302
_cell_length_b   16.99293965
_cell_length_c   16.94812567
_cell_angle_alpha   90.06873187
_cell_angle_beta   89.81916221
_cell_angle_gamma   89.92770247
_symmetry_Int_Tables_number   1
_chemical_formula_structural   V73Zn73O256
_chemical_formula_sum   'V73 Zn73 O256'
_cell_volume   4862.88977563
_cell_formula_units_Z   1
loop_
 _symmetry_equiv_pos_site_id
 _symmetry_equiv_pos_as_xyz
  1  'x, y, z'
loop_
 _atom_site_type_symbol
 _atom_site_label
 _atom_site_symmetry_multiplicity
 _atom_site_fract_x
 _atom_site_fract_y
 _atom_site_fract_z
 _atom_site_occupancy
  V  V0  1  0.88072927  0.50371027  0.87428968  1
  V  V1  1  0.50663025  0.37560708  0.85109093  1
  V  V2  1  0.87473583  0.01312406  0.37128019  1
  V  V3  1  0.87163353  0.25281052  0.13184769  1
  V  V4  1  0.25491990  0.61587426  0.37196627  1
  V  V5  1  0.62456924  0.25462766  0.85255057  1
  V  V6  1  0.50188398  0.62171505  0.12299393  1
  V  V7  1  0.75221956  0.49401871  0.74594293  1
  V  V8  1  0.73919569  0.24784320  0.00753127  1
  V  V9  1  0.64021412  0.63444918  0.50535742  1
  V  V10  1  0.75141691  0.12296234  0.87964341  1
  V  V11  1  0.37484149  -0.00717384  0.35889041  1
  V  V12  1  0.39740446  0.87388909  0.00772491  1
  V  V13  1  0.62626636  0.87896870  0.74707260  1
  V  V14  1  -0.00709981  0.50880356  0.02896745  1
  V  V15  1  -0.00154472  0.87438663  0.37313903  1
  V  V16  1  -0.00287212  0.12730307  0.13185227  1
  V  V17  1  0.14271219  0.49875137  0.13732681  1
  V  V18  1  0.75571578  0.62785677  0.35162646  1
  V  V19  1  0.75146768  0.85962435  0.62020842  1
  V  V20  1  0.11771465  0.60807409  0.50450306  1
  V  V21  1  0.12387812  0.89194505  0.74747022  1
  V  V22  1  0.38219637  0.86868336  0.49855519  1
  V  V23  1  -0.00523078  0.73941046  0.24418222  1
  V  V24  1  0.75320298  0.62795585  0.86904201  1
  V  V25  1  -0.01981947  0.26158578  0.75561696  1
  V  V26  1  0.49735354  0.62988549  0.62565386  1
  V  V27  1  0.75601181  0.00889646  0.25196412  1
  V  V28  1  0.12270748  0.24783554  0.86250776  1
  V  V29  1  0.86922491  0.37461412  0.00272160  1
  V  V30  1  0.13499452  0.87740949  0.24734559  1
  V  V31  1  0.37530948  -0.00875363  0.86902923  1
  V  V32  1  0.36731943  0.61807636  0.76601100  1
  V  V33  1  0.37189185  0.61707426  0.24743119  1
  V  V34  1  0.01270643  0.26035018  0.25245361  1
  V  V35  1  0.62365713  0.01593542  0.12411117  1
  V  V36  1  0.62650332  0.62213094  0.00094497  1
  V  V37  1  0.62777413  0.75031320  0.37530780  1
  V  V38  1  0.89082540  0.63975764  0.73840752  1
  V  V39  1  0.62407244  0.75773229  0.87427184  1
  V  V40  1  0.49366571  0.49746695  -0.00938230  1
  V  V41  1  0.50194954  0.49484851  0.49400406  1
  V  V42  1  0.34806513  0.39670211  0.48130901  1
  V  V43  1  -0.00050011  0.86236063  0.87499024  1
  V  V44  1  0.40786762  0.14939173  0.74633888  1
  V  V45  1  0.23189178  0.76619165  0.00315738  1
  V  V46  1  0.13550879  -0.00367116  0.12840100  1
  V  V47  1  0.75605073  0.00493465  0.73919682  1
  V  V48  1  0.30880964  0.32377949  0.03329267  1
  V  V49  1  0.87619268  0.73984436  0.12665610  1
  V  V50  1  0.50445780  0.02223603  -0.00177340  1
  V  V51  1  -0.01104607  -0.00213621  0.00123186  1
  V  V52  1  -0.00518743  0.12161706  0.64260014  1
  V  V53  1  0.86296646  0.49253452  0.36404058  1
  V  V54  1  0.12494846  0.74509485  0.37506187  1
  V  V55  1  -0.01574309  0.49602153  0.50294709  1
  V  V56  1  0.35935638  0.27909714  0.62152811  1
  V  V57  1  0.00991362  0.01093871  0.50176438  1
  V  V58  1  0.64399983  0.37710396  0.24478803  1
  V  V59  1  0.63160702  0.49216444  0.62712377  1
  V  V60  1  0.75956147  0.75838992  -0.00339205  1
  V  V61  1  0.41392165  0.14562904  0.24620165  1
  V  V62  1  0.13526046  0.13044541  0.00701470  1
  V  V63  1  0.62593686  0.87367733  0.25013252  1
  V  V64  1  0.49923449  0.75346034  0.75376829  1
  V  V65  1  0.18871587  0.44644084  0.70777497  1
  V  V66  1  0.87493437  0.86107514  0.50386802  1
  V  V67  1  0.75839857  0.87569923  0.12104202  1
  V  V68  1  0.50617732  0.00065307  0.51763556  1
  V  V69  1  0.24832610  0.11993901  0.85114864  1
  V  V70  1  0.12872582  0.61920126  -0.00211422  1
  V  V71  1  0.50051849  0.75065420  0.25066575  1
  V  V72  1  0.01064409  0.37552840  0.37173490  1
  Zn  Zn73  1  0.36731629  0.75861412  0.13198213  1
  Zn  Zn74  1  0.51524380  0.29058049  0.31404592  1
  Zn  Zn75  1  0.87187554  -0.00131280  0.87398459  1
  Zn  Zn76  1  0.00896159  0.38446896  0.88110085  1
  Zn  Zn77  1  0.19599105  0.43360376  0.31241711  1
  Zn  Zn78  1  0.36315467  0.74989650  0.63187314  1
  Zn  Zn79  1  0.22426295  0.10350163  0.42129226  1
  Zn  Zn80  1  0.24516387  0.88006775  0.62257938  1
  Zn  Zn81  1  0.25092444  0.74494017  0.50303265  1
  Zn  Zn82  1  0.19864711  0.32274680  0.17376885  1
  Zn  Zn83  1  0.17280787  0.05677916  0.66031231  1
  Zn  Zn84  1  0.18479191  0.68525695  0.18000886  1
  Zn  Zn85  1  0.19072044  0.68059998  0.68247929  1
  Zn  Zn86  1  0.63589032  0.15377167  0.27258588  1
  Zn  Zn87  1  0.81778986  0.18011832  0.69250685  1
  Zn  Zn88  1  0.68742835  0.68793763  0.18229330  1
  Zn  Zn89  1  0.69177274  0.68739101  0.68893267  1
  Zn  Zn90  1  0.36666457  0.36357339  0.26081805  1
  Zn  Zn91  1  0.31963553  0.30843550  0.82474972  1
  Zn  Zn92  1  0.31465230  0.80920656  0.31914345  1
  Zn  Zn93  1  0.30212773  0.80243635  0.82213113  1
  Zn  Zn94  1  0.81973744  0.31036508  0.31148137  1
  Zn  Zn95  1  0.80318779  0.31981384  0.82598148  1
  Zn  Zn96  1  0.81157394  0.81548722  0.31135285  1
  Zn  Zn97  1  0.81955038  0.81731189  0.81024641  1
  Zn  Zn98  1  0.14159274  0.38560681  0.52272823  1
  Zn  Zn99  1  0.21656066  0.43292033  0.88329566  1
  Zn  Zn100  1  0.19557068  0.93080870  0.43941565  1
  Zn  Zn101  1  0.18115967  0.94357827  0.93436510  1
  Zn  Zn102  1  0.64280761  0.47486109  0.37976380  1
  Zn  Zn103  1  0.67354163  0.43151655  1.06096090  1
  Zn  Zn104  1  0.68718837  0.94105666  0.43430157  1
  Zn  Zn105  1  0.68538476  0.94085789  0.93778589  1
  Zn  Zn106  1  0.31955370  0.06962839  0.07058911  1
  Zn  Zn107  1  0.32695181  0.06039057  0.56840869  1
  Zn  Zn108  1  0.31311947  0.55546261  0.06150685  1
  Zn  Zn109  1  0.30837571  0.55986023  0.57048850  1
  Zn  Zn110  1  0.81029177  0.06994560  0.06667721  1
  Zn  Zn111  1  0.82523406  0.05087984  0.56214224  1
  Zn  Zn112  1  0.80915780  0.56897775  0.05814131  1
  Zn  Zn113  1  0.82079695  0.56469911  0.56581726  1
  Zn  Zn114  1  0.48023534  0.36115859  0.12640507  1
  Zn  Zn115  1  0.43671302  0.44429755  0.68577431  1
  Zn  Zn116  1  0.44565502  0.94042024  0.18238139  1
  Zn  Zn117  1  0.43648882  0.93071734  0.68093139  1
  Zn  Zn118  1  0.82035353  0.44455883  0.18235635  1
  Zn  Zn119  1  0.97505590  0.47006216  0.71108134  1
  Zn  Zn120  1  0.94117400  0.93434156  0.18668757  1
  Zn  Zn121  1  0.94055814  0.93331757  0.68805288  1
  Zn  Zn122  1  0.06803538  0.06817613  0.31050025  1
  Zn  Zn123  1  0.06034989  0.06138116  0.82036412  1
  Zn  Zn124  1  0.05512095  0.55864424  0.31020557  1
  Zn  Zn125  1  0.08242748  0.56575588  0.80790965  1
  Zn  Zn126  1  0.53440164  0.11524877  0.39713202  1
  Zn  Zn127  1  0.57232303  0.06323816  0.81692145  1
  Zn  Zn128  1  0.50250578  0.49117283  0.27467845  1
  Zn  Zn129  1  0.56375457  0.56394284  0.81282541  1
  Zn  Zn130  1  0.38383115  0.18780367  0.43665728  1
  Zn  Zn131  1  0.47322935  0.23748822  0.98480035  1
  Zn  Zn132  1  0.44303226  0.68387941  0.43667347  1
  Zn  Zn133  1  0.43615634  0.69235388  0.93932368  1
  Zn  Zn134  1  1.06914910  0.20419767  0.44974065  1
  Zn  Zn135  1  0.93569722  0.18194705  0.94189584  1
  Zn  Zn136  1  0.93623478  0.68224275  0.43330583  1
  Zn  Zn137  1  0.94262867  0.68332086  0.93800087  1
  Zn  Zn138  1  0.06102209  0.31915093  0.05865502  1
  Zn  Zn139  1  0.14990346  0.25082733  0.62756641  1
  Zn  Zn140  1  0.05919131  0.81522694  0.06272515  1
  Zn  Zn141  1  0.06762145  0.81519465  0.56213467  1
  Zn  Zn142  1  0.59561031  0.23931842  0.12810961  1
  Zn  Zn143  1  0.50204374  0.27678001  0.51320600  1
  Zn  Zn144  1  0.56955808  0.80846309  0.06785958  1
  Zn  Zn145  1  0.56326884  0.81426562  0.56496710  1
  O  O146  1  0.11494957  0.11362872  0.11489850  1
  O  O147  1  0.10028968  0.13673055  0.62705123  1
  O  O148  1  0.12393309  0.60702669  0.12133370  1
  O  O149  1  0.12719614  0.62538112  0.60090234  1
  O  O150  1  0.63109682  0.11335333  0.13322785  1
  O  O151  1  0.71839574  0.17480327  0.60742891  1
  O  O152  1  0.61652060  0.63858848  0.10995776  1
  O  O153  1  0.61909047  0.63124222  0.61688463  1
  O  O154  1  0.37098476  0.39335292  0.38539379  1
  O  O155  1  0.40701507  0.36928753  0.86878068  1
  O  O156  1  0.37207340  0.87985465  0.38885780  1
  O  O157  1  0.36221492  0.88911134  0.89995547  1
  O  O158  1  0.86492971  0.39015001  0.37801205  1
  O  O159  1  0.87241469  0.38807435  0.88863084  1
  O  O160  1  0.88347738  0.87387997  0.38472130  1
  O  O161  1  0.89321623  0.88034304  0.87248573  1
  O  O162  1  0.26686784  0.00171842  0.38612339  1
  O  O163  1  0.26466655  0.01423684  0.88712681  1
  O  O164  1  0.24879610  0.51874948  0.36663511  1
  O  O165  1  0.18303955  0.50819451  0.81213662  1
  O  O166  1  0.76319884  -0.00859263  0.36200059  1
  O  O167  1  0.75068727  0.00662663  0.87183842  1
  O  O168  1  0.75271345  0.51787054  0.37926479  1
  O  O169  1  0.76017202  0.51612992  0.86079183  1
  O  O170  1  0.24245783  0.49710683  0.13101356  1
  O  O171  1  0.24237477  0.50652454  0.64643041  1
  O  O172  1  0.23317516  1.00304992  0.11953244  1
  O  O173  1  0.24647056  0.99355848  0.61172137  1
  O  O174  1  0.74954967  0.49602576  0.11449336  1
  O  O175  1  0.74565497  0.50618767  0.63502734  1
  O  O176  1  0.74602663  0.99470714  0.12875317  1
  O  O177  1  0.75324261  0.99427739  0.63611908  1
  O  O178  1  -0.01130014  0.36489962  0.26444372  1
  O  O179  1  -0.01520155  0.36310121  0.76228991  1
  O  O180  1  0.00732868  0.87052880  0.26070142  1
  O  O181  1  0.00956249  0.87997510  0.76326592  1
  O  O182  1  0.47889389  0.38200751  0.24413981  1
  O  O183  1  0.51087890  0.38574171  0.75224017  1
  O  O184  1  0.51620738  0.86377171  0.23988026  1
  O  O185  1  0.51632475  0.86383458  0.74129046  1
  O  O186  1  0.51218036  0.12208392  0.25838825  1
  O  O187  1  0.50527646  0.12961625  0.75521414  1
  O  O188  1  0.48886970  0.63344341  0.24074622  1
  O  O189  1  0.49783420  0.63498068  0.74463631  1
  O  O190  1  1.00696501  0.14104305  0.23993232  1
  O  O191  1  0.98956169  0.10982645  0.74324546  1
  O  O192  1  1.00004379  0.64196324  0.25382567  1
  O  O193  1  0.98766850  0.61746258  0.75876714  1
  O  O194  1  0.36057455  0.25643193  -0.02500537  1
  O  O195  1  0.35998812  0.29286898  0.50432238  1
  O  O196  1  0.37755662  0.76976054  0.00228877  1
  O  O197  1  0.37828780  0.75713686  0.49824444  1
  O  O198  1  0.87698833  0.26076950  0.00586304  1
  O  O199  1  0.79528761  0.22809369  0.45136577  1
  O  O200  1  0.86489051  0.74671040  0.00648428  1
  O  O201  1  0.88325696  0.76273377  0.49815830  1
  O  O202  1  0.11614337  0.27528412  0.51957110  1
  O  O203  1  0.10797377  0.23060210  0.98966332  1
  O  O204  1  0.11385473  0.73813175  0.48526848  1
  O  O205  1  0.12780775  0.73499240  1.01568481  1
  O  O206  1  0.63048039  0.25490489  0.49589238  1
  O  O207  1  0.64083091  0.24959554  1.01651534  1
  O  O208  1  0.61836415  0.74069188  0.49089009  1
  O  O209  1  0.63542566  0.74655816  0.99034595  1
  O  O210  1  0.49033105  0.25124304  0.09463888  1
  O  O211  1  0.45129720  0.23305083  0.60637856  1
  O  O212  1  0.49786927  0.74282838  0.13408590  1
  O  O213  1  0.50292402  0.74224379  0.63727329  1
  O  O214  1  0.99290309  0.24804417  0.13125005  1
  O  O215  1  0.99002498  0.23631765  0.65603477  1
  O  O216  1  0.99168833  0.75781909  0.13705400  1
  O  O217  1  1.03513116  0.74400828  0.66008451  1
  O  O218  1  0.00381704  0.26353366  0.36546388  1
  O  O219  1  0.00487591  0.23522852  0.86421340  1
  O  O220  1  0.00378813  0.75574656  0.36363238  1
  O  O221  1  0.00261797  0.76445066  0.88624659  1
  O  O222  1  0.48884549  0.22898630  0.40817652  1
  O  O223  1  0.51608632  0.25910021  0.87669449  1
  O  O224  1  0.51671644  0.73780325  0.36129355  1
  O  O225  1  0.51495810  0.74714870  0.86674096  1
  O  O226  1  0.30033643  0.13937314  0.49256837  1
  O  O227  1  0.23679790  0.12213750  1.00302011  1
  O  O228  1  0.23931358  0.62112981  0.48697301  1
  O  O229  1  0.23020521  0.61054237  0.99909938  1
  O  O230  1  0.72806052  0.13313296  0.54584941  1
  O  O231  1  0.75434639  0.13944918  0.99522582  1
  O  O232  1  0.73943716  0.63129593  0.51330893  1
  O  O233  1  0.74463991  0.63778652  0.98824925  1
  O  O234  1  0.26261844  0.39378411  -0.02734494  1
  O  O235  1  0.25023673  0.41421131  0.48944094  1
  O  O236  1  0.23206611  0.86690592  0.00415733  1
  O  O237  1  0.26192030  0.86337348  0.50069613  1
  O  O238  1  0.75758794  0.35881932  0.00308015  1
  O  O239  1  0.68475640  0.29822825  0.51846867  1
  O  O240  1  0.74427682  0.86653371  0.00666194  1
  O  O241  1  0.76224248  0.87940752  0.50996891  1
  O  O242  1  0.12660594  0.50107131  0.24219949  1
  O  O243  1  0.08724484  0.49305748  0.71512558  1
  O  O244  1  0.11922452  0.99390217  0.23699165  1
  O  O245  1  0.12499342  0.99535940  0.75020339  1
  O  O246  1  0.61956370  0.48016701  0.25581062  1
  O  O247  1  0.64170193  0.51447381  0.73869013  1
  O  O248  1  0.64051969  0.98932667  0.23443108  1
  O  O249  1  0.63949682  0.98607057  0.75912224  1
  O  O250  1  0.37347612  -0.02800834  0.26102962  1
  O  O251  1  0.38123662  -0.02939564  0.77350312  1
  O  O252  1  0.38521752  0.51991709  0.25563064  1
  O  O253  1  0.37985518  0.52014291  0.74925594  1
  O  O254  1  0.86686496  -0.00765487  0.25786076  1
  O  O255  1  0.85895039  -0.01014690  0.75234373  1
  O  O256  1  0.86987060  0.50268308  0.26517675  1
  O  O257  1  0.86819692  0.51084782  0.75491911  1
  O  O258  1  0.10968845  0.38812912  0.37535452  1
  O  O259  1  0.12037227  0.34734795  0.88423847  1
  O  O260  1  0.11600115  0.86554508  0.36972326  1
  O  O261  1  0.10951450  0.88582441  0.86470148  1
  O  O262  1  0.61875694  0.36221898  0.34878360  1
  O  O263  1  0.62016156  0.35778801  0.87405038  1
  O  O264  1  0.63847819  0.86135938  0.36145349  1
  O  O265  1  0.63596940  0.86447761  0.86367869  1
  O  O266  1  0.37506246  0.11064163  0.15844006  1
  O  O267  1  0.37220173  0.09705443  0.67088248  1
  O  O268  1  0.37953877  0.62813320  0.13635230  1
  O  O269  1  0.38577363  0.63085526  0.63317781  1
  O  O270  1  0.88779160  0.14035066  0.11755423  1
  O  O271  1  0.88712647  0.12922672  0.61683575  1
  O  O272  1  0.86769478  0.64141326  0.12686656  1
  O  O273  1  0.87909755  0.62775816  0.63888223  1
  O  O274  1  0.23852689  0.26862329  0.08509596  1
  O  O275  1  0.26703365  0.23786709  0.62830401  1
  O  O276  1  0.25665363  0.73856265  0.10589797  1
  O  O277  1  0.24625939  0.75619199  0.61877053  1
  O  O278  1  0.76776428  0.24163524  0.11428087  1
  O  O279  1  0.80936873  0.30567864  0.61152435  1
  O  O280  1  0.75657496  0.75767229  0.11639981  1
  O  O281  1  0.75679530  0.76177924  0.62638932  1
  O  O282  1  0.23525562  0.21353673  0.31840045  1
  O  O283  1  0.23449537  0.22979096  0.86360483  1
  O  O284  1  0.23596847  0.74070545  0.37670156  1
  O  O285  1  0.25609996  0.74328173  0.90739968  1
  O  O286  1  0.76227116  0.23457451  0.38534148  1
  O  O287  1  0.74019278  0.24621089  0.88924750  1
  O  O288  1  0.74219209  0.73823349  0.36546351  1
  O  O289  1  0.74766413  0.74718662  0.87900171  1
  O  O290  1  0.00580081  0.11340776  0.00937071  1
  O  O291  1  0.00277518  0.11172567  0.50015546  1
  O  O292  1  -0.00368323  0.61272711  0.00970588  1
  O  O293  1  0.00914374  0.61112701  0.48628762  1
  O  O294  1  0.50238975  0.11846543  -0.00063807  1
  O  O295  1  0.49014653  0.10088797  0.50593807  1
  O  O296  1  0.50944671  0.62704185  0.00261176  1
  O  O297  1  0.50679738  0.61933881  0.51053225  1
  O  O298  1  0.50606863  0.39508668  0.50700704  1
  O  O299  1  0.50740899  0.40120438  1.01052808  1
  O  O300  1  0.48910732  0.87371254  0.50282867  1
  O  O301  1  0.49893790  0.87870679  1.00188852  1
  O  O302  1  0.99111157  0.39139712  0.47855086  1
  O  O303  1  0.98818249  0.39057848  0.99894130  1
  O  O304  1  0.99070029  0.87970132  0.49419587  1
  O  O305  1  1.00857832  0.89029267  0.99022820  1
  O  O306  1  0.51908517  0.50732316  0.39378873  1
  O  O307  1  0.51652938  0.48664368  0.88270608  1
  O  O308  1  0.47387789  1.00458382  0.38557456  1
  O  O309  1  0.48903260  1.00697763  0.88921008  1
  O  O310  1  0.98310503  0.49228617  0.37220134  1
  O  O311  1  0.98615596  0.50087955  0.87193062  1
  O  O312  1  0.99134348  0.99208551  0.37814597  1
  O  O313  1  0.99327901  1.00500855  0.89355806  1
  O  O314  1  0.00218658  0.00705894  0.11873623  1
  O  O315  1  -0.00718110  0.00922789  0.61173993  1
  O  O316  1  -0.01556846  0.50111060  0.12428839  1
  O  O317  1  -0.03014105  0.48688526  0.59996111  1
  O  O318  1  0.51675374  0.00128067  0.11586037  1
  O  O319  1  0.50666263  -0.00854444  0.61858884  1
  O  O320  1  0.50212003  0.52057546  0.11253216  1
  O  O321  1  0.51551831  0.51391759  0.62287399  1
  O  O322  1  0.25703376  0.35948253  0.26008350  1
  O  O323  1  0.24860498  0.38315255  0.77053316  1
  O  O324  1  0.23323154  0.86383409  0.25535842  1
  O  O325  1  0.22248416  0.85765574  0.75925157  1
  O  O326  1  0.74790991  0.37155700  0.24477296  1
  O  O327  1  0.75579877  0.39610756  0.75420320  1
  O  O328  1  0.74479498  0.87925873  0.23942906  1
  O  O329  1  0.74770394  0.87887071  0.73721406  1
  O  O330  1  0.24154706  0.18337629  0.25260186  1
  O  O331  1  0.22870313  0.11257271  0.75700965  1
  O  O332  1  0.26302459  0.63495270  0.25708362  1
  O  O333  1  0.26876912  0.64355007  0.75374039  1
  O  O334  1  0.75073671  0.10588323  0.24465593  1
  O  O335  1  0.75141912  0.10853358  0.75641104  1
  O  O336  1  0.74603072  0.62221888  0.25352378  1
  O  O337  1  0.76215233  0.62566668  0.75666427  1
  O  O338  1  0.36763020  0.10913099  0.33782139  1
  O  O339  1  0.36191765  0.11363908  0.84357332  1
  O  O340  1  0.36327865  0.63430694  0.36510518  1
  O  O341  1  0.38387095  0.62803712  0.86481200  1
  O  O342  1  0.87780935  0.10758307  0.37230439  1
  O  O343  1  0.85836524  0.12240464  0.87989678  1
  O  O344  1  0.85856009  0.62466642  0.37174559  1
  O  O345  1  0.86831808  0.62110888  0.87261045  1
  O  O346  1  0.11972149  0.39468904  0.12117219  1
  O  O347  1  0.15111142  0.37219635  0.64363779  1
  O  O348  1  0.11650416  0.88948388  0.13266877  1
  O  O349  1  0.11799824  0.87965503  0.64234409  1
  O  O350  1  0.61415051  0.37084828  0.13935572  1
  O  O351  1  0.62609187  0.39806046  0.62455412  1
  O  O352  1  0.63929506  0.87687716  0.13198967  1
  O  O353  1  0.64262214  0.86876428  0.63123310  1
  O  O354  1  0.10880090  0.26698839  0.23502919  1
  O  O355  1  0.10628170  0.24429748  0.76141519  1
  O  O356  1  0.11275438  0.75554342  0.25288293  1
  O  O357  1  0.08805252  0.74489130  0.71642376  1
  O  O358  1  0.61243165  0.26043096  0.24084156  1
  O  O359  1  0.63622868  0.25272868  0.75753289  1
  O  O360  1  0.62100932  0.75464013  0.25391546  1
  O  O361  1  0.62282966  0.75644739  0.75687834  1
  O  O362  1  0.40367279  0.24527429  0.25974666  1
  O  O363  1  0.37789975  0.25072752  0.73868359  1
  O  O364  1  0.38661205  0.74915482  0.25081861  1
  O  O365  1  0.38875210  0.75150815  0.75667510  1
  O  O366  1  0.88159877  0.25223260  0.23534377  1
  O  O367  1  0.87371227  0.24985503  0.76377227  1
  O  O368  1  0.88796147  0.75718789  0.24418857  1
  O  O369  1  0.87933088  0.73878756  0.75521977  1
  O  O370  1  0.39224964  0.50027033  0.50902140  1
  O  O371  1  0.39504506  0.51577594  0.99324781  1
  O  O372  1  0.38608649  0.97836035  0.50570664  1
  O  O373  1  0.39241364  0.99777387  1.00323088  1
  O  O374  1  0.87997285  0.51531196  0.48068488  1
  O  O375  1  0.88027168  0.49769131  0.99426540  1
  O  O376  1  0.88288327  0.99055260  0.48403058  1
  O  O377  1  0.88699634  1.00150541  1.00856441  1
  O  O378  1  0.11532645  0.00945476  0.01046990  1
  O  O379  1  0.10724254  -0.01145757  0.49246571  1
  O  O380  1  0.10377169  0.50824773  0.01718238  1
  O  O381  1  0.10492890  0.50325525  0.50062265  1
  O  O382  1  0.61616527  0.00018459  0.01061134  1
  O  O383  1  0.60425761  -0.01437344  0.49152702  1
  O  O384  1  0.62020358  0.51899962  -0.00184517  1
  O  O385  1  0.62145570  0.51721578  0.51217987  1
  O  O386  1  0.36492042  0.37301489  0.10424246  1
  O  O387  1  0.36558711  0.38273664  0.62208439  1
  O  O388  1  0.37715723  0.87983594  0.10963644  1
  O  O389  1  0.37023022  0.86582906  0.61469221  1
  O  O390  1  0.87579971  0.36153023  0.11617267  1
  O  O391  1  0.86159895  0.32017421  0.56243563  1
  O  O392  1  0.86370344  0.86777040  0.12838343  1
  O  O393  1  0.86944334  0.87824646  0.61157702  1
  O  O394  1  0.12438749  0.12979603  0.38332690  1
  O  O395  1  0.13450964  0.12282552  0.88677883  1
  O  O396  1  0.13305661  0.62840638  0.37552047  1
  O  O397  1  0.10640162  0.62681401  0.90102173  1
  O  O398  1  0.64238732  0.10985682  0.37310923  1
  O  O399  1  0.64012030  0.13795649  0.87408918  1
  O  O400  1  0.64423886  0.63137869  0.39157650  1
  O  O401  1  0.63566349  0.63676426  0.87805300  1
