# generated using pymatgen
data_V73Zn73O256
_symmetry_space_group_name_H-M   'P 1'
_cell_length_a   16.87118983
_cell_length_b   16.82000063
_cell_length_c   16.86687632
_cell_angle_alpha   90.00554410
_cell_angle_beta   90.03557305
_cell_angle_gamma   89.88628391
_symmetry_Int_Tables_number   1
_chemical_formula_structural   V73Zn73O256
_chemical_formula_sum   'V73 Zn73 O256'
_cell_volume   4786.36086448
_cell_formula_units_Z   1
loop_
 _symmetry_equiv_pos_site_id
 _symmetry_equiv_pos_as_xyz
  1  'x, y, z'
loop_
 _atom_site_type_symbol
 _atom_site_label
 _atom_site_symmetry_multiplicity
 _atom_site_fract_x
 _atom_site_fract_y
 _atom_site_fract_z
 _atom_site_occupancy
  V  V0  1  0.75490585  0.73785651  0.51825108  1
  V  V1  1  0.89839966  0.62153039  0.25026668  1
  V  V2  1  0.88344566  0.25288522  0.12030801  1
  V  V3  1  0.37424693  0.87728791  0.49843986  1
  V  V4  1  0.00041533  0.26261313  0.26823937  1
  V  V5  1  0.87956205  0.38099290  -0.01010674  1
  V  V6  1  0.76020501  0.61467063  0.87753678  1
  V  V7  1  0.64141708  -0.03562699  0.62146458  1
  V  V8  1  0.49508432  0.50320899  -0.01322489  1
  V  V9  1  0.13733643  0.14230746  -0.00040909  1
  V  V10  1  0.23530125  0.88366226  0.62699969  1
  V  V11  1  0.13444648  0.37143451  0.25294721  1
  V  V12  1  0.37034006  0.13173401  0.27049041  1
  V  V13  1  0.74923299  0.11445936  0.37181355  1
  V  V14  1  -0.01470147  0.25225018  0.74746923  1
  V  V15  1  0.35943145  0.25126510  0.12203064  1
  V  V16  1  0.86944334  0.49026952  0.38181766  1
  V  V17  1  0.12160445  0.50182101  0.62272031  1
  V  V18  1  0.88346347  0.88453116  0.52981242  1
  V  V19  1  0.49727624  0.87473424  0.36738634  1
  V  V20  1  0.36794592  0.37019233  -0.00124323  1
  V  V21  1  -0.00026380  0.01365950  0.00338421  1
  V  V22  1  0.62341547  0.25114043  0.38022609  1
  V  V23  1  0.11355086  0.88928100  0.74843275  1
  V  V24  1  0.08422468  0.09176310  0.50392096  1
  V  V25  1  -0.00462499  0.48016765  0.49809691  1
  V  V26  1  0.62367873  0.62559195  -0.00407474  1
  V  V27  1  0.75933060  0.49541014  0.75995861  1
  V  V28  1  0.74955473  0.37038510  0.12419668  1
  V  V29  1  0.35697065  0.75860215  0.10957395  1
  V  V30  1  0.62538688  0.37776085  0.25344100  1
  V  V31  1  0.63072484  0.76060220  0.87677482  1
  V  V32  1  0.00923139  0.72698803  0.75945693  1
  V  V33  1  0.25644631  0.36531707  0.61934648  1
  V  V34  1  0.25431754  0.00701740  0.27460275  1
  V  V35  1  0.89261081  0.71910406  0.63694619  1
  V  V36  1  0.76562070  0.12410387  0.88754240  1
  V  V37  1  0.14054319  0.00272133  0.12330414  1
  V  V38  1  0.61920561  0.50636261  0.12389737  1
  V  V39  1  0.50110537  -0.00145932  0.50463747  1
  V  V40  1  0.12097598  0.36695161  0.75919346  1
  V  V41  1  0.50235497  0.75544661  0.74717728  1
  V  V42  1  0.49670580  0.35206814  0.87274546  1
  V  V43  1  0.61609428  0.35892591  0.74849759  1
  V  V44  1  0.76015815  0.25323429  0.50536009  1
  V  V45  1  0.63192892  0.90068472  0.24199637  1
  V  V46  1  0.24320097  0.24406939  0.47425478  1
  V  V47  1  0.49691266  0.74186623  0.22908637  1
  V  V48  1  0.00040235  0.50936543  -0.00520584  1
  V  V49  1  0.26163869  0.50436175  0.24802130  1
  V  V50  1  0.38319263  0.38805510  0.49202398  1
  V  V51  1  0.40888230  0.14981110  0.74474107  1
  V  V52  1  0.12030614  0.50693515  0.12327504  1
  V  V53  1  0.24473772  0.12608035  0.84838632  1
  V  V54  1  0.00044648  0.87363895  0.88476160  1
  V  V55  1  0.49907184  0.25448902  0.25861757  1
  V  V56  1  0.25263798  0.50067561  0.75270566  1
  V  V57  1  0.88076401  0.12547502  0.24945876  1
  V  V58  1  0.11358793  0.63053928  0.49344110  1
  V  V59  1  0.46634132  0.88188252  0.87405068  1
  V  V60  1  0.74731890  0.51388131  0.25507706  1
  V  V61  1  0.75838633  0.37175738  0.62286225  1
  V  V62  1  0.01578466  0.76069756  0.25970629  1
  V  V63  1  0.61119516  0.50874452  0.63049679  1
  V  V64  1  0.51367550  0.12617344  0.12043627  1
  V  V65  1  0.88644615  -0.01434178  0.36555428  1
  V  V66  1  0.23797432  0.63213434  0.88559334  1
  V  V67  1  0.87940930  0.11542741  0.73627589  1
  V  V68  1  0.37104898  0.74565585  0.62710826  1
  V  V69  1  0.37976663  0.62110074  0.75951256  1
  V  V70  1  0.24544297  0.74584424  0.48708993  1
  V  V71  1  0.64467679  0.75135587  0.36493207  1
  V  V72  1  0.62647640  0.12172156  0.51241538  1
  Zn  Zn73  1  0.74421057  -0.01639515  0.76964475  1
  Zn  Zn74  1  0.49171232  0.42007727  0.37757934  1
  Zn  Zn75  1  0.61989199  0.20607883  0.92858573  1
  Zn  Zn76  1  0.49057194  -0.00499478  0.00119557  1
  Zn  Zn77  1  0.87040271  0.87144595  0.00707224  1
  Zn  Zn78  1  0.87923521  0.74008410  0.11857568  1
  Zn  Zn79  1  0.14247838  0.86694523  0.25082289  1
  Zn  Zn80  1  0.27511940  0.60994672  0.37445030  1
  Zn  Zn81  1  0.58468487  0.59655091  0.47880290  1
  Zn  Zn82  1  0.18061598  0.18368966  0.19045038  1
  Zn  Zn83  1  0.17275564  0.18444007  0.67277364  1
  Zn  Zn84  1  0.19007761  0.68222361  0.18363351  1
  Zn  Zn85  1  0.18618817  0.68815625  0.68392395  1
  Zn  Zn86  1  0.69280588  0.18801349  0.18930161  1
  Zn  Zn87  1  0.69920871  0.17859876  0.69589181  1
  Zn  Zn88  1  0.68453478  0.70214433  0.17816579  1
  Zn  Zn89  1  0.68783634  0.68262059  0.69853216  1
  Zn  Zn90  1  0.31529138  0.32288380  0.31611946  1
  Zn  Zn91  1  0.31034432  0.30277282  0.80790839  1
  Zn  Zn92  1  0.31811035  0.81388516  0.30375390  1
  Zn  Zn93  1  0.29757686  0.80907743  0.81009293  1
  Zn  Zn94  1  0.80981165  0.31181216  0.31450003  1
  Zn  Zn95  1  0.80223986  0.29940451  0.81569744  1
  Zn  Zn96  1  0.80805212  0.81164257  0.26446182  1
  Zn  Zn97  1  0.81937106  0.80189858  0.81865226  1
  Zn  Zn98  1  0.18490943  0.43537647  0.43259527  1
  Zn  Zn99  1  0.18678965  0.44477835  0.93808381  1
  Zn  Zn100  1  0.18068769  0.93597303  0.43680716  1
  Zn  Zn101  1  0.17720360  0.96182603  0.91685800  1
  Zn  Zn102  1  0.67169004  0.44988085  0.43455224  1
  Zn  Zn103  1  0.67167315  0.39845921  0.95278519  1
  Zn  Zn104  1  0.69865315  0.92026235  0.43950648  1
  Zn  Zn105  1  0.65879196  0.99611113  0.93726346  1
  Zn  Zn106  1  0.31692622  0.06620392  0.05837851  1
  Zn  Zn107  1  0.30565002  0.06583114  0.56068357  1
  Zn  Zn108  1  0.31419040  0.56880987  0.07465475  1
  Zn  Zn109  1  0.31334129  0.56285853  0.56771546  1
  Zn  Zn110  1  0.82564542  0.06797927  0.05780565  1
  Zn  Zn111  1  0.82281104  0.05478500  0.55637160  1
  Zn  Zn112  1  0.81097686  0.55968044  0.06538170  1
  Zn  Zn113  1  0.79960970  0.55925888  0.56083269  1
  Zn  Zn114  1  0.43958762  0.43642284  0.18067458  1
  Zn  Zn115  1  0.43513976  0.43154853  0.68722991  1
  Zn  Zn116  1  0.42735071  0.94332334  0.18336594  1
  Zn  Zn117  1  0.43989011  0.93772284  0.68105755  1
  Zn  Zn118  1  0.93941379  0.44075467  0.18641191  1
  Zn  Zn119  1  0.94088698  0.43979332  0.68596985  1
  Zn  Zn120  1  0.94539210  0.94297088  0.18979136  1
  Zn  Zn121  1  0.90066354  0.91202605  0.70724653  1
  Zn  Zn122  1  0.06780195  0.06975150  0.31694638  1
  Zn  Zn123  1  0.05491533  0.06914101  0.81545115  1
  Zn  Zn124  1  0.07142820  0.55114529  0.32226780  1
  Zn  Zn125  1  0.06727959  0.54634179  0.82168478  1
  Zn  Zn126  1  0.55260854  0.06734346  0.32117956  1
  Zn  Zn127  1  0.56830930  0.05592536  0.79988100  1
  Zn  Zn128  1  0.55686357  0.57376090  0.30861178  1
  Zn  Zn129  1  0.56644615  0.55803746  0.81067668  1
  Zn  Zn130  1  0.44045254  0.20273569  0.47645246  1
  Zn  Zn131  1  0.41801140  0.15970058  0.94498083  1
  Zn  Zn132  1  0.44146787  0.68986742  0.43614063  1
  Zn  Zn133  1  0.43312925  0.69434341  0.94037800  1
  Zn  Zn134  1  0.93816239  0.18390344  0.43871180  1
  Zn  Zn135  1  0.94704581  0.20083901  0.92817508  1
  Zn  Zn136  1  0.93046141  0.68656708  0.42895524  1
  Zn  Zn137  1  0.94009870  0.69408001  0.94277298  1
  Zn  Zn138  1  0.06253521  0.32111746  0.06883347  1
  Zn  Zn139  1  0.06673336  0.30498818  0.56593756  1
  Zn  Zn140  1  0.03029910  0.83332479  0.09637134  1
  Zn  Zn141  1  0.03820664  0.91437132  0.56462172  1
  Zn  Zn142  1  0.55511918  0.30974472  0.06654823  1
  Zn  Zn143  1  0.55748112  0.30950988  0.57151677  1
  Zn  Zn144  1  0.56679935  0.83984682  0.04943983  1
  Zn  Zn145  1  0.56055514  0.78516375  0.54724279  1
  O  O146  1  0.12597455  0.11776222  0.11215880  1
  O  O147  1  0.12848803  0.12496556  0.58996376  1
  O  O148  1  0.12433269  0.60745801  0.12520926  1
  O  O149  1  0.13747299  0.61018744  0.60712007  1
  O  O150  1  0.61277356  0.12798710  0.14022401  1
  O  O151  1  0.63620130  0.12150181  0.61236970  1
  O  O152  1  0.63456832  0.61787472  0.10894180  1
  O  O153  1  0.61986565  0.60896275  0.64393151  1
  O  O154  1  0.38220000  0.38684052  0.38295680  1
  O  O155  1  0.38716252  0.36214351  0.88393676  1
  O  O156  1  0.38558454  0.87228990  0.38661199  1
  O  O157  1  0.36694229  0.88403775  0.86040909  1
  O  O158  1  0.87263743  0.38995690  0.37150014  1
  O  O159  1  0.85961558  0.36514531  0.89333637  1
  O  O160  1  0.86777523  0.89162044  0.33761226  1
  O  O161  1  0.89677664  0.86982174  0.88671560  1
  O  O162  1  0.24890648  0.01055351  0.37347245  1
  O  O163  1  0.26012009  0.02642568  0.88207267  1
  O  O164  1  0.24873393  0.49310533  0.35534281  1
  O  O165  1  0.25000584  0.50402510  0.85640820  1
  O  O166  1  0.75026181  0.01218901  0.37791879  1
  O  O167  1  0.75604955  0.01108984  0.88235279  1
  O  O168  1  0.75883257  0.49666406  0.37051128  1
  O  O169  1  0.74406082  0.50121504  0.86648650  1
  O  O170  1  0.23772021  0.50049043  0.13534677  1
  O  O171  1  0.24282956  0.49352532  0.63340814  1
  O  O172  1  0.24352202  1.00451362  0.12076804  1
  O  O173  1  0.24720168  0.98187789  0.61400208  1
  O  O174  1  0.73898156  0.49183287  0.13592234  1
  O  O175  1  0.74184260  0.48498939  0.63886773  1
  O  O176  1  0.75426915  0.97472570  0.10438503  1
  O  O177  1  0.74139054  0.98446681  0.60571498  1
  O  O178  1  0.00151697  0.36581147  0.25139672  1
  O  O179  1  0.01523295  0.37832290  0.74924685  1
  O  O180  1  0.00851557  0.86438741  0.25295799  1
  O  O181  1  0.00481802  0.86663291  0.75966762  1
  O  O182  1  0.50925419  0.37383432  0.25760289  1
  O  O183  1  0.50342144  0.37102473  0.76101008  1
  O  O184  1  0.49702993  0.88258407  0.26240894  1
  O  O185  1  0.48963747  0.86191699  0.75763879  1
  O  O186  1  0.48751525  0.13664908  0.24799884  1
  O  O187  1  0.50851363  0.14247894  0.75457931  1
  O  O188  1  0.50926696  0.64109095  0.23535059  1
  O  O189  1  0.48662921  0.63539509  0.75979120  1
  O  O190  1  0.98663880  0.14027579  0.25691625  1
  O  O191  1  0.99245982  0.14149171  0.75026502  1
  O  O192  1  0.99833568  0.60889569  0.25062844  1
  O  O193  1  1.00827933  0.62789752  0.76737379  1
  O  O194  1  0.37546121  0.25689931  0.01125886  1
  O  O195  1  0.35292479  0.27638470  0.49029633  1
  O  O196  1  0.36436748  0.75328630  0.00561230  1
  O  O197  1  0.36584861  0.76093294  0.50878355  1
  O  O198  1  0.88233123  0.25867569  0.01520363  1
  O  O199  1  0.85812944  0.24927110  0.49433942  1
  O  O200  1  0.86793324  0.75547984  0.00348668  1
  O  O201  1  0.86582998  0.72554676  0.51597381  1
  O  O202  1  0.14356026  0.26217869  0.49637074  1
  O  O203  1  0.11149934  0.23940269  1.00658248  1
  O  O204  1  0.13943282  0.73680251  0.50054452  1
  O  O205  1  0.18416869  0.80492393  1.00673771  1
  O  O206  1  0.63178179  0.24183896  0.49332338  1
  O  O207  1  0.63870239  0.29215642  0.99617511  1
  O  O208  1  0.65524868  0.77296162  0.47601082  1
  O  O209  1  0.61608375  0.74122535  0.98461347  1
  O  O210  1  0.49738846  0.24870250  0.14521020  1
  O  O211  1  0.48693737  0.22477054  0.57969572  1
  O  O212  1  0.50713033  0.76035351  0.13016771  1
  O  O213  1  0.48751971  0.76061387  0.64297520  1
  O  O214  1  0.98433712  0.25403518  0.13767404  1
  O  O215  1  0.99902441  0.26403439  0.64412438  1
  O  O216  1  0.99953463  0.73719542  0.14908642  1
  O  O217  1  0.99389091  0.72330643  0.63987960  1
  O  O218  1  -0.00695458  0.25472459  0.36756365  1
  O  O219  1  0.00112115  0.26203467  0.85111205  1
  O  O220  1  0.00515417  0.73558093  0.35912218  1
  O  O221  1  0.00557119  0.75799163  0.86726843  1
  O  O222  1  0.51116536  0.24689803  0.36940493  1
  O  O223  1  0.50485584  0.25330823  0.88375144  1
  O  O224  1  0.50620101  0.76692121  0.36352456  1
  O  O225  1  0.50316711  0.76322369  0.86633010  1
  O  O226  1  0.26562510  0.14546041  0.49540396  1
  O  O227  1  0.23823559  0.13798792  1.00284902  1
  O  O228  1  0.25580737  0.63859791  0.49724399  1
  O  O229  1  0.25913594  0.60716800  0.98146254  1
  O  O230  1  0.74611023  0.13480357  0.49274241  1
  O  O231  1  0.75967128  0.12854942  0.99020082  1
  O  O232  1  0.73873242  0.63818266  0.49814737  1
  O  O233  1  0.73785815  0.61047755  0.98654204  1
  O  O234  1  0.27093992  0.38520380  -0.00915522  1
  O  O235  1  0.25174852  0.37708828  0.50900720  1
  O  O236  1  0.22924308  0.86116701  -0.00483996  1
  O  O237  1  0.25282454  0.86657305  0.50696036  1
  O  O238  1  0.76674357  0.39104152  0.01798798  1
  O  O239  1  0.74070757  0.36432093  0.51282828  1
  O  O240  1  0.75511805  0.91008635  0.06608548  1
  O  O241  1  0.78336747  0.85369160  0.48859757  1
  O  O242  1  0.12869269  0.48980776  0.24041663  1
  O  O243  1  0.13201727  0.49199617  0.74011169  1
  O  O244  1  0.14503787  1.02261985  0.24089556  1
  O  O245  1  0.10536780  0.98850691  0.74168979  1
  O  O246  1  0.62759617  0.49497408  0.24337683  1
  O  O247  1  0.63125068  0.48585556  0.74416298  1
  O  O248  1  0.61152973  1.00015080  0.25267967  1
  O  O249  1  0.63313043  0.99134045  0.72488923  1
  O  O250  1  0.36577365  0.02111810  0.25272897  1
  O  O251  1  0.37931299  0.03752747  0.70945526  1
  O  O252  1  0.36176289  0.49154996  0.23887372  1
  O  O253  1  0.36972254  0.51475564  0.74072910  1
  O  O254  1  0.87820634  0.02016222  0.24598537  1
  O  O255  1  0.90064870  0.01956030  0.75723930  1
  O  O256  1  0.86647784  0.50282661  0.25795916  1
  O  O257  1  0.85824772  0.48549400  0.75271776  1
  O  O258  1  0.11960394  0.38317020  0.35326572  1
  O  O259  1  0.13876773  0.37752036  0.85699559  1
  O  O260  1  0.13127912  0.87225844  0.36249711  1
  O  O261  1  0.12295225  0.87879573  0.85529921  1
  O  O262  1  0.63028983  0.36378848  0.36706745  1
  O  O263  1  0.61080125  0.37454654  0.85778786  1
  O  O264  1  0.61608315  0.87188334  0.36531658  1
  O  O265  1  0.63956168  0.85757086  0.87515267  1
  O  O266  1  0.38344902  0.14576266  0.13229949  1
  O  O267  1  0.38431022  0.09707907  0.64595882  1
  O  O268  1  0.37662669  0.65110871  0.12040864  1
  O  O269  1  0.36874165  0.63883237  0.63690390  1
  O  O270  1  0.86537871  0.14145074  0.13898284  1
  O  O271  1  0.86764359  0.12137389  0.63639032  1
  O  O272  1  0.86780618  0.61756623  0.14732284  1
  O  O273  1  0.86300509  0.62143740  0.63478116  1
  O  O274  1  0.26163385  0.25109304  0.13334255  1
  O  O275  1  0.24588975  0.26528253  0.62248612  1
  O  O276  1  0.25704530  0.75906656  0.13559373  1
  O  O277  1  0.25459793  0.75922797  0.61607924  1
  O  O278  1  0.76160817  0.26352911  0.13578222  1
  O  O279  1  0.74549208  0.25768252  0.61545212  1
  O  O280  1  0.77294959  0.76704616  0.16027073  1
  O  O281  1  0.74273943  0.74238412  0.61897897  1
  O  O282  1  0.24447738  0.25391321  0.37351864  1
  O  O283  1  0.25366533  0.22835058  0.87137808  1
  O  O284  1  0.25878434  0.75418243  0.38688075  1
  O  O285  1  0.24566882  0.73356352  0.87371010  1
  O  O286  1  0.74197959  0.24578479  0.38607425  1
  O  O287  1  0.73084233  0.22326586  0.86315685  1
  O  O288  1  0.74317963  0.75374691  0.35031402  1
  O  O289  1  0.73683929  0.73016523  0.86193927  1
  O  O290  1  0.00528801  0.11609041  -0.01117565  1
  O  O291  1  -0.01583582  0.11248540  0.51163665  1
  O  O292  1  -0.00428318  0.60974071  -0.00318146  1
  O  O293  1  0.01303417  0.62455106  0.49502438  1
  O  O294  1  0.51476684  0.15169869  0.02010125  1
  O  O295  1  0.51079030  0.10327991  0.49033098  1
  O  O296  1  0.50619532  0.61080069  -0.01184170  1
  O  O297  1  0.52027222  0.68036981  0.51427457  1
  O  O298  1  0.48631821  0.37555160  0.49960628  1
  O  O299  1  0.49458193  0.38064781  0.98599563  1
  O  O300  1  0.49261488  0.87539136  0.49222252  1
  O  O301  1  0.47721325  0.86915324  0.97639286  1
  O  O302  1  0.99902699  0.38178893  0.50226675  1
  O  O303  1  0.98313305  0.37729364  1.00417847  1
  O  O304  1  0.96653321  0.84947962  0.48716010  1
  O  O305  1  1.02210192  0.87482829  0.98690794  1
  O  O306  1  0.55798024  0.50694720  0.39773207  1
  O  O307  1  0.50005577  0.49001339  0.88405146  1
  O  O308  1  0.50608592  0.98427783  0.39122907  1
  O  O309  1  0.50383351  0.97771054  0.86142115  1
  O  O310  1  0.98914080  0.49852736  0.39095905  1
  O  O311  1  1.00552894  0.48855706  0.89560373  1
  O  O312  1  0.98581614  0.99768741  0.36048544  1
  O  O313  1  1.01237925  0.98671673  0.89092187  1
  O  O314  1  0.01521191  0.00365323  0.11040319  1
  O  O315  1  -0.06569438  -0.04504561  0.60107194  1
  O  O316  1  0.01036842  0.49638859  0.11676661  1
  O  O317  1  0.00746645  0.49779636  0.61105364  1
  O  O318  1  0.48648278  0.02567995  0.12525641  1
  O  O319  1  0.52049389  -0.01506330  0.60946837  1
  O  O320  1  0.51438890  0.49309801  0.11371229  1
  O  O321  1  0.51138125  0.49441457  0.62999730  1
  O  O322  1  0.23955906  0.37907206  0.24724754  1
  O  O323  1  0.24744327  0.38029713  0.73849336  1
  O  O324  1  0.25912627  0.90287683  0.25645510  1
  O  O325  1  0.23104646  0.87065836  0.73474055  1
  O  O326  1  0.73997186  0.38275117  0.24611137  1
  O  O327  1  0.73715867  0.37503272  0.74419695  1
  O  O328  1  0.73156650  0.89816041  0.25437588  1
  O  O329  1  0.79573365  0.88686628  0.74945949  1
  O  O330  1  0.26367747  0.12661824  0.25307462  1
  O  O331  1  0.22955540  0.12039037  0.74852014  1
  O  O332  1  0.24720302  0.60883789  0.25449745  1
  O  O333  1  0.25752151  0.62006905  0.75395179  1
  O  O334  1  0.76479591  0.13853660  0.26369274  1
  O  O335  1  0.76651947  0.10873443  0.75623265  1
  O  O336  1  0.73809644  0.61281830  0.24823635  1
  O  O337  1  0.74608446  0.60501028  0.76301720  1
  O  O338  1  0.38383547  0.13972134  0.36715213  1
  O  O339  1  0.36811822  0.13200888  0.84151675  1
  O  O340  1  0.38715157  0.61993606  0.37419768  1
  O  O341  1  0.36719660  0.62776770  0.86164182  1
  O  O342  1  0.86827008  0.11589574  0.36543284  1
  O  O343  1  0.86862540  0.13552019  0.86892314  1
  O  O344  1  0.87574651  0.60710130  0.35870685  1
  O  O345  1  0.85774624  0.62568285  0.88257902  1
  O  O346  1  0.12130612  0.38371224  0.14135160  1
  O  O347  1  0.13716890  0.38640524  0.62973264  1
  O  O348  1  0.12353135  0.89822957  0.13704946  1
  O  O349  1  0.12718136  0.87306173  0.62956717  1
  O  O350  1  0.62998917  0.38240475  0.13778391  1
  O  O351  1  0.62494269  0.37943189  0.63622148  1
  O  O352  1  0.61663643  0.87687348  0.14510023  1
  O  O353  1  0.62698716  0.86598870  0.61202939  1
  O  O354  1  0.10987453  0.25777768  0.24602999  1
  O  O355  1  0.12106554  0.26448974  0.74208706  1
  O  O356  1  0.12073064  0.74798885  0.24766936  1
  O  O357  1  0.11006365  0.75461072  0.74082704  1
  O  O358  1  0.61970111  0.25864733  0.25879498  1
  O  O359  1  0.62649332  0.26008519  0.73950635  1
  O  O360  1  0.61343723  0.76583863  0.25438640  1
  O  O361  1  0.60807389  0.74257358  0.76141404  1
  O  O362  1  0.38041977  0.25072084  0.24534800  1
  O  O363  1  0.38115003  0.24760086  0.73339054  1
  O  O364  1  0.39281981  0.75545090  0.24079066  1
  O  O365  1  0.37843110  0.74120265  0.74630585  1
  O  O366  1  0.88348518  0.24832867  0.24793745  1
  O  O367  1  0.87860771  0.24390971  0.74790104  1
  O  O368  1  0.89472876  0.72867227  0.25922441  1
  O  O369  1  0.89313994  0.73972653  0.74659892  1
  O  O370  1  0.36976099  0.48884379  0.50437820  1
  O  O371  1  0.39204568  0.48678540  1.01175566  1
  O  O372  1  0.39111219  0.99045156  0.51243428  1
  O  O373  1  0.39571780  1.05039491  0.98243264  1
  O  O374  1  0.88135998  0.50375441  0.49220377  1
  O  O375  1  0.88643594  0.49010932  1.00734297  1
  O  O376  1  0.86654048  0.98499319  0.47275845  1
  O  O377  1  0.89659768  0.99289647  1.00706245  1
  O  O378  1  0.12302300  0.01067105  0.00962443  1
  O  O379  1  0.10153517  -0.01408677  0.50320837  1
  O  O380  1  0.11376224  0.48743119  0.01337117  1
  O  O381  1  0.11110360  0.50142156  0.50320619  1
  O  O382  1  0.59593513  -0.04358353  0.01506725  1
  O  O383  1  0.62261026  -0.00170745  0.50569749  1
  O  O384  1  0.61378151  0.50047664  0.00401000  1
  O  O385  1  0.64149733  0.50714420  0.52767123  1
  O  O386  1  0.38437638  0.36156471  0.11068970  1
  O  O387  1  0.36140783  0.37875324  0.61670901  1
  O  O388  1  0.38154045  0.86182695  0.12318451  1
  O  O389  1  0.36168664  0.86785416  0.62063595  1
  O  O390  1  0.86810307  0.36674725  0.12572054  1
  O  O391  1  0.85663835  0.37710307  0.62852512  1
  O  O392  1  0.91150834  0.86397392  0.11624642  1
  O  O393  1  0.86934675  0.82814536  0.62149338  1
  O  O394  1  0.11341417  0.12027274  0.40930224  1
  O  O395  1  0.13349446  0.12026627  0.88748115  1
  O  O396  1  0.13961080  0.61110768  0.39506110  1
  O  O397  1  0.13883290  0.61560585  0.87749721  1
  O  O398  1  0.63200079  0.13310230  0.38249148  1
  O  O399  1  0.63344715  0.10287252  0.88471670  1
  O  O400  1  0.62206340  0.65175365  0.37339662  1
  O  O401  1  0.62948500  0.62727844  0.88199839  1
