# generated using pymatgen
data_V73Zn73O256
_symmetry_space_group_name_H-M   'P 1'
_cell_length_a   16.96223612
_cell_length_b   16.92163070
_cell_length_c   16.90887897
_cell_angle_alpha   90.13639351
_cell_angle_beta   89.85426491
_cell_angle_gamma   90.09373958
_symmetry_Int_Tables_number   1
_chemical_formula_structural   V73Zn73O256
_chemical_formula_sum   'V73 Zn73 O256'
_cell_volume   4853.29757559
_cell_formula_units_Z   1
loop_
 _symmetry_equiv_pos_site_id
 _symmetry_equiv_pos_as_xyz
  1  'x, y, z'
loop_
 _atom_site_type_symbol
 _atom_site_label
 _atom_site_symmetry_multiplicity
 _atom_site_fract_x
 _atom_site_fract_y
 _atom_site_fract_z
 _atom_site_occupancy
  V  V0  1  0.13056639  -0.00069985  0.63201369  1
  V  V1  1  0.62544576  -0.00140982  0.10424393  1
  V  V2  1  0.87696290  0.74774198  0.12592435  1
  V  V3  1  0.36983649  0.50433556  0.36463257  1
  V  V4  1  0.12533176  -0.00517834  0.12947522  1
  V  V5  1  0.61033851  0.74580521  0.34468660  1
  V  V6  1  0.50061554  0.87954401  0.88650571  1
  V  V7  1  0.62248422  0.13264322  0.49514057  1
  V  V8  1  0.00069657  0.62701874  0.14979166  1
  V  V9  1  0.01405974  0.50957143  0.00365691  1
  V  V10  1  0.38079703  0.89326989  0.49800851  1
  V  V11  1  0.00426733  0.74051097  0.74913817  1
  V  V12  1  0.87773589  0.26781571  0.62025455  1
  V  V13  1  -0.00275582  0.24822635  0.75404044  1
  V  V14  1  0.50429122  0.13352595  0.63370218  1
  V  V15  1  0.34907038  -0.01826619  0.87824861  1
  V  V16  1  0.25227804  0.87513771  0.62258353  1
  V  V17  1  0.88024898  0.12192164  0.25206862  1
  V  V18  1  0.49735433  0.49648663  -0.01256699  1
  V  V19  1  0.12255814  0.85463108  0.25685433  1
  V  V20  1  0.24105220  0.64097504  0.37787931  1
  V  V21  1  0.87545958  0.37232741  0.00476746  1
  V  V22  1  0.87093593  0.50810807  0.88035052  1
  V  V23  1  0.13802213  0.12671638  0.49724857  1
  V  V24  1  0.87723230  -0.00055023  0.87551927  1
  V  V25  1  0.50219706  0.63063019  0.12650175  1
  V  V26  1  0.63894241  0.74595316  0.87876459  1
  V  V27  1  -0.00863937  0.12121183  0.63321459  1
  V  V28  1  0.63936613  0.63067441  -0.00099649  1
  V  V29  1  0.23707603  0.24646262  0.02405635  1
  V  V30  1  0.87388195  0.75582821  0.61845528  1
  V  V31  1  -0.00892542  -0.01279713  0.00558275  1
  V  V32  1  0.12518064  0.26039097  0.37747575  1
  V  V33  1  0.36380443  0.37706205  0.50562596  1
  V  V34  1  0.24967087  0.85789652  0.11788907  1
  V  V35  1  0.61984141  -0.00418629  0.61199336  1
  V  V36  1  0.00168951  0.12370452  0.12754173  1
  V  V37  1  -0.00377131  -0.00309892  0.50226531  1
  V  V38  1  0.12928129  0.87357209  0.75273559  1
  V  V39  1  0.76131616  0.49776668  0.25398335  1
  V  V40  1  0.75199215  0.13432865  0.37456408  1
  V  V41  1  0.13835711  0.37696337  0.74905413  1
  V  V42  1  0.13065199  0.73730598  0.88840724  1
  V  V43  1  0.24354832  0.14502143  0.86918018  1
  V  V44  1  0.74553909  0.49445229  0.74157580  1
  V  V45  1  0.30954517  0.58714881  0.82429485  1
  V  V46  1  0.72511477  0.74108208  0.48463669  1
  V  V47  1  0.25545583  0.00225439  0.26052247  1
  V  V48  1  0.00381018  0.86374227  0.37582220  1
  V  V49  1  0.37336652  0.64282041  0.25248903  1
  V  V50  1  0.13282713  0.49510933  0.62403863  1
  V  V51  1  0.36956384  0.73815957  0.61836640  1
  V  V52  1  0.13542176  0.38820940  0.23555032  1
  V  V53  1  0.74417752  0.12902565  0.87859202  1
  V  V54  1  0.37073866  0.35778162  -0.00019401  1
  V  V55  1  0.50267833  0.36847095  0.36038752  1
  V  V56  1  0.74229278  0.24884483  0.00083026  1
  V  V57  1  0.50738456  0.50635845  0.49777374  1
  V  V58  1  0.87527695  -0.01083591  0.37933209  1
  V  V59  1  0.75763938  0.86658233  0.09878114  1
  V  V60  1  0.87212051  0.62470310  0.74652239  1
  V  V61  1  -0.00646353  0.48430480  0.50185719  1
  V  V62  1  0.52283561  0.62276428  0.62263366  1
  V  V63  1  0.63114468  0.48763665  0.12990433  1
  V  V64  1  0.74279330  -0.01759975  0.25073776  1
  V  V65  1  0.37462362  0.75115777  0.10518348  1
  V  V66  1  0.63252801  0.87410809  0.74684124  1
  V  V67  1  0.75837466  0.01208138  0.74490838  1
  V  V68  1  0.49926346  0.74734971  0.74767424  1
  V  V69  1  0.46109586  0.16265581  0.11684084  1
  V  V70  1  0.00355236  0.37000521  0.87500680  1
  V  V71  1  0.12254341  0.63858407  0.50726281  1
  V  V72  1  0.87808727  0.25051852  0.12718645  1
  Zn  Zn73  1  0.50095947  0.87331966  0.38394260  1
  Zn  Zn74  1  0.87622406  0.51507259  0.37895423  1
  Zn  Zn75  1  0.38196778  0.12851921  0.76092438  1
  Zn  Zn76  1  0.56480240  0.43389659  0.68607016  1
  Zn  Zn77  1  0.75834844  0.87850930  0.60930892  1
  Zn  Zn78  1  -0.00617077  0.86608161  0.88115478  1
  Zn  Zn79  1  -0.01390507  0.27658859  0.27682697  1
  Zn  Zn80  1  0.75724381  0.25113220  0.50238716  1
  Zn  Zn81  1  0.11893498  0.12675582  -0.00479176  1
  Zn  Zn82  1  0.18537296  0.19019542  0.20632050  1
  Zn  Zn83  1  0.17604158  0.18360874  0.69669681  1
  Zn  Zn84  1  0.20679910  0.64372347  0.15510548  1
  Zn  Zn85  1  0.18871320  0.68680910  0.68372542  1
  Zn  Zn86  1  0.69497396  0.17861190  0.17646285  1
  Zn  Zn87  1  0.71471756  0.34012897  0.65952490  1
  Zn  Zn88  1  0.69411414  0.68858980  0.18088159  1
  Zn  Zn89  1  0.69640314  0.68568398  0.69126329  1
  Zn  Zn90  1  0.28544153  0.33105152  0.35242493  1
  Zn  Zn91  1  0.43794193  0.32099899  0.81601212  1
  Zn  Zn92  1  0.31153308  0.82273915  0.31382493  1
  Zn  Zn93  1  0.32884664  0.77915835  0.83081647  1
  Zn  Zn94  1  0.66312365  0.32169325  0.28490467  1
  Zn  Zn95  1  0.82171577  0.31140211  0.81490537  1
  Zn  Zn96  1  0.80590520  0.68154000  0.31035666  1
  Zn  Zn97  1  0.81665236  0.81624969  0.81250005  1
  Zn  Zn98  1  0.18312736  0.45014899  0.43236189  1
  Zn  Zn99  1  0.18788003  0.42237371  0.94183304  1
  Zn  Zn100  1  0.18703704  0.93546241  0.44266330  1
  Zn  Zn101  1  0.17357751  0.92494237  0.94232592  1
  Zn  Zn102  1  0.68072986  0.45277423  0.42375361  1
  Zn  Zn103  1  0.69527065  0.44372030  0.94605716  1
  Zn  Zn104  1  0.69355504  0.91806457  0.42703161  1
  Zn  Zn105  1  0.69127586  0.93335954  0.92919315  1
  Zn  Zn106  1  0.30814272  0.05254973  0.05434268  1
  Zn  Zn107  1  0.31744588  0.06500018  0.57355564  1
  Zn  Zn108  1  0.32112637  0.52323378  0.06772260  1
  Zn  Zn109  1  0.31030828  0.56017297  0.55380655  1
  Zn  Zn110  1  0.80866762  0.06092614  0.06375520  1
  Zn  Zn111  1  0.81222995  0.06534142  0.56173840  1
  Zn  Zn112  1  0.81616428  0.56432324  0.07150911  1
  Zn  Zn113  1  0.81274308  0.56778426  0.56245434  1
  Zn  Zn114  1  0.43709309  0.43670505  0.17885148  1
  Zn  Zn115  1  0.39034855  0.44793712  0.69910974  1
  Zn  Zn116  1  0.45188270  1.00574674  0.19738664  1
  Zn  Zn117  1  0.43406180  0.93939483  0.69792588  1
  Zn  Zn118  1  0.94665385  0.44087475  0.18918597  1
  Zn  Zn119  1  0.94865125  0.44415583  0.68590787  1
  Zn  Zn120  1  0.93182826  0.92743699  0.19582451  1
  Zn  Zn121  1  0.94225916  0.93257840  0.69218771  1
  Zn  Zn122  1  0.06712623  0.05726797  0.31521930  1
  Zn  Zn123  1  0.06304744  0.06003594  0.81655265  1
  Zn  Zn124  1  0.06269185  0.55300551  0.32284215  1
  Zn  Zn125  1  0.06363721  0.55771309  0.81421438  1
  Zn  Zn126  1  0.57754586  0.12564115  0.28506282  1
  Zn  Zn127  1  0.56950837  0.05881159  0.81271616  1
  Zn  Zn128  1  0.55907061  0.56404656  0.30814088  1
  Zn  Zn129  1  0.56528069  0.56708303  0.81048040  1
  Zn  Zn130  1  0.44491134  0.20033791  0.45632737  1
  Zn  Zn131  1  0.42806575  0.17281862  0.93521769  1
  Zn  Zn132  1  0.44386533  0.69324861  0.43892719  1
  Zn  Zn133  1  0.44937268  0.68341409  0.93735019  1
  Zn  Zn134  1  0.94343843  0.18174943  0.44463223  1
  Zn  Zn135  1  0.93491047  0.18089540  0.93847003  1
  Zn  Zn136  1  0.94487983  0.68069550  0.44142481  1
  Zn  Zn137  1  0.93717930  0.69098253  0.94175740  1
  Zn  Zn138  1  0.06110837  0.31884013  0.07103971  1
  Zn  Zn139  1  0.06560406  0.30988902  0.56549741  1
  Zn  Zn140  1  0.05855313  0.79980435  0.07274151  1
  Zn  Zn141  1  0.05601624  0.81421888  0.56755238  1
  Zn  Zn142  1  0.55443472  0.31064353  0.06667699  1
  Zn  Zn143  1  0.55488516  0.31460836  0.55221302  1
  Zn  Zn144  1  0.56236951  0.82326246  0.07633555  1
  Zn  Zn145  1  0.55865861  0.81631848  0.56102682  1
  O  O146  1  0.11201321  0.11173815  0.13186112  1
  O  O147  1  0.11662373  0.11634676  0.62264737  1
  O  O148  1  0.09681745  0.64389738  0.12643100  1
  O  O149  1  0.13091981  0.61574380  0.61300110  1
  O  O150  1  0.64200131  0.09863544  0.11679998  1
  O  O151  1  0.62249682  0.10883880  0.60639587  1
  O  O152  1  0.61841645  0.63082928  0.11007487  1
  O  O153  1  0.62082945  0.62527389  0.62442965  1
  O  O154  1  0.38409630  0.39281026  0.37551416  1
  O  O155  1  0.37831271  0.37844555  0.90165114  1
  O  O156  1  0.37663199  0.87137562  0.39448953  1
  O  O157  1  0.39229464  0.87466569  0.86442497  1
  O  O158  1  0.83356492  0.37928797  0.42901250  1
  O  O159  1  0.88605484  0.38284920  0.88454971  1
  O  O160  1  0.89396517  0.88741686  0.37089639  1
  O  O161  1  0.87941759  0.89148757  0.87031718  1
  O  O162  1  0.24508894  -0.01226446  0.36019157  1
  O  O163  1  0.25044172  -0.03037523  0.86884360  1
  O  O164  1  0.26696705  0.51592751  0.37458958  1
  O  O165  1  0.24009072  0.50815010  0.87696414  1
  O  O166  1  0.75932533  -0.00224978  0.36801059  1
  O  O167  1  0.75652327  0.00642533  0.86465536  1
  O  O168  1  0.75457386  0.50806960  0.36096089  1
  O  O169  1  0.76716272  0.49365723  0.86796584  1
  O  O170  1  0.22740719  0.54453194  0.11109531  1
  O  O171  1  0.23309403  0.50308471  0.61880965  1
  O  O172  1  0.23819857  0.98149212  0.12764030  1
  O  O173  1  0.23770700  0.99257957  0.62897224  1
  O  O174  1  0.73701562  0.50045543  0.12651089  1
  O  O175  1  0.75996509  0.50019359  0.64242777  1
  O  O176  1  0.75348602  0.98561872  0.13232794  1
  O  O177  1  0.74752568  0.99906147  0.63368455  1
  O  O178  1  0.01855837  0.37881964  0.24757548  1
  O  O179  1  -0.00053833  0.36825999  0.76053826  1
  O  O180  1  0.01140281  0.87797220  0.26392220  1
  O  O181  1  0.00942620  0.86033377  0.75194851  1
  O  O182  1  0.49393434  0.38251605  0.26105344  1
  O  O183  1  0.47718096  0.38721106  0.73780885  1
  O  O184  1  0.49481543  0.97567422  0.31783319  1
  O  O185  1  0.51761544  0.86617914  0.74999723  1
  O  O186  1  0.49936702  0.11324272  0.20366228  1
  O  O187  1  0.52468293  0.12494968  0.73225587  1
  O  O188  1  0.48804117  0.62319307  0.23392995  1
  O  O189  1  0.50828655  0.63360635  0.73460278  1
  O  O190  1  0.99054080  0.11190467  0.24186553  1
  O  O191  1  1.01219434  0.13550723  0.74497802  1
  O  O192  1  0.99794617  0.61081926  0.24761922  1
  O  O193  1  0.98929244  0.63353843  0.75441428  1
  O  O194  1  0.36425255  0.25500431  0.00674764  1
  O  O195  1  0.37804401  0.27580499  0.50365201  1
  O  O196  1  0.37129529  0.74169110  0.00750463  1
  O  O197  1  0.38388703  0.76041157  0.51754574  1
  O  O198  1  0.87400610  0.25594021  0.00659173  1
  O  O199  1  0.87982640  0.24323823  0.51649812  1
  O  O200  1  0.88182826  0.74865181  0.01851401  1
  O  O201  1  0.88801744  0.74617825  0.52076691  1
  O  O202  1  0.11927820  0.23336786  0.49731508  1
  O  O203  1  0.13307480  0.24977044  1.00955884  1
  O  O204  1  0.12163897  0.73838485  0.51180301  1
  O  O205  1  0.11087432  0.74931099  0.98674045  1
  O  O206  1  0.63436064  0.23462606  0.50170340  1
  O  O207  1  0.64449379  0.25816909  1.00915849  1
  O  O208  1  0.62613482  0.74322536  0.50529465  1
  O  O209  1  0.62462057  0.74210642  0.98733330  1
  O  O210  1  0.47472980  0.26347122  0.13189719  1
  O  O211  1  0.50609100  0.23245208  0.61730005  1
  O  O212  1  0.48565972  0.74545137  0.11617524  1
  O  O213  1  0.49775924  0.73675984  0.62767530  1
  O  O214  1  0.99142467  0.23572694  0.12095096  1
  O  O215  1  0.99300392  0.24127523  0.63194795  1
  O  O216  1  0.98599951  0.74322347  0.14021571  1
  O  O217  1  0.98846151  0.75226728  0.64200043  1
  O  O218  1  0.01578364  0.23188445  0.37672117  1
  O  O219  1  -0.00839676  0.25741314  0.86883949  1
  O  O220  1  -0.00124830  0.76672485  0.38470412  1
  O  O221  1  0.00286278  0.74894241  0.86269484  1
  O  O222  1  0.49198950  0.26914902  0.37565603  1
  O  O223  1  0.43082240  0.21189486  0.82945564  1
  O  O224  1  0.50351595  0.75638303  0.36640482  1
  O  O225  1  0.51172105  0.75728263  0.86291006  1
  O  O226  1  0.23625051  0.12134545  0.51582822  1
  O  O227  1  0.24072259  0.13600582  1.00094325  1
  O  O228  1  0.23974550  0.62467468  0.48644492  1
  O  O229  1  0.26094545  0.57275660  0.92592921  1
  O  O230  1  0.74568685  0.12305103  0.48828595  1
  O  O231  1  0.75757469  0.13546977  0.98900172  1
  O  O232  1  0.75564727  0.64684575  0.50810273  1
  O  O233  1  0.73745184  0.62107393  1.00332411  1
  O  O234  1  0.25657200  0.35576929  0.00003186  1
  O  O235  1  0.26627886  0.38068633  0.47065754  1
  O  O236  1  0.23311893  0.86556836  0.02078600  1
  O  O237  1  0.25872068  0.87753710  0.51469051  1
  O  O238  1  0.76426817  0.35971538  -0.01063265  1
  O  O239  1  0.76760376  0.37328752  0.46818472  1
  O  O240  1  0.76313866  0.87848658  0.00018363  1
  O  O241  1  0.75204703  0.84704373  0.49846059  1
  O  O242  1  0.13313351  0.48631626  0.26459410  1
  O  O243  1  0.11559059  0.48967126  0.73606721  1
  O  O244  1  0.12839460  0.98994896  0.24037503  1
  O  O245  1  0.11280546  0.98629008  0.74110061  1
  O  O246  1  0.62240213  0.50745282  0.23127662  1
  O  O247  1  0.64111960  0.50058817  0.75218218  1
  O  O248  1  0.64545293  1.00836069  0.24528489  1
  O  O249  1  0.64062633  0.99282397  0.73979778  1
  O  O250  1  0.35381087  -0.01550557  0.24201933  1
  O  O251  1  0.38892732  0.00900969  0.77682036  1
  O  O252  1  0.38360790  0.51278563  0.26145907  1
  O  O253  1  0.37182019  0.52288689  0.77758345  1
  O  O254  1  0.86854466  0.00478416  0.25838807  1
  O  O255  1  0.86315353  -0.00499797  0.75391397  1
  O  O256  1  0.86456166  0.49155959  0.25066256  1
  O  O257  1  0.87650369  0.50955587  0.75953221  1
  O  O258  1  0.12291331  0.36152247  0.38400478  1
  O  O259  1  0.11218182  0.38268915  0.86142331  1
  O  O260  1  0.11525381  0.87825173  0.36719913  1
  O  O261  1  0.11360354  0.86268655  0.86567875  1
  O  O262  1  0.60868478  0.37787552  0.37342584  1
  O  O263  1  0.61129083  0.36915211  0.88392134  1
  O  O264  1  0.61510963  0.85650254  0.37597995  1
  O  O265  1  0.62042501  0.86225545  0.86760249  1
  O  O266  1  0.36657141  0.12455295  0.11996114  1
  O  O267  1  0.39929053  0.11281260  0.63643858  1
  O  O268  1  0.37975226  0.63751404  0.13536153  1
  O  O269  1  0.37217806  0.63712441  0.62001826  1
  O  O270  1  0.88180728  0.12665761  0.13250136  1
  O  O271  1  0.88974701  0.12226791  0.62716401  1
  O  O272  1  0.88905962  0.63320880  0.12085087  1
  O  O273  1  0.87514273  0.63549460  0.64276049  1
  O  O274  1  0.24514383  0.24277641  0.12249157  1
  O  O275  1  0.26585225  0.25417523  0.63267004  1
  O  O276  1  0.25858683  0.74921614  0.12928475  1
  O  O277  1  0.26522861  0.75736040  0.62892476  1
  O  O278  1  0.76707146  0.23992383  0.10931115  1
  O  O279  1  0.77191931  0.25086152  0.62329820  1
  O  O280  1  0.75444456  0.76136225  0.11259985  1
  O  O281  1  0.76532076  0.75175521  0.62751338  1
  O  O282  1  0.22478566  0.23678083  0.37515231  1
  O  O283  1  0.24772093  0.24098780  0.88922035  1
  O  O284  1  0.25416491  0.73937008  0.37507193  1
  O  O285  1  0.22874346  0.75843763  0.87566833  1
  O  O286  1  0.75608945  0.23299397  0.37623959  1
  O  O287  1  0.76076109  0.23709578  0.88318596  1
  O  O288  1  0.72594692  0.74342570  0.37853776  1
  O  O289  1  0.73702418  0.75350515  0.86824172  1
  O  O290  1  0.00090361  0.11350600  0.01175453  1
  O  O291  1  0.00986614  0.11133874  0.51467210  1
  O  O292  1  0.00238352  0.60807420  -0.01044354  1
  O  O293  1  0.02178424  0.61611358  0.49539279  1
  O  O294  1  0.49529717  0.14322017  0.02116594  1
  O  O295  1  0.51753087  0.12415255  0.50089575  1
  O  O296  1  0.51479366  0.61944459  0.00602646  1
  O  O297  1  0.49552035  0.61724658  0.51249371  1
  O  O298  1  0.48713141  0.39175379  0.49198413  1
  O  O299  1  0.49003988  0.38881543  1.00477622  1
  O  O300  1  0.48562400  0.88275722  0.50514277  1
  O  O301  1  0.50492352  0.86267490  0.98375333  1
  O  O302  1  1.00198992  0.38409511  0.50589294  1
  O  O303  1  0.99277560  0.38251017  0.99494782  1
  O  O304  1  1.01122057  0.88770304  0.48938436  1
  O  O305  1  1.00172276  0.88587806  1.00520326  1
  O  O306  1  0.49206142  0.50126288  0.38322826  1
  O  O307  1  0.51976998  0.50077150  0.88938400  1
  O  O308  1  0.50759848  1.04025866  0.35867945  1
  O  O309  1  0.51501770  0.97949271  0.87492062  1
  O  O310  1  0.99379408  0.49692565  0.39434908  1
  O  O311  1  0.98995591  0.49077504  0.88306616  1
  O  O312  1  0.99351903  0.99930307  0.38607158  1
  O  O313  1  0.99576011  1.00093328  0.89202169  1
  O  O314  1  0.00068628  0.00054961  0.11951064  1
  O  O315  1  0.00634502  0.00179517  0.62215198  1
  O  O316  1  -0.00699576  0.51538564  0.11106070  1
  O  O317  1  0.01455716  0.50277860  0.61358527  1
  O  O318  1  0.52796715  -0.02968205  0.12368602  1
  O  O319  1  0.51889001  0.00025548  0.62886137  1
  O  O320  1  0.51279618  0.51253404  0.11363094  1
  O  O321  1  0.49962760  0.51507106  0.61631978  1
  O  O322  1  0.23397920  0.36449854  0.25778619  1
  O  O323  1  0.23348510  0.37677193  0.75727782  1
  O  O324  1  0.23504915  0.87611993  0.24318087  1
  O  O325  1  0.23279348  0.86383906  0.73684712  1
  O  O326  1  0.73560722  0.39787977  0.24997597  1
  O  O327  1  0.75856468  0.38758892  0.75398330  1
  O  O328  1  0.74727458  0.88563977  0.25088394  1
  O  O329  1  0.74062529  0.88223799  0.75089296  1
  O  O330  1  0.24039566  0.10133203  0.24697917  1
  O  O331  1  0.25578890  0.13914383  0.76339830  1
  O  O332  1  0.26750574  0.62940216  0.26119408  1
  O  O333  1  0.25021247  0.62718047  0.75541662  1
  O  O334  1  0.76458917  0.11672422  0.26154816  1
  O  O335  1  0.75343873  0.11181051  0.76058295  1
  O  O336  1  0.74770915  0.60765951  0.23944885  1
  O  O337  1  0.76437550  0.61249876  0.75491631  1
  O  O338  1  0.37942898  0.12676345  0.37401852  1
  O  O339  1  0.34066309  0.09960102  0.88879895  1
  O  O340  1  0.37590945  0.62416397  0.36699533  1
  O  O341  1  0.37078765  0.66701464  0.85766162  1
  O  O342  1  0.86837594  0.11439688  0.37213242  1
  O  O343  1  0.86729248  0.10834159  0.87702155  1
  O  O344  1  0.87413379  0.62844879  0.37809648  1
  O  O345  1  0.87934571  0.61184207  0.87097136  1
  O  O346  1  0.13054362  0.38149692  0.13385874  1
  O  O347  1  0.12631126  0.38379816  0.63409343  1
  O  O348  1  0.12630068  0.87228437  0.13931322  1
  O  O349  1  0.12996141  0.88093049  0.62935734  1
  O  O350  1  0.62029836  0.38904554  0.12135729  1
  O  O351  1  0.62653840  0.37880747  0.61001173  1
  O  O352  1  0.65098446  0.88031663  0.11764424  1
  O  O353  1  0.63096926  0.88243631  0.62979207  1
  O  O354  1  0.11501508  0.25892412  0.26403925  1
  O  O355  1  0.11078547  0.26771073  0.74058398  1
  O  O356  1  0.12481023  0.75917445  0.25495904  1
  O  O357  1  0.11250345  0.75125723  0.74841401  1
  O  O358  1  0.62654089  0.22463710  0.25101038  1
  O  O359  1  0.62674423  0.31607263  0.83379669  1
  O  O360  1  0.62033981  0.75022325  0.24476456  1
  O  O361  1  0.62274920  0.75313243  0.75656020  1
  O  O362  1  0.37134363  0.16360077  0.31047715  1
  O  O363  1  0.32775891  0.26317522  0.67165085  1
  O  O364  1  0.37771444  0.74399446  0.24970066  1
  O  O365  1  0.39312603  0.76347436  0.72987975  1
  O  O366  1  0.88140708  0.23494271  0.23932738  1
  O  O367  1  0.88867614  0.25300685  0.73758553  1
  O  O368  1  0.85413680  0.74237413  0.22681028  1
  O  O369  1  0.88225993  0.73872339  0.75351546  1
  O  O370  1  0.38330981  0.50223638  0.48431787  1
  O  O371  1  0.39995133  0.52408942  0.98741561  1
  O  O372  1  0.37103164  0.99263686  0.50154846  1
  O  O373  1  0.36585780  0.98559468  0.97939690  1
  O  O374  1  0.89084472  0.50611917  0.50933707  1
  O  O375  1  0.87547961  0.49294003  0.99157883  1
  O  O376  1  0.88557407  1.00311345  0.49406738  1
  O  O377  1  0.88663561  1.00142169  0.99701685  1
  O  O378  1  0.11206806  -0.00253332  0.01449510  1
  O  O379  1  0.11876700  0.00580217  0.51353209  1
  O  O380  1  0.11066897  0.49047410  -0.00477534  1
  O  O381  1  0.11707188  0.50206330  0.50953525  1
  O  O382  1  0.63291663  -0.00616245  0.00358059  1
  O  O383  1  0.63680433  -0.00659399  0.51048497  1
  O  O384  1  0.62337694  0.51096983  0.00783544  1
  O  O385  1  0.60631616  0.50233815  0.49367752  1
  O  O386  1  0.36475671  0.41390465  0.09478621  1
  O  O387  1  0.35772924  0.40336725  0.60264868  1
  O  O388  1  0.35725652  0.85703065  0.12421262  1
  O  O389  1  0.36821770  0.87813367  0.61983519  1
  O  O390  1  0.88621587  0.36334038  0.11482945  1
  O  O391  1  0.88349621  0.36680415  0.62485987  1
  O  O392  1  0.86518599  0.86548576  0.12767561  1
  O  O393  1  0.87396619  0.86078711  0.63421896  1
  O  O394  1  0.12613856  0.11466000  0.39595105  1
  O  O395  1  0.14230475  0.11183048  0.87945644  1
  O  O396  1  0.13741400  0.62485898  0.38232275  1
  O  O397  1  0.11985547  0.63867968  0.86808307  1
  O  O398  1  0.64207395  0.11611852  0.38578652  1
  O  O399  1  0.64548742  0.12113707  0.87390666  1
  O  O400  1  0.60949031  0.64498580  0.36736097  1
  O  O401  1  0.62449602  0.63710262  0.88429901  1
