# generated using pymatgen
data_V73Zn73O256
_symmetry_space_group_name_H-M   'P 1'
_cell_length_a   16.86769916
_cell_length_b   16.85122599
_cell_length_c   16.89095891
_cell_angle_alpha   90.00978076
_cell_angle_beta   89.98174254
_cell_angle_gamma   89.91576920
_symmetry_Int_Tables_number   1
_chemical_formula_structural   V73Zn73O256
_chemical_formula_sum   'V73 Zn73 O256'
_cell_volume   4801.10448384
_cell_formula_units_Z   1
loop_
 _symmetry_equiv_pos_site_id
 _symmetry_equiv_pos_as_xyz
  1  'x, y, z'
loop_
 _atom_site_type_symbol
 _atom_site_label
 _atom_site_symmetry_multiplicity
 _atom_site_fract_x
 _atom_site_fract_y
 _atom_site_fract_z
 _atom_site_occupancy
  V  V0  1  0.11918126  0.75702816  0.88789189  1
  V  V1  1  0.25676031  0.25598983  0.51529398  1
  V  V2  1  0.37687397  0.37711576  0.50948121  1
  V  V3  1  0.36997101  0.62958982  0.24345051  1
  V  V4  1  0.14120192  -0.00280007  0.63047422  1
  V  V5  1  0.24651163  0.24185444  -0.01116996  1
  V  V6  1  0.37440477  0.25484109  0.11700525  1
  V  V7  1  0.89108351  0.91426995  -0.03341929  1
  V  V8  1  0.13619409  0.49694144  0.63245401  1
  V  V9  1  0.62405097  0.12415742  -0.01345469  1
  V  V10  1  0.75018096  0.36924331  0.13008075  1
  V  V11  1  0.39059998  0.74713592  0.63079289  1
  V  V12  1  0.87182594  0.11161871  0.75807966  1
  V  V13  1  0.86815013  0.37026247  0.50013895  1
  V  V14  1  0.87636196  0.50077414  0.37682139  1
  V  V15  1  0.74407508  0.38388432  0.63933052  1
  V  V16  1  0.36576248  0.86083828  -0.00146288  1
  V  V17  1  0.49594459  0.74419736  0.23943560  1
  V  V18  1  0.50734994  0.86975911  0.86392439  1
  V  V19  1  0.35667652  0.00570409  0.87231543  1
  V  V20  1  0.62293718  0.37455525  0.25745327  1
  V  V21  1  0.36959798  0.87244937  0.50524974  1
  V  V22  1  0.75162666  0.73234098  0.49773238  1
  V  V23  1  0.62662111  0.87951012  0.24530193  1
  V  V24  1  0.51225441  0.25273975  0.74647755  1
  V  V25  1  0.00513404  0.12149971  0.62408644  1
  V  V26  1  0.75255457  0.49810660  0.25505918  1
  V  V27  1  0.87404214  0.25068024  0.62134516  1
  V  V28  1  0.88127161  0.23330373  0.12981856  1
  V  V29  1  0.75069977  0.24038413  -0.01304766  1
  V  V30  1  0.50135304  0.12332477  0.12661145  1
  V  V31  1  0.38351170  0.61271860  0.74488173  1
  V  V32  1  0.24954491  0.86694692  0.12642141  1
  V  V33  1  0.73750837  0.12852415  0.38664702  1
  V  V34  1  0.13559245  0.37629480  0.75314025  1
  V  V35  1  0.11785298  0.00762895  0.12211826  1
  V  V36  1  0.87552760  0.00844025  0.37280347  1
  V  V37  1  0.49524333  0.36586545  0.88875530  1
  V  V38  1  0.86493816  0.75932934  0.13036492  1
  V  V39  1  0.86710193  0.87250451  0.50763838  1
  V  V40  1  0.63185990  0.73738811  0.37299039  1
  V  V41  1  0.38711267  0.49812249  0.37336128  1
  V  V42  1  0.87490060  0.38855435  -0.00112180  1
  V  V43  1  0.24901235  0.74945623  0.50809382  1
  V  V44  1  0.35768311  0.12999711  0.74716304  1
  V  V45  1  0.14026167  0.86956724  0.74803531  1
  V  V46  1  0.13144327  0.74834482  0.37494728  1
  V  V47  1  0.24538368  0.50195540  0.25766897  1
  V  V48  1  0.00612777  0.74978351  0.25038727  1
  V  V49  1  0.24930934  0.38230404  0.11693524  1
  V  V50  1  -0.00975701  0.63652707  0.63370510  1
  V  V51  1  0.13168646  0.61153417  0.00396820  1
  V  V52  1  0.00007854  0.61476978  0.11561552  1
  V  V53  1  0.49420385  0.51945588  0.00484558  1
  V  V54  1  0.24786152  0.00674510  0.25072086  1
  V  V55  1  0.13395751  0.12542129  0.49524704  1
  V  V56  1  0.24792532  0.61907934  0.85757385  1
  V  V57  1  0.12229425  0.37784792  0.24389586  1
  V  V58  1  0.00177566  0.23416574  0.24599531  1
  V  V59  1  0.11292904  0.12615189  -0.01022162  1
  V  V60  1  0.75251858  0.00724146  0.24289617  1
  V  V61  1  0.13020106  0.62220772  0.49585411  1
  V  V62  1  0.49961510  0.25881537  0.25600451  1
  V  V63  1  0.00082534  0.25205936  0.76054623  1
  V  V64  1  0.87337905  0.62262956  0.25541778  1
  V  V65  1  0.51071941  -0.00135189  0.51171427  1
  V  V66  1  -0.00208905  0.39129457  0.87792603  1
  V  V67  1  0.13813319  0.24755128  0.37017918  1
  V  V68  1  0.37328969  0.01070513  0.37562957  1
  V  V69  1  0.00259601  0.87359622  0.37261793  1
  V  V70  1  0.51127094  0.50951053  0.51665952  1
  V  V71  1  0.00122234  0.49594481  0.50385820  1
  V  V72  1  0.49771641  0.87214803  0.37650686  1
  Zn  Zn73  1  0.00162896  0.37033613  0.37328449  1
  Zn  Zn74  1  0.00265179  -0.00286207  0.49967347  1
  Zn  Zn75  1  0.49082911  0.12749571  0.62514239  1
  Zn  Zn76  1  0.62113785  0.52114487  0.12020302  1
  Zn  Zn77  1  0.63553819  0.25831159  0.40110256  1
  Zn  Zn78  1  0.49469477  0.00017695  -0.00357339  1
  Zn  Zn79  1  0.63245845  0.00111373  0.12054650  1
  Zn  Zn80  1  0.61713442  0.74302810  0.91607605  1
  Zn  Zn81  1  0.37227951  0.13346478  0.25766957  1
  Zn  Zn82  1  0.18930733  0.18813850  0.18215567  1
  Zn  Zn83  1  0.18499801  0.19254828  0.69020818  1
  Zn  Zn84  1  0.18568053  0.68262968  0.18527058  1
  Zn  Zn85  1  0.17954718  0.68864644  0.68426065  1
  Zn  Zn86  1  0.68741222  0.18796271  0.19315029  1
  Zn  Zn87  1  0.69920262  0.19672200  0.69711615  1
  Zn  Zn88  1  0.66417415  0.70625844  0.13616404  1
  Zn  Zn89  1  0.73214441  0.83777339  0.66673367  1
  Zn  Zn90  1  0.31603929  0.31839330  0.31020978  1
  Zn  Zn91  1  0.32250195  0.31465004  0.81220336  1
  Zn  Zn92  1  0.30907775  0.81710497  0.31228090  1
  Zn  Zn93  1  0.30852162  0.80484938  0.81618139  1
  Zn  Zn94  1  0.81654462  0.30732141  0.31486459  1
  Zn  Zn95  1  0.81874648  0.31334590  0.81071317  1
  Zn  Zn96  1  0.81346703  0.81787184  0.31002849  1
  Zn  Zn97  1  0.78329315  0.81339345  0.83571755  1
  Zn  Zn98  1  0.18815276  0.43436992  0.43463607  1
  Zn  Zn99  1  0.18870632  0.43712150  0.93380795  1
  Zn  Zn100  1  0.18844856  0.93674289  0.43608019  1
  Zn  Zn101  1  0.18252178  0.93853502  0.94183780  1
  Zn  Zn102  1  0.68819737  0.44149959  0.44209904  1
  Zn  Zn103  1  0.66623408  0.41755764  0.94390841  1
  Zn  Zn104  1  0.68905063  0.93402012  0.43188377  1
  Zn  Zn105  1  0.74555927  0.80007749  1.00785882  1
  Zn  Zn106  1  0.31044877  0.06262943  0.06137819  1
  Zn  Zn107  1  0.31666447  0.06529590  0.55720913  1
  Zn  Zn108  1  0.31420351  0.56529936  0.06101586  1
  Zn  Zn109  1  0.31603406  0.56406486  0.56186502  1
  Zn  Zn110  1  0.81755611  0.05493832  0.05072824  1
  Zn  Zn111  1  0.81864357  0.06600064  0.56012216  1
  Zn  Zn112  1  0.79944498  0.57323886  0.07327317  1
  Zn  Zn113  1  0.80924227  0.56466982  0.56408074  1
  Zn  Zn114  1  0.43609254  0.44333016  0.17706718  1
  Zn  Zn115  1  0.43633369  0.43269944  0.68917403  1
  Zn  Zn116  1  0.43019546  0.93493655  0.18804813  1
  Zn  Zn117  1  0.43063497  0.93792407  0.69200976  1
  Zn  Zn118  1  0.93727383  0.43077395  0.18288880  1
  Zn  Zn119  1  0.93515474  0.44277923  0.68710103  1
  Zn  Zn120  1  0.93950365  0.94186951  0.19387393  1
  Zn  Zn121  1  0.89713561  0.90019759  0.73786728  1
  Zn  Zn122  1  0.06748264  0.05908278  0.31397740  1
  Zn  Zn123  1  0.06464588  0.05933461  0.80569118  1
  Zn  Zn124  1  0.05975175  0.56221735  0.31254916  1
  Zn  Zn125  1  0.05811490  0.56994302  0.81581124  1
  Zn  Zn126  1  0.56020045  0.06386946  0.31587730  1
  Zn  Zn127  1  0.53982588  0.06275972  0.81521505  1
  Zn  Zn128  1  0.56158760  0.55940775  0.30806635  1
  Zn  Zn129  1  0.54633013  0.54626732  0.82084296  1
  Zn  Zn130  1  0.46600102  0.20461735  0.46026414  1
  Zn  Zn131  1  0.43441860  0.18964062  0.93265023  1
  Zn  Zn132  1  0.43551923  0.68217220  0.43250696  1
  Zn  Zn133  1  0.43140717  0.68697751  0.93055757  1
  Zn  Zn134  1  0.94505082  0.18885521  0.43490643  1
  Zn  Zn135  1  0.93568166  0.18501209  0.93795978  1
  Zn  Zn136  1  0.94091310  0.68703305  0.44327411  1
  Zn  Zn137  1  0.95467498  0.73935443  0.96138930  1
  Zn  Zn138  1  0.06197645  0.30987621  0.05960384  1
  Zn  Zn139  1  0.06472320  0.31110899  0.56538157  1
  Zn  Zn140  1  0.05977412  0.82176847  0.07074723  1
  Zn  Zn141  1  0.05991824  0.81669157  0.56247522  1
  Zn  Zn142  1  0.56692474  0.31026218  0.06575014  1
  Zn  Zn143  1  0.55936047  0.31912211  0.56996064  1
  Zn  Zn144  1  0.54857257  0.82370203  0.06142088  1
  Zn  Zn145  1  0.57308130  0.81126156  0.56730488  1
  O  O146  1  0.12988075  0.11320542  0.11787987  1
  O  O147  1  0.12563110  0.11954713  0.61790934  1
  O  O148  1  0.11249610  0.62803966  0.11460405  1
  O  O149  1  0.11666839  0.61229043  0.61661773  1
  O  O150  1  0.61072558  0.12824739  0.12565110  1
  O  O151  1  0.66041815  0.09841199  0.62433889  1
  O  O152  1  0.69269001  0.60584126  0.09665937  1
  O  O153  1  0.66056600  0.57943940  0.70451733  1
  O  O154  1  0.37078094  0.39147237  0.37926843  1
  O  O155  1  0.39399511  0.38098910  0.86559799  1
  O  O156  1  0.38283585  0.87720286  0.38342978  1
  O  O157  1  0.36823059  0.87998249  0.88552102  1
  O  O158  1  0.87993256  0.38027536  0.38253685  1
  O  O159  1  0.88168356  0.37505873  0.88969305  1
  O  O160  1  0.88314014  0.88665728  0.37772063  1
  O  O161  1  0.87305251  0.88660172  0.86836410  1
  O  O162  1  0.25766288  -0.00852226  0.36015962  1
  O  O163  1  0.25711038  -0.00187174  0.87647152  1
  O  O164  1  0.25518390  0.49698751  0.36175801  1
  O  O165  1  0.24398807  0.51965187  0.87853253  1
  O  O166  1  0.75615815  0.01050761  0.36938910  1
  O  O167  1  0.68432178  -0.00240982  0.80003827  1
  O  O168  1  0.76374297  0.49198643  0.36608295  1
  O  O169  1  0.73846598  0.51150910  0.88328128  1
  O  O170  1  0.25443029  0.48662473  0.13269895  1
  O  O171  1  0.23430412  0.50279995  0.62078029  1
  O  O172  1  0.24601774  0.99622018  0.13573971  1
  O  O173  1  0.23874983  0.99820542  0.61195263  1
  O  O174  1  0.76578533  0.47739518  0.14332818  1
  O  O175  1  0.76107938  0.48360665  0.62390632  1
  O  O176  1  0.75185310  1.01065782  0.13917226  1
  O  O177  1  0.70811000  1.03908663  0.61882777  1
  O  O178  1  0.01052978  0.36676646  0.24659963  1
  O  O179  1  -0.00400894  0.37319946  0.76407075  1
  O  O180  1  -0.00209887  0.86224049  0.26251288  1
  O  O181  1  0.01594023  0.90464002  0.77072512  1
  O  O182  1  0.50765606  0.36680633  0.23923592  1
  O  O183  1  0.49602022  0.35755182  0.74804151  1
  O  O184  1  0.49746519  0.86513136  0.25878556  1
  O  O185  1  0.48794537  0.87064868  0.76458507  1
  O  O186  1  0.49881483  0.13726058  0.24075572  1
  O  O187  1  0.48960127  0.13396049  0.74442637  1
  O  O188  1  0.49020786  0.63618487  0.25189746  1
  O  O189  1  0.48253267  0.61976458  0.75772352  1
  O  O190  1  1.00754014  0.13463390  0.25005493  1
  O  O191  1  1.00184830  0.13453844  0.74071063  1
  O  O192  1  0.99408285  0.62905588  0.24162106  1
  O  O193  1  1.00412222  0.62291188  0.73333560  1
  O  O194  1  0.36059353  0.24398690  0.00859234  1
  O  O195  1  0.36674605  0.26310935  0.49538440  1
  O  O196  1  0.36771279  0.76139927  -0.00433357  1
  O  O197  1  0.36801782  0.75118471  0.50582795  1
  O  O198  1  0.86386459  0.24786356  0.01094875  1
  O  O199  1  0.88827457  0.25993421  0.50812183  1
  O  O200  1  0.85924700  0.73849722  0.02612967  1
  O  O201  1  0.86193321  0.76146450  0.48248431  1
  O  O202  1  0.13796171  0.24876212  0.49287107  1
  O  O203  1  0.13612390  0.23946460  1.00477672  1
  O  O204  1  0.13039947  0.74288363  0.49489755  1
  O  O205  1  0.11908831  0.75134692  0.99110982  1
  O  O206  1  0.57227453  0.24284502  0.48926839  1
  O  O207  1  0.64342226  0.24101893  1.00753744  1
  O  O208  1  0.63692655  0.75251305  0.48081724  1
  O  O209  1  0.63781127  0.76118707  1.03460070  1
  O  O210  1  0.49214057  0.24500025  0.13227423  1
  O  O211  1  0.49893435  0.24578210  0.63894620  1
  O  O212  1  0.49385809  0.75376627  0.14144349  1
  O  O213  1  0.48909009  0.74643180  0.61736682  1
  O  O214  1  0.98857386  0.25192583  0.13005764  1
  O  O215  1  0.99593714  0.24389030  0.63296142  1
  O  O216  1  0.99608779  0.74206035  0.13713393  1
  O  O217  1  1.00479661  0.73562210  0.61765539  1
  O  O218  1  0.01229761  0.25117347  0.36352353  1
  O  O219  1  -0.00477336  0.25979061  0.86465982  1
  O  O220  1  0.00762233  0.75373188  0.37005143  1
  O  O221  1  0.01931848  0.74111119  0.86777033  1
  O  O222  1  0.48454892  0.25022911  0.35332926  1
  O  O223  1  0.49592514  0.25554157  0.86278428  1
  O  O224  1  0.50871905  0.75654053  0.37181465  1
  O  O225  1  0.50699298  0.76101373  0.88676120  1
  O  O226  1  0.24481776  0.14177811  0.50197318  1
  O  O227  1  0.24159041  0.13712363  1.00077856  1
  O  O228  1  0.23783740  0.63111667  0.50155607  1
  O  O229  1  0.23458115  0.62604586  1.00332351  1
  O  O230  1  0.75284926  0.12333330  0.48562654  1
  O  O231  1  0.73963301  0.13086845  1.00072231  1
  O  O232  1  0.76015400  0.63210464  0.48548821  1
  O  O233  1  0.76473075  0.57127158  0.91850063  1
  O  O234  1  0.23848875  0.36772882  0.01289873  1
  O  O235  1  0.25652083  0.36243767  0.49328015  1
  O  O236  1  0.25760702  0.88049651  0.01171592  1
  O  O237  1  0.26080770  0.86455850  0.49328162  1
  O  O238  1  0.75711592  0.36167564  0.00680743  1
  O  O239  1  0.76467168  0.37613041  0.50381963  1
  O  O240  1  0.80062656  0.89907847  0.01217710  1
  O  O241  1  0.76245317  0.87188648  0.49436375  1
  O  O242  1  0.13077340  0.49023959  0.25522821  1
  O  O243  1  0.12025535  0.49175045  0.74020969  1
  O  O244  1  0.14037742  1.00328410  0.24255042  1
  O  O245  1  0.13676300  0.99864654  0.73470248  1
  O  O246  1  0.63565977  0.49332228  0.24587575  1
  O  O247  1  0.63419094  0.51989341  0.74202420  1
  O  O248  1  0.63326560  0.99675723  0.25157899  1
  O  O249  1  0.62104948  1.00380830  0.75124650  1
  O  O250  1  0.36876107  0.00412973  0.25907115  1
  O  O251  1  0.37220790  0.00874018  0.76315045  1
  O  O252  1  0.37041158  0.50656562  0.25670789  1
  O  O253  1  0.36918848  0.51398022  0.73820704  1
  O  O254  1  0.86071386  -0.00430154  0.25831669  1
  O  O255  1  0.88071133  0.01400366  0.73281914  1
  O  O256  1  0.87537157  0.49959778  0.25961070  1
  O  O257  1  0.87985487  0.50265996  0.77243725  1
  O  O258  1  0.12477962  0.36512549  0.36267644  1
  O  O259  1  0.11088977  0.38168198  0.86363269  1
  O  O260  1  0.11356074  0.86345132  0.38369798  1
  O  O261  1  0.13432447  0.86390269  0.86630428  1
  O  O262  1  0.63276848  0.37282598  0.36164516  1
  O  O263  1  0.59974540  0.37987007  0.86304731  1
  O  O264  1  0.61383996  0.86851783  0.36301942  1
  O  O265  1  0.60468704  0.87926293  0.87607781  1
  O  O266  1  0.38565285  0.13622196  0.12534361  1
  O  O267  1  0.37195943  0.11451514  0.64214527  1
  O  O268  1  0.37193190  0.62505597  0.14389450  1
  O  O269  1  0.36842046  0.63658779  0.63403478  1
  O  O270  1  0.87258406  0.13520537  0.12275349  1
  O  O271  1  0.88707788  0.13308240  0.62593874  1
  O  O272  1  0.88492118  0.63322421  0.13557658  1
  O  O273  1  0.89097002  0.62218700  0.61817879  1
  O  O274  1  0.25760213  0.25968219  0.11976133  1
  O  O275  1  0.24820316  0.25626625  0.61342475  1
  O  O276  1  0.24253272  0.76759437  0.13368400  1
  O  O277  1  0.25060083  0.74835434  0.61086808  1
  O  O278  1  0.76377110  0.25417071  0.12940956  1
  O  O279  1  0.76814851  0.25930511  0.62618667  1
  O  O280  1  0.76608796  0.75986633  0.15189230  1
  O  O281  1  0.74594824  0.73975223  0.59583813  1
  O  O282  1  0.24094249  0.25026516  0.37026861  1
  O  O283  1  0.25381645  0.25973911  0.89180004  1
  O  O284  1  0.23772469  0.75489658  0.38142368  1
  O  O285  1  0.23039338  0.73361554  0.86875905  1
  O  O286  1  0.74789021  0.23445650  0.36916261  1
  O  O287  1  0.75786940  0.25042791  0.88900243  1
  O  O288  1  0.73587765  0.75388197  0.36939233  1
  O  O289  1  0.72970564  0.75041062  0.90497554  1
  O  O290  1  0.01519759  0.14032527  0.00671761  1
  O  O291  1  0.01635004  0.12993068  0.50806358  1
  O  O292  1  0.00359816  0.63435928  0.01272139  1
  O  O293  1  0.01002301  0.61462695  0.50614855  1
  O  O294  1  0.50910187  0.13716526  0.01271774  1
  O  O295  1  0.48845727  0.10206320  0.50909338  1
  O  O296  1  0.50388188  0.61970394  -0.01077600  1
  O  O297  1  0.49097341  0.60813201  0.49882307  1
  O  O298  1  0.48181118  0.38938102  0.50281250  1
  O  O299  1  0.49519642  0.35623376  0.99155568  1
  O  O300  1  0.49156880  0.87845636  0.49293904  1
  O  O301  1  0.47807586  0.88068362  0.99549805  1
  O  O302  1  0.99580171  0.38343988  0.50120861  1
  O  O303  1  0.98808277  0.37100875  0.99044393  1
  O  O304  1  0.98891847  0.87309918  0.48767694  1
  O  O305  1  0.97562310  0.85630368  0.99825059  1
  O  O306  1  0.48976376  0.49738967  0.37573649  1
  O  O307  1  0.49692998  0.48657811  0.89761816  1
  O  O308  1  0.49153563  0.98959868  0.38020380  1
  O  O309  1  0.48323367  0.98541456  0.87827631  1
  O  O310  1  0.99493399  0.49477852  0.38554730  1
  O  O311  1  0.99908146  0.49045129  0.87795410  1
  O  O312  1  0.99518899  0.99206904  0.37369574  1
  O  O313  1  1.01174479  0.95776246  0.83238051  1
  O  O314  1  0.01933563  -0.00379059  0.13718876  1
  O  O315  1  0.01544303  0.01643315  0.61983811  1
  O  O316  1  -0.00747319  0.51530813  0.12531678  1
  O  O317  1  0.00638343  0.50567030  0.61567131  1
  O  O318  1  0.49285723  0.01770194  0.12615154  1
  O  O319  1  0.49950678  -0.00991578  0.61396936  1
  O  O320  1  0.50545135  0.50813582  0.11796082  1
  O  O321  1  0.50009713  0.49847044  0.61639838  1
  O  O322  1  0.24150784  0.38186244  0.24040194  1
  O  O323  1  0.23364592  0.37088570  0.75887898  1
  O  O324  1  0.26088120  0.88856774  0.23525341  1
  O  O325  1  0.23960534  0.87290129  0.74713447  1
  O  O326  1  0.74548130  0.37601704  0.24829992  1
  O  O327  1  0.75554120  0.37371458  0.73988440  1
  O  O328  1  0.73739363  0.89220812  0.25812151  1
  O  O329  1  0.73573696  0.94510241  0.77951447  1
  O  O330  1  0.25576868  0.11258451  0.24516876  1
  O  O331  1  0.25681918  0.13300173  0.75315967  1
  O  O332  1  0.25795969  0.61584841  0.24609935  1
  O  O333  1  0.24321617  0.62149615  0.75448037  1
  O  O334  1  0.74485256  0.11218238  0.26203117  1
  O  O335  1  0.77239309  0.13106125  0.75227480  1
  O  O336  1  0.76855203  0.60821851  0.24743459  1
  O  O337  1  0.83057749  0.56710955  0.75390801  1
  O  O338  1  0.38177070  0.11146480  0.37970757  1
  O  O339  1  0.37589622  0.11305300  0.86693122  1
  O  O340  1  0.37391753  0.60878613  0.36347780  1
  O  O341  1  0.35685756  0.63621581  0.85601846  1
  O  O342  1  0.87357877  0.11342137  0.38040776  1
  O  O343  1  0.89249111  0.11936161  0.85703137  1
  O  O344  1  0.88782061  0.61089354  0.36809074  1
  O  O345  1  0.83502199  0.62576991  0.80001545  1
  O  O346  1  0.13624849  0.36748142  0.13358154  1
  O  O347  1  0.11924723  0.38755673  0.63720840  1
  O  O348  1  0.13995691  0.89120424  0.11636176  1
  O  O349  1  0.11758347  0.88875487  0.63378942  1
  O  O350  1  0.63960001  0.36750094  0.13837170  1
  O  O351  1  0.64605696  0.37003684  0.62066835  1
  O  O352  1  0.60897938  0.88687963  0.14203813  1
  O  O353  1  0.63829052  0.87434712  0.62907822  1
  O  O354  1  0.12142572  0.25471473  0.25217367  1
  O  O355  1  0.11333710  0.26832149  0.74150214  1
  O  O356  1  0.11528149  0.73846207  0.26103785  1
  O  O357  1  0.12078756  0.76809510  0.74609843  1
  O  O358  1  0.61082477  0.25614752  0.25322347  1
  O  O359  1  0.61276772  0.23973070  0.75135088  1
  O  O360  1  0.61059948  0.75598382  0.25107066  1
  O  O361  1  0.66342761  0.65908495  0.76944382  1
  O  O362  1  0.38242190  0.25276000  0.23817471  1
  O  O363  1  0.37851875  0.23380850  0.75363412  1
  O  O364  1  0.38265929  0.73863922  0.26239902  1
  O  O365  1  0.36992666  0.74593243  0.73332845  1
  O  O366  1  0.88602709  0.25313060  0.23805899  1
  O  O367  1  0.88661531  0.24339753  0.74063878  1
  O  O368  1  0.88606793  0.73979478  0.25309891  1
  O  O369  1  0.81853710  0.81830978  0.73125718  1
  O  O370  1  0.37249402  0.49474198  0.48743093  1
  O  O371  1  0.39238000  0.50143356  1.01203448  1
  O  O372  1  0.37722597  0.98763540  0.49289607  1
  O  O373  1  0.37307967  1.00086460  0.98667077  1
  O  O374  1  0.88317088  0.49198839  0.49320115  1
  O  O375  1  0.86229754  0.48625197  1.01036296  1
  O  O376  1  0.87779608  0.99042667  0.49150276  1
  O  O377  1  0.90281417  1.01414268  0.98741432  1
  O  O378  1  0.12672019  0.01241820  0.01154614  1
  O  O379  1  0.12590031  0.00924293  0.50385798  1
  O  O380  1  0.12194656  0.51284173  -0.00123563  1
  O  O381  1  0.12062176  0.50154365  0.50629539  1
  O  O382  1  0.61647392  0.02060114  0.00699744  1
  O  O383  1  0.60853401  -0.00924233  0.49198733  1
  O  O384  1  0.60447569  0.48404767  0.00999010  1
  O  O385  1  0.61032435  0.49864139  0.49634392  1
  O  O386  1  0.35978440  0.36774242  0.12889338  1
  O  O387  1  0.36438820  0.38628006  0.60756157  1
  O  O388  1  0.36369689  0.88026963  0.11065904  1
  O  O389  1  0.37771408  0.86085385  0.61412656  1
  O  O390  1  0.87175149  0.36232698  0.11208624  1
  O  O391  1  0.87421752  0.36864242  0.61845734  1
  O  O392  1  0.88748968  0.85668181  0.14033778  1
  O  O393  1  0.88180152  0.87997821  0.60432843  1
  O  O394  1  0.12303270  0.13252740  0.38625896  1
  O  O395  1  0.11736057  0.11415449  0.88947774  1
  O  O396  1  0.11647613  0.63347845  0.38649758  1
  O  O397  1  0.12899496  0.63079311  0.88745736  1
  O  O398  1  0.63411576  0.12634053  0.37846340  1
  O  O399  1  0.61246039  0.12381903  0.88897983  1
  O  O400  1  0.62309033  0.63873158  0.36366167  1
  O  O401  1  0.63068956  0.63504250  0.83407459  1
