# generated using pymatgen
data_V73Zn73O256
_symmetry_space_group_name_H-M   'P 1'
_cell_length_a   16.90513886
_cell_length_b   16.91980479
_cell_length_c   16.90336256
_cell_angle_alpha   90.06844376
_cell_angle_beta   90.01009272
_cell_angle_gamma   89.85769118
_symmetry_Int_Tables_number   1
_chemical_formula_structural   V73Zn73O256
_chemical_formula_sum   'V73 Zn73 O256'
_cell_volume   4834.87823941
_cell_formula_units_Z   1
loop_
 _symmetry_equiv_pos_site_id
 _symmetry_equiv_pos_as_xyz
  1  'x, y, z'
loop_
 _atom_site_type_symbol
 _atom_site_label
 _atom_site_symmetry_multiplicity
 _atom_site_fract_x
 _atom_site_fract_y
 _atom_site_fract_z
 _atom_site_occupancy
  V  V0  1  0.87398212  0.63264524  0.75631672  1
  V  V1  1  0.88088749  0.38254478  -0.00409442  1
  V  V2  1  0.76464841  0.00395027  0.75692931  1
  V  V3  1  0.25478882  0.61685269  0.88123828  1
  V  V4  1  0.49917266  0.12328194  0.63574838  1
  V  V5  1  0.13081419  0.27234537  0.87170912  1
  V  V6  1  0.61953947  0.37257970  0.25825307  1
  V  V7  1  0.74902442  0.49967726  0.75279424  1
  V  V8  1  0.73796727  0.38136119  0.11874219  1
  V  V9  1  0.12734086  0.61899250  0.01083552  1
  V  V10  1  0.49823885  0.86846396  0.37907939  1
  V  V11  1  0.61728377  -0.00312270  0.62306699  1
  V  V12  1  0.80399287  0.05070632  0.29297107  1
  V  V13  1  0.25192025  -0.01311308  0.77434884  1
  V  V14  1  0.23737933  0.75151558  0.48875385  1
  V  V15  1  0.21433385  0.41750644  0.60987355  1
  V  V16  1  0.23316416  0.49661968  0.23697726  1
  V  V17  1  0.38640145  0.38605173  0.51564823  1
  V  V18  1  0.50099280  0.62433480  0.62474696  1
  V  V19  1  0.50558802  0.75007321  0.75948202  1
  V  V20  1  0.37533150  0.74274801  0.11696681  1
  V  V21  1  0.50160416  0.23554809  0.25404483  1
  V  V22  1  0.49763099  0.00207737  0.01678463  1
  V  V23  1  0.00116341  0.14241786  0.13594674  1
  V  V24  1  0.55041811  0.04844550  0.45121595  1
  V  V25  1  0.63129447  0.50427452  0.62559584  1
  V  V26  1  0.38400268  0.48114084  0.86766876  1
  V  V27  1  0.62674651  0.87733396  0.23186976  1
  V  V28  1  0.37255347  0.00825452  0.36990487  1
  V  V29  1  0.86828759  0.51033160  0.38166833  1
  V  V30  1  0.60836289  0.26083899  0.85814182  1
  V  V31  1  0.62300316  0.62392674  0.49847273  1
  V  V32  1  -0.00492623  0.01729600  0.48482466  1
  V  V33  1  0.35648346  0.23872207  0.61592786  1
  V  V34  1  0.87993561  0.74998440  0.62432088  1
  V  V35  1  0.48664506  0.73474208  0.24835220  1
  V  V36  1  0.36745546  0.75391915  0.62677314  1
  V  V37  1  0.75262076  0.87652313  0.62155971  1
  V  V38  1  0.12779991  0.12957898  -0.00191599  1
  V  V39  1  0.24825174  0.00479418  0.25075555  1
  V  V40  1  -0.00574659  0.88566928  0.88697955  1
  V  V41  1  0.62301322  0.12016021  -0.00189340  1
  V  V42  1  0.75469554  0.36661952  0.62938673  1
  V  V43  1  0.87638595  0.25642460  0.13797550  1
  V  V44  1  0.11250844  -0.01428999  0.12701788  1
  V  V45  1  0.88164300  0.50415382  0.87649173  1
  V  V46  1  0.72300981  0.24198648  0.49033174  1
  V  V47  1  0.62676142  0.74400690  0.37209376  1
  V  V48  1  0.86949912  0.89392059  0.00894542  1
  V  V49  1  0.61290227  0.62113313  0.01621136  1
  V  V50  1  0.37878771  0.50344623  0.36912516  1
  V  V51  1  0.37464491  0.36313336  0.02076173  1
  V  V52  1  0.36493360  0.12334721  0.76493802  1
  V  V53  1  0.73865003  0.50972384  0.24833271  1
  V  V54  1  0.49888642  0.89204710  0.87301845  1
  V  V55  1  0.73789229  0.63746712  0.88063585  1
  V  V56  1  0.37159719  0.62267306  0.74883588  1
  V  V57  1  0.87512790  0.62770544  0.24864125  1
  V  V58  1  0.75171360  0.73962744  0.49396774  1
  V  V59  1  0.00298340  0.75774417  0.75710547  1
  V  V60  1  0.02796362  0.86596926  0.37401384  1
  V  V61  1  0.62808580  0.87145817  0.75482377  1
  V  V62  1  0.38307379  0.22803432  0.12844175  1
  V  V63  1  0.01920081  0.74414328  0.24930164  1
  V  V64  1  0.87193979  0.35700207  0.48868747  1
  V  V65  1  0.36901819  0.88084283  0.50436101  1
  V  V66  1  0.25637494  0.86924819  0.12875482  1
  V  V67  1  0.75265024  0.24423762  -0.01736349  1
  V  V68  1  0.86908962  0.74483388  0.11855418  1
  V  V69  1  0.12957973  0.00735737  0.63919900  1
  V  V70  1  0.13255748  0.75640610  0.88174714  1
  V  V71  1  0.00878610  0.37146583  0.36674820  1
  V  V72  1  0.87697984  0.87415738  0.48211900  1
  Zn  Zn73  1  0.01760111  0.49485669  -0.00577272  1
  Zn  Zn74  1  0.73133820  0.76369349  0.00326540  1
  Zn  Zn75  1  0.50879573  0.48825737  0.00909988  1
  Zn  Zn76  1  0.01066994  0.61908570  0.62313266  1
  Zn  Zn77  1  0.02624075  0.49210349  0.51869410  1
  Zn  Zn78  1  0.00711523  0.25841923  0.74460993  1
  Zn  Zn79  1  0.18388020  0.17385087  0.47637795  1
  Zn  Zn80  1  0.50922153  0.36946343  0.39841678  1
  Zn  Zn81  1  0.36114988  0.87828766  -0.01273879  1
  Zn  Zn82  1  0.21438001  0.16288740  0.14781040  1
  Zn  Zn83  1  0.18342319  0.17871669  0.69796511  1
  Zn  Zn84  1  0.20727702  0.67283830  0.19607284  1
  Zn  Zn85  1  0.18884822  0.69287809  0.69460781  1
  Zn  Zn86  1  0.68747179  0.19769334  0.17608977  1
  Zn  Zn87  1  0.69043261  0.18213466  0.68370981  1
  Zn  Zn88  1  0.68140854  0.69309941  0.18413339  1
  Zn  Zn89  1  0.69202547  0.68955082  0.68623663  1
  Zn  Zn90  1  0.28621052  0.30461096  0.25401516  1
  Zn  Zn91  1  0.28974353  0.31476141  0.78290643  1
  Zn  Zn92  1  0.30558477  0.81541662  0.31401145  1
  Zn  Zn93  1  0.31611712  0.81178799  0.81127319  1
  Zn  Zn94  1  0.79498608  0.31266147  0.31792267  1
  Zn  Zn95  1  0.83807754  0.31276675  0.80461351  1
  Zn  Zn96  1  0.80627401  0.81218340  0.30282592  1
  Zn  Zn97  1  0.81533568  0.82147371  0.81858137  1
  Zn  Zn98  1  0.21716556  0.39122098  0.41165074  1
  Zn  Zn99  1  0.20292490  0.43521144  0.94183197  1
  Zn  Zn100  1  0.19385133  0.97005870  0.45575289  1
  Zn  Zn101  1  0.17856043  0.93767698  0.95000579  1
  Zn  Zn102  1  0.69289007  0.43897326  0.44006155  1
  Zn  Zn103  1  0.68400736  0.43986195  0.93152504  1
  Zn  Zn104  1  0.69333605  0.92984183  0.42637882  1
  Zn  Zn105  1  0.69088122  0.94110844  0.93593245  1
  Zn  Zn106  1  0.31153422  0.05239572  0.05527284  1
  Zn  Zn107  1  0.30713614  0.06034948  0.56733181  1
  Zn  Zn108  1  0.34710392  0.53527916  0.08423026  1
  Zn  Zn109  1  0.28944048  0.55019188  0.51698935  1
  Zn  Zn110  1  0.80710467  0.07187110  0.08118156  1
  Zn  Zn111  1  0.81040022  0.06121243  0.55111064  1
  Zn  Zn112  1  0.80847131  0.56631719  0.06260409  1
  Zn  Zn113  1  0.85621447  0.53234455  0.59099378  1
  Zn  Zn114  1  0.43934527  0.44111968  0.19156234  1
  Zn  Zn115  1  0.43808970  0.43187320  0.69064105  1
  Zn  Zn116  1  0.44140486  0.93143276  0.19410357  1
  Zn  Zn117  1  0.43256735  0.94002552  0.69167258  1
  Zn  Zn118  1  0.93195502  0.43731571  0.18964374  1
  Zn  Zn119  1  0.96215663  0.40307460  0.66925851  1
  Zn  Zn120  1  0.93777965  0.92340411  0.19356516  1
  Zn  Zn121  1  0.94947655  0.93814809  0.68261565  1
  Zn  Zn122  1  0.05605941  0.05573697  0.30592289  1
  Zn  Zn123  1  0.06442831  0.06428895  0.81712780  1
  Zn  Zn124  1  0.04845534  0.54340977  0.30065014  1
  Zn  Zn125  1  0.06446509  0.57024153  0.81267988  1
  Zn  Zn126  1  0.61828706  0.08020649  0.27950227  1
  Zn  Zn127  1  0.57555023  0.07173539  0.81060233  1
  Zn  Zn128  1  0.55288188  0.55677769  0.31850816  1
  Zn  Zn129  1  0.56057077  0.55856866  0.81262142  1
  Zn  Zn130  1  0.44180850  0.19431870  0.43637664  1
  Zn  Zn131  1  0.44120495  0.19036580  0.93651933  1
  Zn  Zn132  1  0.43185428  0.69019055  0.44294908  1
  Zn  Zn133  1  0.43907054  0.68853721  0.93881348  1
  Zn  Zn134  1  0.92656529  0.18832051  0.39851344  1
  Zn  Zn135  1  0.96181558  0.20857889  0.95632892  1
  Zn  Zn136  1  0.95136036  0.68193857  0.43884322  1
  Zn  Zn137  1  0.94693453  0.68177879  0.94167915  1
  Zn  Zn138  1  0.06697086  0.31450878  0.05751923  1
  Zn  Zn139  1  0.07733141  0.30872633  0.55379583  1
  Zn  Zn140  1  0.05727439  0.80493388  0.06326333  1
  Zn  Zn141  1  0.06336759  0.83153676  0.57481211  1
  Zn  Zn142  1  0.55735367  0.30558174  0.05727593  1
  Zn  Zn143  1  0.55786761  0.31734546  0.59931539  1
  Zn  Zn144  1  0.55392454  0.80501274  0.05576896  1
  Zn  Zn145  1  0.56055214  0.80961363  0.56416370  1
  O  O146  1  0.10966433  0.12158385  0.12784476  1
  O  O147  1  0.11340254  0.10721851  0.63532295  1
  O  O148  1  0.14392079  0.63197462  0.10709665  1
  O  O149  1  0.12149527  0.60243087  0.66250969  1
  O  O150  1  0.62537668  0.14224251  0.09684262  1
  O  O151  1  0.60893058  0.11081521  0.63155643  1
  O  O152  1  0.62463414  0.61997110  0.11591793  1
  O  O153  1  0.62277406  0.62437534  0.61894452  1
  O  O154  1  0.37948018  0.38569258  0.41005547  1
  O  O155  1  0.36641137  0.38599497  0.84160554  1
  O  O156  1  0.38181729  0.87821293  0.38392135  1
  O  O157  1  0.39544017  0.87164518  0.87492510  1
  O  O158  1  0.86673283  0.38386330  0.38017614  1
  O  O159  1  0.85805297  0.39195744  0.89317686  1
  O  O160  1  0.87295501  0.86070413  0.38331647  1
  O  O161  1  0.88399062  0.87320276  0.89586555  1
  O  O162  1  0.26186657  -0.01020012  0.35983020  1
  O  O163  1  0.24871685  -0.01144497  0.87468012  1
  O  O164  1  0.27953200  0.49846155  0.41248630  1
  O  O165  1  0.26247891  0.51339319  0.86941146  1
  O  O166  1  0.74638356  0.00431429  0.36357677  1
  O  O167  1  0.75091768  -0.00215189  0.85679927  1
  O  O168  1  0.75545002  0.49441866  0.35417877  1
  O  O169  1  0.75703324  0.51320466  0.86922593  1
  O  O170  1  0.25789792  0.48887080  0.13824836  1
  O  O171  1  0.25277206  0.50929246  0.61906658  1
  O  O172  1  0.24654305  0.98802934  0.13487524  1
  O  O173  1  0.22798611  0.98754644  0.62448448  1
  O  O174  1  0.75502523  0.48791717  0.13439312  1
  O  O175  1  0.74993353  0.50469913  0.63731007  1
  O  O176  1  0.77096146  1.04088752  0.18308860  1
  O  O177  1  0.74175864  0.98518310  0.61766923  1
  O  O178  1  -0.00367532  0.38925658  0.26707898  1
  O  O179  1  -0.06264696  0.35074126  0.76575575  1
  O  O180  1  0.00792202  0.85857896  0.26543352  1
  O  O181  1  -0.01580774  0.86274105  0.77482001  1
  O  O182  1  0.51770476  0.37869083  0.24436427  1
  O  O183  1  0.52518862  0.36436787  0.69961669  1
  O  O184  1  0.50372821  0.85949804  0.26296423  1
  O  O185  1  0.50737567  0.87167892  0.75728300  1
  O  O186  1  0.51843324  0.13819165  0.25222640  1
  O  O187  1  0.48555113  0.10959540  0.74056344  1
  O  O188  1  0.50085483  0.63634403  0.25194511  1
  O  O189  1  0.49616113  0.63427443  0.74620024  1
  O  O190  1  0.99538401  0.12197067  0.23405847  1
  O  O191  1  0.98983122  0.12794384  0.75295598  1
  O  O192  1  0.98806211  0.63627946  0.25910445  1
  O  O193  1  0.98476186  0.63988849  0.75393986  1
  O  O194  1  0.38592291  0.25193377  0.01803371  1
  O  O195  1  0.37321461  0.24301383  0.51293622  1
  O  O196  1  0.38989885  0.76352825  0.01351638  1
  O  O197  1  0.36333100  0.75999692  0.50744962  1
  O  O198  1  0.86829235  0.26503012  0.00461521  1
  O  O199  1  0.86863565  0.25697194  0.48533880  1
  O  O200  1  0.88067706  0.74102001  0.01602175  1
  O  O201  1  0.87120823  0.75310862  0.50494224  1
  O  O202  1  0.14791764  0.27436832  0.47915989  1
  O  O203  1  0.12255949  0.24107653  0.99101564  1
  O  O204  1  0.14256490  0.77220117  0.52370599  1
  O  O205  1  0.11912456  0.73729469  0.98750426  1
  O  O206  1  0.62735473  0.25720645  0.51820016  1
  O  O207  1  0.64097337  0.24992083  0.98573448  1
  O  O208  1  0.63215083  0.74480912  0.49354002  1
  O  O209  1  0.62212597  0.73110642  1.00190324  1
  O  O210  1  0.49301211  0.25017141  0.13771546  1
  O  O211  1  0.48969175  0.22290551  0.62611320  1
  O  O212  1  0.48535676  0.75384805  0.13910649  1
  O  O213  1  0.49507037  0.74440979  0.63644478  1
  O  O214  1  0.99266128  0.25158921  0.13041309  1
  O  O215  1  1.00809850  0.30115962  0.63661919  1
  O  O216  1  0.99009430  0.75398593  0.14462772  1
  O  O217  1  0.99271765  0.75359824  0.63750803  1
  O  O218  1  -0.00154714  0.27078742  0.37202753  1
  O  O219  1  0.01968160  0.24245167  0.87003313  1
  O  O220  1  0.00631474  0.75578919  0.36682316  1
  O  O221  1  0.00858327  0.75213820  0.87278768  1
  O  O222  1  0.49794983  0.25777438  0.35945759  1
  O  O223  1  0.50882674  0.25679142  0.87280449  1
  O  O224  1  0.50205063  0.75068474  0.36615999  1
  O  O225  1  0.50089540  0.75702801  0.86283071  1
  O  O226  1  0.23226284  0.07826174  0.48679932  1
  O  O227  1  0.22910861  0.12750798  1.02975577  1
  O  O228  1  0.24875852  0.65386718  0.51113760  1
  O  O229  1  0.24615182  0.62902472  0.98157101  1
  O  O230  1  0.74652163  0.14509119  0.51647532  1
  O  O231  1  0.74860401  0.13938205  1.00081670  1
  O  O232  1  0.74014135  0.63901066  0.50500212  1
  O  O233  1  0.73931504  0.62465041  0.98939841  1
  O  O234  1  0.27721027  0.36646738  -0.00879896  1
  O  O235  1  0.26741676  0.37750445  0.52295236  1
  O  O236  1  0.25033200  0.88058927  0.02017231  1
  O  O237  1  0.26506500  0.87309292  0.49731070  1
  O  O238  1  0.75416996  0.37134369  0.00930120  1
  O  O239  1  0.75362423  0.36033288  0.50182946  1
  O  O240  1  0.76456283  0.87364138  -0.00548028  1
  O  O241  1  0.76077684  0.86515066  0.50211752  1
  O  O242  1  0.13093738  0.50411500  0.24023406  1
  O  O243  1  0.12446327  0.53989407  0.71807118  1
  O  O244  1  0.13742988  1.00072906  0.23884845  1
  O  O245  1  0.14144069  1.00584744  0.75108807  1
  O  O246  1  0.63448131  0.49504588  0.24988791  1
  O  O247  1  0.64077797  0.50934949  0.74205733  1
  O  O248  1  0.60544780  0.97454668  0.24786561  1
  O  O249  1  0.63543783  0.98918068  0.73897249  1
  O  O250  1  0.37210552  -0.00699257  0.26423127  1
  O  O251  1  0.36065339  0.00719772  0.74864230  1
  O  O252  1  0.36552884  0.48854317  0.26845352  1
  O  O253  1  0.38352654  0.51432239  0.75318853  1
  O  O254  1  0.87341503  -0.02041983  0.26478775  1
  O  O255  1  0.86295259  -0.01579949  0.73968756  1
  O  O256  1  0.86442037  0.51036165  0.25338880  1
  O  O257  1  0.86355626  0.51800655  0.76055190  1
  O  O258  1  0.10250259  0.40010260  0.39039825  1
  O  O259  1  0.12385330  0.37286567  0.88328739  1
  O  O260  1  0.12358595  0.87818109  0.38663364  1
  O  O261  1  0.10974912  0.86240063  0.89150080  1
  O  O262  1  0.62650710  0.38082884  0.36120641  1
  O  O263  1  0.63656817  0.35878127  0.87042379  1
  O  O264  1  0.61421048  0.85936802  0.37489375  1
  O  O265  1  0.61796171  0.87908022  0.86215821  1
  O  O266  1  0.37747252  0.12945616  0.11965876  1
  O  O267  1  0.38269505  0.12015678  0.62840436  1
  O  O268  1  0.35997154  0.64609426  0.11402219  1
  O  O269  1  0.38738813  0.63730305  0.63414520  1
  O  O270  1  0.88774997  0.15027245  0.11693978  1
  O  O271  1  0.90836441  0.09563020  0.60551992  1
  O  O272  1  0.87478608  0.63194033  0.13474874  1
  O  O273  1  0.86722518  0.64237143  0.63886480  1
  O  O274  1  0.27654220  0.25457089  0.14937780  1
  O  O275  1  0.25719353  0.22066704  0.61638684  1
  O  O276  1  0.26156594  0.76158988  0.13699352  1
  O  O277  1  0.26605150  0.75537976  0.63582311  1
  O  O278  1  0.76195329  0.26339367  0.11399743  1
  O  O279  1  0.74957696  0.26526764  0.62583087  1
  O  O280  1  0.76421741  0.74569320  0.12029116  1
  O  O281  1  0.75691552  0.76094131  0.61625701  1
  O  O282  1  0.21998266  0.22972368  0.33827770  1
  O  O283  1  0.23258839  0.25737088  0.86649325  1
  O  O284  1  0.24277871  0.75614307  0.38775289  1
  O  O285  1  0.23661847  0.75243120  0.87306384  1
  O  O286  1  0.73286365  0.25002125  0.38909132  1
  O  O287  1  0.76819763  0.25300112  0.88400822  1
  O  O288  1  0.73659492  0.75245443  0.38098518  1
  O  O289  1  0.75517160  0.73991786  0.87963088  1
  O  O290  1  0.01260200  0.12782080  0.02040474  1
  O  O291  1  -0.00724970  0.11297148  0.46184130  1
  O  O292  1  0.02004762  0.61599862  0.00156596  1
  O  O293  1  0.00104431  0.61051658  0.50926413  1
  O  O294  1  0.50970894  0.11022621  -0.00623973  1
  O  O295  1  0.49526866  0.11180205  0.51165631  1
  O  O296  1  0.51118758  0.62051720  -0.00567840  1
  O  O297  1  0.51264131  0.63817389  0.51448813  1
  O  O298  1  0.49044194  0.36061502  0.51460933  1
  O  O299  1  0.48388265  0.37300183  1.00031087  1
  O  O300  1  0.48840147  0.86007013  0.48788984  1
  O  O301  1  0.51375994  0.89114769  0.98445454  1
  O  O302  1  0.97510865  0.38367458  0.48704710  1
  O  O303  1  0.98254167  0.37438377  0.99464668  1
  O  O304  1  0.98813826  0.86824242  0.48493596  1
  O  O305  1  0.98635653  0.87242377  0.99611698  1
  O  O306  1  0.48888149  0.48386206  0.37603820  1
  O  O307  1  0.48673409  0.49655827  0.87182195  1
  O  O308  1  0.49025892  0.98804296  0.38430401  1
  O  O309  1  0.50459155  0.99220543  0.86882473  1
  O  O310  1  0.97454879  0.49691601  0.37864000  1
  O  O311  1  0.98591717  0.50934606  0.87407770  1
  O  O312  1  1.00620049  0.97957991  0.37958921  1
  O  O313  1  1.00477486  0.98338027  0.87605395  1
  O  O314  1  0.01126628  -0.00383403  0.13643732  1
  O  O315  1  -0.03559133  0.03693555  0.59948397  1
  O  O316  1  0.02427452  0.46377773  0.11445407  1
  O  O317  1  -0.03451083  0.50558984  0.62204188  1
  O  O318  1  0.50125014  -0.00731749  0.11467274  1
  O  O319  1  0.51059149  -0.00149012  0.62635119  1
  O  O320  1  0.45772271  0.51241574  0.10953475  1
  O  O321  1  0.51867078  0.51802008  0.63610855  1
  O  O322  1  0.24137050  0.39813391  0.29252953  1
  O  O323  1  0.22794790  0.36842702  0.69860707  1
  O  O324  1  0.25166090  0.88392864  0.23691347  1
  O  O325  1  0.25668442  0.88815193  0.75191393  1
  O  O326  1  0.73745753  0.38149806  0.23723544  1
  O  O327  1  0.76513459  0.38538710  0.73537383  1
  O  O328  1  0.72638109  0.86692410  0.24856990  1
  O  O329  1  0.74519831  0.87744421  0.74016102  1
  O  O330  1  0.25826906  0.10276989  0.23915168  1
  O  O331  1  0.25968734  0.10785814  0.75397071  1
  O  O332  1  0.25280368  0.59617084  0.26317408  1
  O  O333  1  0.26637652  0.63868181  0.76370949  1
  O  O334  1  0.71980678  0.12890228  0.25937294  1
  O  O335  1  0.75232635  0.10050798  0.73095915  1
  O  O336  1  0.75152184  0.61345984  0.24199772  1
  O  O337  1  0.75624950  0.62623680  0.76185483  1
  O  O338  1  0.38331901  0.10575531  0.38192871  1
  O  O339  1  0.37877139  0.12915978  0.86322189  1
  O  O340  1  0.38988077  0.60309416  0.38797614  1
  O  O341  1  0.36845051  0.62454264  0.87000767  1
  O  O342  1  0.85996338  0.12100471  0.33997192  1
  O  O343  1  0.91037748  0.13527317  0.78313898  1
  O  O344  1  0.87116374  0.61711450  0.36648212  1
  O  O345  1  0.86578033  0.62293859  0.87386388  1
  O  O346  1  0.08476967  0.40998923  0.12099822  1
  O  O347  1  0.11715020  0.42735182  0.57108123  1
  O  O348  1  0.13056069  0.88154968  0.12011675  1
  O  O349  1  0.05863847  0.92267708  0.64458386  1
  O  O350  1  0.63606587  0.37191348  0.12443245  1
  O  O351  1  0.65081701  0.39512946  0.61391315  1
  O  O352  1  0.61670079  0.86220340  0.13261212  1
  O  O353  1  0.63239509  0.87811185  0.62924346  1
  O  O354  1  0.15553025  0.19579464  0.30854826  1
  O  O355  1  0.12243150  0.24539675  0.76512141  1
  O  O356  1  0.11666326  0.73402281  0.24369217  1
  O  O357  1  0.11359907  0.74966466  0.76552175  1
  O  O358  1  0.61649361  0.26678447  0.24216456  1
  O  O359  1  0.62856275  0.23865665  0.76073877  1
  O  O360  1  0.61159007  0.75213101  0.25648794  1
  O  O361  1  0.61888861  0.76212353  0.74075849  1
  O  O362  1  0.39348177  0.24817253  0.24234887  1
  O  O363  1  0.36154387  0.22794442  0.73505310  1
  O  O364  1  0.38233273  0.75114275  0.24586804  1
  O  O365  1  0.38691951  0.74552997  0.74533659  1
  O  O366  1  0.86393159  0.26384908  0.23554579  1
  O  O367  1  0.87832794  0.19875929  0.75032254  1
  O  O368  1  0.87251188  0.74100589  0.24087571  1
  O  O369  1  0.87712133  0.74952051  0.74573169  1
  O  O370  1  0.39058734  0.48408426  0.53679031  1
  O  O371  1  0.37355547  0.47928392  0.97594173  1
  O  O372  1  0.37256973  0.98507095  0.49154927  1
  O  O373  1  0.39356140  0.99541578  1.00023599  1
  O  O374  1  0.84695399  0.49971705  0.48033502  1
  O  O375  1  0.87631876  0.49406983  0.99858708  1
  O  O376  1  0.88031596  0.98081413  0.49068345  1
  O  O377  1  0.86669073  0.99222093  1.02019961  1
  O  O378  1  0.12533312  0.01088746  0.02304482  1
  O  O379  1  0.09388849  -0.00432811  0.51747348  1
  O  O380  1  0.13535605  0.51442570  -0.00944728  1
  O  O381  1  0.13118771  0.56856313  0.44988489  1
  O  O382  1  0.62297045  0.01391417  -0.00455883  1
  O  O383  1  0.62040906  -0.01066104  0.50453749  1
  O  O384  1  0.62309844  0.51353904  -0.00710642  1
  O  O385  1  0.63745306  0.51524621  0.50896338  1
  O  O386  1  0.37378488  0.36575237  0.12207192  1
  O  O387  1  0.37606731  0.34534405  0.62769990  1
  O  O388  1  0.36536965  0.87054894  0.12515162  1
  O  O389  1  0.38719358  0.86889303  0.61116609  1
  O  O390  1  0.86765075  0.37192104  0.11497973  1
  O  O391  1  0.85697050  0.38591183  0.59741124  1
  O  O392  1  0.87947715  0.86011624  0.11384333  1
  O  O393  1  0.87127249  0.86485595  0.61342372  1
  O  O394  1  0.12401022  0.14036366  0.36071900  1
  O  O395  1  0.12846884  0.11314954  0.89915947  1
  O  O396  1  0.12136604  0.60907919  0.38874321  1
  O  O397  1  0.13967424  0.63461828  0.87615148  1
  O  O398  1  0.60295180  0.10721313  0.39321801  1
  O  O399  1  0.62464704  0.14276657  0.88707994  1
  O  O400  1  0.61503685  0.63409536  0.38496908  1
  O  O401  1  0.63748570  0.62638637  0.87106034  1
