# generated using pymatgen
data_V73Zn73O256
_symmetry_space_group_name_H-M   'P 1'
_cell_length_a   16.91886254
_cell_length_b   16.90545823
_cell_length_c   16.86822555
_cell_angle_alpha   90.15240512
_cell_angle_beta   89.97648860
_cell_angle_gamma   89.88934017
_symmetry_Int_Tables_number   1
_chemical_formula_structural   V73Zn73O256
_chemical_formula_sum   'V73 Zn73 O256'
_cell_volume   4824.64234856
_cell_formula_units_Z   1
loop_
 _symmetry_equiv_pos_site_id
 _symmetry_equiv_pos_as_xyz
  1  'x, y, z'
loop_
 _atom_site_type_symbol
 _atom_site_label
 _atom_site_symmetry_multiplicity
 _atom_site_fract_x
 _atom_site_fract_y
 _atom_site_fract_z
 _atom_site_occupancy
  V  V0  1  0.61934478  0.60923169  0.01240111  1
  V  V1  1  0.87237192  0.50982122  0.87665831  1
  V  V2  1  0.25960524  0.12544665  0.87157134  1
  V  V3  1  0.85100695  0.26018133  0.12771820  1
  V  V4  1  0.49527144  0.87711017  0.38330572  1
  V  V5  1  0.25117755  0.38810137  0.13215515  1
  V  V6  1  0.71734267  0.88848799  0.61576546  1
  V  V7  1  0.12366665  0.24596903  0.87802335  1
  V  V8  1  0.50148800  0.00429365  0.00541708  1
  V  V9  1  0.25473967  0.86671237  0.13206199  1
  V  V10  1  0.50653854  0.36943998  0.38821743  1
  V  V11  1  -0.00210624  0.00763791  0.51744052  1
  V  V12  1  0.37573561  0.86791773  0.00885943  1
  V  V13  1  0.13309219  0.23918420  0.36556328  1
  V  V14  1  0.38773783  0.37624289  0.00508043  1
  V  V15  1  0.74720493  0.48235601  0.24637418  1
  V  V16  1  0.12509391  0.39304964  0.24308589  1
  V  V17  1  0.62676755  0.74298500  0.38060665  1
  V  V18  1  0.37317493  0.50388419  0.38838316  1
  V  V19  1  0.38375824  0.50262895  0.88235022  1
  V  V20  1  0.61536520  0.50124605  0.62548732  1
  V  V21  1  -0.00026033  0.76120400  0.75703524  1
  V  V22  1  -0.00924701  0.75648409  0.23662095  1
  V  V23  1  0.24207486  0.63093001  0.38747555  1
  V  V24  1  0.62999980  0.13553968  -0.00524883  1
  V  V25  1  0.74998119  0.00383287  0.25383456  1
  V  V26  1  0.62916851  0.11468423  0.50948371  1
  V  V27  1  0.37009184  0.00077369  0.86700097  1
  V  V28  1  0.62071577  0.00365340  0.12198836  1
  V  V29  1  0.61647608  0.73618320  0.87367275  1
  V  V30  1  0.87918768  0.50541992  0.38878326  1
  V  V31  1  0.25463009  0.24967414  0.00640812  1
  V  V32  1  0.50617595  0.36423267  0.87529400  1
  V  V33  1  0.27234285  0.25478301  0.52621120  1
  V  V34  1  0.85500590  0.37292515  0.00207916  1
  V  V35  1  0.62268498  0.23903570  0.36455175  1
  V  V36  1  0.87774822  0.12242475  0.74105962  1
  V  V37  1  -0.00040842  0.62101531  0.62333578  1
  V  V38  1  0.24594681  0.51759596  0.76616218  1
  V  V39  1  0.63411504  0.36326284  0.74903354  1
  V  V40  1  0.13563767  0.37637095  0.75146333  1
  V  V41  1  0.48632889  0.24703034  0.73687851  1
  V  V42  1  0.11949061  0.12955098  0.00747417  1
  V  V43  1  0.39009514  0.24682072  0.13043056  1
  V  V44  1  0.13148411  -0.00111685  0.11245102  1
  V  V45  1  0.12654245  0.77078414  0.36773688  1
  V  V46  1  0.75394462  0.86406213  0.12168737  1
  V  V47  1  0.61668172  0.62075015  0.51089815  1
  V  V48  1  0.35538372  0.86730128  0.50204233  1
  V  V49  1  0.50901308  0.87139215  0.87151195  1
  V  V50  1  0.13762891  0.50330980  0.61546570  1
  V  V51  1  0.74729314  0.73929194  0.00621908  1
  V  V52  1  0.24635446  0.00828450  0.25336166  1
  V  V53  1  0.75448285  0.15538190  0.87316413  1
  V  V54  1  0.36013516  0.62488027  0.24617918  1
  V  V55  1  0.00247691  0.24966910  0.72793264  1
  V  V56  1  0.87454353  0.75546196  0.60770680  1
  V  V57  1  0.00099007  0.25056089  0.23736508  1
  V  V58  1  0.62031752  0.87363354  0.24962135  1
  V  V59  1  0.49218314  0.10372820  0.62686479  1
  V  V60  1  0.00027374  0.37697639  0.88457409  1
  V  V61  1  0.38868673  0.12592728  0.24305451  1
  V  V62  1  0.00564727  0.60240949  0.11101648  1
  V  V63  1  0.49384592  0.74912233  0.24077929  1
  V  V64  1  0.24377782  0.74375840  -0.01294867  1
  V  V65  1  0.76693884  0.37152514  0.61390227  1
  V  V66  1  -0.01865660  0.88498253  0.36803913  1
  V  V67  1  0.86812137  0.12729306  0.25288441  1
  V  V68  1  0.00638928  0.38840861  0.38253443  1
  V  V69  1  0.40245459  0.62721550  0.75255601  1
  V  V70  1  0.37297069  0.01044732  0.38171061  1
  V  V71  1  0.75763533  0.51384054  0.74886747  1
  V  V72  1  0.50089954  0.59628642  0.13385695  1
  Zn  Zn73  1  -0.03130392  0.09652471  0.10665854  1
  Zn  Zn74  1  0.75778597  0.24164027  0.49544884  1
  Zn  Zn75  1  0.37902272  0.73837198  0.62215849  1
  Zn  Zn76  1  0.86487414  0.00705330  0.38682834  1
  Zn  Zn77  1  0.12962473  0.64307300  0.50399311  1
  Zn  Zn78  1  0.87208216  0.62471415  0.23956782  1
  Zn  Zn79  1  0.14328291  0.88187315  0.71365900  1
  Zn  Zn80  1  0.75954552  0.62758869  0.37498614  1
  Zn  Zn81  1  0.12492751  0.12623472  0.50233099  1
  Zn  Zn82  1  0.19502077  0.18975223  0.19122995  1
  Zn  Zn83  1  0.19944861  0.19224791  0.68909022  1
  Zn  Zn84  1  0.17326293  0.69010164  0.18491320  1
  Zn  Zn85  1  0.17894147  0.69263379  0.70038208  1
  Zn  Zn86  1  0.68031449  0.18856810  0.18766688  1
  Zn  Zn87  1  0.69426071  0.18385355  0.67889873  1
  Zn  Zn88  1  0.68546817  0.67564434  0.19486800  1
  Zn  Zn89  1  0.69962637  0.70359105  0.68742680  1
  Zn  Zn90  1  0.32786397  0.31650292  0.31884058  1
  Zn  Zn91  1  0.31535506  0.31307483  0.81577579  1
  Zn  Zn92  1  0.31398224  0.81394754  0.31308389  1
  Zn  Zn93  1  0.32144903  0.81010595  0.81486883  1
  Zn  Zn94  1  0.82292672  0.30874450  0.33902074  1
  Zn  Zn95  1  0.82144587  0.31627883  0.80451206  1
  Zn  Zn96  1  0.81067148  0.81155128  0.31004129  1
  Zn  Zn97  1  0.82191484  0.81604117  0.77210150  1
  Zn  Zn98  1  0.21199087  0.42570461  0.42841302  1
  Zn  Zn99  1  0.19664714  0.43084650  0.93556124  1
  Zn  Zn100  1  0.17580880  0.93899442  0.44637252  1
  Zn  Zn101  1  0.14976436  0.97406076  0.88486924  1
  Zn  Zn102  1  0.68777244  0.44052316  0.43198575  1
  Zn  Zn103  1  0.68827587  0.43766777  0.93281856  1
  Zn  Zn104  1  0.68740586  0.93203293  0.44077747  1
  Zn  Zn105  1  0.72672770  0.88463009  0.90089887  1
  Zn  Zn106  1  0.31444877  0.06102292  0.06200300  1
  Zn  Zn107  1  0.30104598  0.07331773  0.56712839  1
  Zn  Zn108  1  0.31547059  0.56698056  0.06227995  1
  Zn  Zn109  1  0.34446465  0.52525835  0.59243102  1
  Zn  Zn110  1  0.80458179  0.05811038  0.05771172  1
  Zn  Zn111  1  0.80901628  0.05394398  0.56822319  1
  Zn  Zn112  1  0.81718698  0.55955172  0.06962394  1
  Zn  Zn113  1  0.80116716  0.58142634  0.56346522  1
  Zn  Zn114  1  0.43136498  0.43087586  0.21149306  1
  Zn  Zn115  1  0.43806385  0.42559954  0.69145175  1
  Zn  Zn116  1  0.43742687  0.94114028  0.19126956  1
  Zn  Zn117  1  0.47402362  0.89794160  0.65992797  1
  Zn  Zn118  1  0.93094730  0.44470449  0.18843355  1
  Zn  Zn119  1  0.94676173  0.44060578  0.68711869  1
  Zn  Zn120  1  0.92950619  0.94136517  0.16636332  1
  Zn  Zn121  1  0.91921932  0.93394283  0.68700692  1
  Zn  Zn122  1  0.05418109  0.06282822  0.29409723  1
  Zn  Zn123  1  0.06666838  0.04893569  0.70979296  1
  Zn  Zn124  1  0.06142339  0.57434147  0.30377537  1
  Zn  Zn125  1  0.05041129  0.56420934  0.80949507  1
  Zn  Zn126  1  0.56171030  0.06077443  0.31874255  1
  Zn  Zn127  1  0.55484974  0.07405653  0.82234678  1
  Zn  Zn128  1  0.55879538  0.55300098  0.31343915  1
  Zn  Zn129  1  0.57056105  0.55239097  0.81794000  1
  Zn  Zn130  1  0.44344576  0.18534232  0.44735180  1
  Zn  Zn131  1  0.44255411  0.18912698  0.93800999  1
  Zn  Zn132  1  0.43571225  0.68876335  0.43697086  1
  Zn  Zn133  1  0.44287908  0.68390997  0.94966585  1
  Zn  Zn134  1  0.94334790  0.19355104  0.44401221  1
  Zn  Zn135  1  0.93384946  0.19263330  0.93939127  1
  Zn  Zn136  1  0.95426774  0.68447234  0.43473385  1
  Zn  Zn137  1  0.93859963  0.69426504  0.94327066  1
  Zn  Zn138  1  0.06321717  0.32050341  0.06444030  1
  Zn  Zn139  1  0.09821778  0.32391848  0.54973528  1
  Zn  Zn140  1  0.07126746  0.80985304  0.05646361  1
  Zn  Zn141  1  0.05221557  0.81628204  0.55372417  1
  Zn  Zn142  1  0.57366300  0.32005759  0.07169051  1
  Zn  Zn143  1  0.56403202  0.30689194  0.55368496  1
  Zn  Zn144  1  0.56419367  0.81064648  0.05979214  1
  Zn  Zn145  1  0.55823402  0.80335728  0.56127255  1
  O  O146  1  0.13902788  0.11546002  0.11640121  1
  O  O147  1  0.14867757  0.10003789  0.63346497  1
  O  O148  1  0.10664290  0.62192783  0.12975488  1
  O  O149  1  0.13280309  0.61624106  0.62216001  1
  O  O150  1  0.63940217  0.11290548  0.10810018  1
  O  O151  1  0.61660860  0.12516278  0.61775662  1
  O  O152  1  0.60911157  0.61771824  0.12542624  1
  O  O153  1  0.63016046  0.61804585  0.61765683  1
  O  O154  1  0.33081966  0.40937911  0.39635294  1
  O  O155  1  0.38497059  0.37756322  0.88649302  1
  O  O156  1  0.37723322  0.88421359  0.38171525  1
  O  O157  1  0.38237533  0.88511281  0.88965003  1
  O  O158  1  0.90025739  0.39281422  0.37048706  1
  O  O159  1  0.88213028  0.37085052  0.88829405  1
  O  O160  1  0.87880471  0.88036014  0.37359684  1
  O  O161  1  0.81929854  0.89663389  0.84541315  1
  O  O162  1  0.25994038  -0.00565512  0.35884766  1
  O  O163  1  0.26281638  0.00931351  0.88703875  1
  O  O164  1  0.25037837  0.52701091  0.37403424  1
  O  O165  1  0.27087274  0.49273445  0.87286189  1
  O  O166  1  0.75087425  -0.01139847  0.35818613  1
  O  O167  1  0.69752133  -0.01658401  0.79775092  1
  O  O168  1  0.76923972  0.49778910  0.37203588  1
  O  O169  1  0.76028771  0.49332530  0.86034306  1
  O  O170  1  0.25799907  0.48637949  0.11946402  1
  O  O171  1  0.24004706  0.50682856  0.65476975  1
  O  O172  1  0.24873336  0.99310663  0.13141098  1
  O  O173  1  0.21120850  1.04062172  0.63354848  1
  O  O174  1  0.75745952  0.49879410  0.14510187  1
  O  O175  1  0.74604097  0.49403621  0.63697950  1
  O  O176  1  0.73623512  0.98268472  0.13114434  1
  O  O177  1  0.75332505  0.98204376  0.63730002  1
  O  O178  1  0.01654611  0.37470571  0.24388137  1
  O  O179  1  0.01196525  0.36479083  0.76057348  1
  O  O180  1  -0.01291336  0.86875605  0.25487770  1
  O  O181  1  -0.01557503  0.86231960  0.74779851  1
  O  O182  1  0.43982796  0.35974171  0.29873248  1
  O  O183  1  0.51126966  0.36352166  0.75374606  1
  O  O184  1  0.50261281  0.86944301  0.25695323  1
  O  O185  1  0.49609108  0.87882316  0.77467166  1
  O  O186  1  0.48724663  0.11782465  0.24773484  1
  O  O187  1  0.50817254  0.13972828  0.74049399  1
  O  O188  1  0.49701271  0.62894668  0.24235666  1
  O  O189  1  0.50053924  0.61505695  0.75127019  1
  O  O190  1  0.98547785  0.13289571  0.22858151  1
  O  O191  1  0.99728053  0.14125446  0.74116476  1
  O  O192  1  0.99615583  0.64013686  0.23615690  1
  O  O193  1  1.02011590  0.64033041  0.73382341  1
  O  O194  1  0.37271663  0.25615620  0.00835525  1
  O  O195  1  0.36533121  0.25892685  0.48678141  1
  O  O196  1  0.37885607  0.76570662  0.00056282  1
  O  O197  1  0.37213013  0.76232132  0.50297623  1
  O  O198  1  0.87349166  0.26178349  0.01513446  1
  O  O199  1  0.85817723  0.26280327  0.44733472  1
  O  O200  1  0.84549325  0.73794881  -0.00403456  1
  O  O201  1  0.89363677  0.74742137  0.50777179  1
  O  O202  1  0.10309293  0.23776998  0.46912360  1
  O  O203  1  0.13611929  0.24969018  0.99834766  1
  O  O204  1  0.11367588  0.75578469  0.47232621  1
  O  O205  1  0.14565888  0.74218802  1.00751901  1
  O  O206  1  0.63245132  0.23829519  0.49393697  1
  O  O207  1  0.62211624  0.23348641  1.00748030  1
  O  O208  1  0.62031651  0.74092288  0.48788000  1
  O  O209  1  0.62233870  0.73152398  1.00122791  1
  O  O210  1  0.48823928  0.25956096  0.12593395  1
  O  O211  1  0.49989204  0.25431385  0.63601207  1
  O  O212  1  0.50196056  0.75057456  0.13934005  1
  O  O213  1  0.48165284  0.78428703  0.63955598  1
  O  O214  1  0.99427655  0.26020307  0.13317535  1
  O  O215  1  1.02161107  0.26246847  0.63171019  1
  O  O216  1  1.00260312  0.76482027  0.13630674  1
  O  O217  1  0.99338209  0.73883838  0.62395293  1
  O  O218  1  0.00787926  0.26888631  0.35207932  1
  O  O219  1  0.01397914  0.25527149  0.87497421  1
  O  O220  1  0.00491689  0.76810828  0.36419628  1
  O  O221  1  -0.01089786  0.74316058  0.85619899  1
  O  O222  1  0.51082366  0.25870178  0.38692828  1
  O  O223  1  0.49919694  0.25753379  0.86159799  1
  O  O224  1  0.50603097  0.75881192  0.36558099  1
  O  O225  1  0.50603301  0.76176695  0.88850996  1
  O  O226  1  0.24063911  0.15438069  0.50488344  1
  O  O227  1  0.24912772  0.13766857  0.99801769  1
  O  O228  1  0.24741367  0.64134409  0.48629012  1
  O  O229  1  0.27397451  0.64693337  0.99946445  1
  O  O230  1  0.73622163  0.12421668  0.51172191  1
  O  O231  1  0.74278408  0.11769716  0.98275901  1
  O  O232  1  0.72234514  0.61563173  0.48306357  1
  O  O233  1  0.73007784  0.62999041  1.01927024  1
  O  O234  1  0.26233382  0.36764373  0.00951876  1
  O  O235  1  0.21272532  0.33978727  0.50640249  1
  O  O236  1  0.26767906  0.86564034  0.01192315  1
  O  O237  1  0.25650319  0.87489735  0.48928280  1
  O  O238  1  0.75649301  0.36999916  -0.00427232  1
  O  O239  1  0.74516878  0.38217152  0.51439642  1
  O  O240  1  0.73534464  0.85898014  0.01614282  1
  O  O241  1  0.73969825  0.86728203  0.51661300  1
  O  O242  1  0.12607141  0.49065969  0.24876962  1
  O  O243  1  0.13821613  0.49422253  0.76880335  1
  O  O244  1  0.14358994  1.00630699  0.23805109  1
  O  O245  1  0.12184342  0.97587550  0.77536274  1
  O  O246  1  0.64691786  0.49878972  0.27022930  1
  O  O247  1  0.63987938  0.49336440  0.74455654  1
  O  O248  1  0.62761459  0.99414341  0.24526957  1
  O  O249  1  0.63379181  0.99583209  0.76149507  1
  O  O250  1  0.36804404  0.01073992  0.25314620  1
  O  O251  1  0.37482748  -0.00665207  0.77145724  1
  O  O252  1  0.37257618  0.52063159  0.26588066  1
  O  O253  1  0.36568835  0.51082673  0.76457697  1
  O  O254  1  0.86185536  0.01130543  0.24037199  1
  O  O255  1  0.89217265  0.02444273  0.75354706  1
  O  O256  1  0.86807380  0.50503839  0.26132063  1
  O  O257  1  0.86505581  0.49232777  0.76010974  1
  O  O258  1  0.12380044  0.37344246  0.35558019  1
  O  O259  1  0.12159606  0.36494251  0.87448858  1
  O  O260  1  0.12030197  0.87310147  0.36462368  1
  O  O261  1  0.08913781  0.87823556  0.92261210  1
  O  O262  1  0.60980874  0.37046045  0.37457008  1
  O  O263  1  0.61934965  0.38112619  0.85794726  1
  O  O264  1  0.61481802  0.86923530  0.36692407  1
  O  O265  1  0.61380075  0.86069154  0.88321485  1
  O  O266  1  0.37643020  0.13103249  0.13310949  1
  O  O267  1  0.39219517  0.11508583  0.62208461  1
  O  O268  1  0.38882744  0.61706546  0.13929668  1
  O  O269  1  0.37099722  0.62338985  0.65000026  1
  O  O270  1  0.86204242  0.15160722  0.12949708  1
  O  O271  1  0.86058009  0.13035449  0.64282294  1
  O  O272  1  0.89409803  0.62116529  0.12434157  1
  O  O273  1  0.90208385  0.60284391  0.62335495  1
  O  O274  1  0.26071380  0.25793340  0.11763134  1
  O  O275  1  0.27062239  0.25322589  0.62848457  1
  O  O276  1  0.24724147  0.76562047  0.12882202  1
  O  O277  1  0.26748287  0.76801455  0.66614322  1
  O  O278  1  0.75261843  0.26295507  0.13464545  1
  O  O279  1  0.75214876  0.26797111  0.62079790  1
  O  O280  1  0.73188998  0.75664125  0.12154380  1
  O  O281  1  0.78561191  0.69876178  0.60837434  1
  O  O282  1  0.23299090  0.25676473  0.36227860  1
  O  O283  1  0.24693242  0.24885647  0.88859923  1
  O  O284  1  0.23351404  0.74654590  0.35913354  1
  O  O285  1  0.24792053  0.76379056  0.88842217  1
  O  O286  1  0.72372247  0.25543650  0.37012698  1
  O  O287  1  0.74864912  0.25386322  0.87509751  1
  O  O288  1  0.72869956  0.75275558  0.36758938  1
  O  O289  1  0.72398972  0.75014593  0.89728461  1
  O  O290  1  0.01492615  0.13961643  0.00641687  1
  O  O291  1  0.00002233  0.11431513  0.50132034  1
  O  O292  1  0.00003618  0.63180296  0.01240521  1
  O  O293  1  0.01597077  0.62297570  0.51607313  1
  O  O294  1  0.51795492  0.11563446  -0.01219017  1
  O  O295  1  0.50962367  0.12498534  0.51936419  1
  O  O296  1  0.50288203  0.61833422  0.02588333  1
  O  O297  1  0.51622783  0.62879319  0.49494056  1
  O  O298  1  0.49444293  0.37616304  0.48866168  1
  O  O299  1  0.49416573  0.36485029  0.99319106  1
  O  O300  1  0.48964495  0.87246001  0.48478783  1
  O  O301  1  0.49261903  0.88347534  0.99837721  1
  O  O302  1  1.02020945  0.38045779  0.48018351  1
  O  O303  1  0.99896340  0.37509139  0.98797423  1
  O  O304  1  1.00143558  0.89684160  0.47734302  1
  O  O305  1  0.98025546  0.86017415  0.99567353  1
  O  O306  1  0.48211640  0.48752413  0.37252449  1
  O  O307  1  0.48988793  0.47892150  0.86607047  1
  O  O308  1  0.48169894  0.98986084  0.36749926  1
  O  O309  1  0.49402668  0.99192489  0.88509876  1
  O  O310  1  1.00028663  0.49604960  0.36851797  1
  O  O311  1  0.98185470  0.48769380  0.86321578  1
  O  O312  1  0.99128828  0.98978480  0.35620316  1
  O  O313  1  1.01103627  0.89800386  0.93349202  1
  O  O314  1  0.03394303  -0.00565028  0.13746298  1
  O  O315  1  -0.00111664  -0.00257366  0.62051081  1
  O  O316  1  0.00177255  0.50058591  0.11728167  1
  O  O317  1  0.02746206  0.51032678  0.64041773  1
  O  O318  1  0.50923576  -0.00158504  0.11948080  1
  O  O319  1  0.50382687  0.00684799  0.64243244  1
  O  O320  1  0.49830829  0.49715744  0.14289519  1
  O  O321  1  0.51884130  0.49874138  0.64125517  1
  O  O322  1  0.24386710  0.37394623  0.23707744  1
  O  O323  1  0.23937174  0.38057389  0.76330035  1
  O  O324  1  0.26305086  0.88786242  0.23648400  1
  O  O325  1  0.26386098  0.83713788  0.71546327  1
  O  O326  1  0.76578033  0.38370247  0.26352619  1
  O  O327  1  0.74255438  0.37605722  0.74095675  1
  O  O328  1  0.73648809  0.87775420  0.24114215  1
  O  O329  1  0.72928878  0.81824149  0.69696970  1
  O  O330  1  0.26226612  0.11185124  0.24591329  1
  O  O331  1  0.25413307  0.13626779  0.77318054  1
  O  O332  1  0.26008312  0.63442066  0.24268434  1
  O  O333  1  0.24217092  0.61722414  0.77093195  1
  O  O334  1  0.75348612  0.11380010  0.24259388  1
  O  O335  1  0.76114645  0.13740892  0.76413528  1
  O  O336  1  0.75554702  0.61706859  0.25925958  1
  O  O337  1  0.74952010  0.61129012  0.74970089  1
  O  O338  1  0.38162202  0.11463169  0.36544094  1
  O  O339  1  0.37337674  0.11100963  0.88705833  1
  O  O340  1  0.36133325  0.62874051  0.36529294  1
  O  O341  1  0.39512592  0.60574922  0.87735579  1
  O  O342  1  0.88344017  0.12382605  0.35404663  1
  O  O343  1  0.86070007  0.13694633  0.87120635  1
  O  O344  1  0.88498572  0.61483132  0.37295545  1
  O  O345  1  0.87698691  0.60705076  0.88255632  1
  O  O346  1  0.14157208  0.37504660  0.12984718  1
  O  O347  1  0.12450753  0.39373788  0.64231919  1
  O  O348  1  0.14653463  0.88883146  0.11121306  1
  O  O349  1  0.12495931  0.88403795  0.60256834  1
  O  O350  1  0.63413398  0.38809179  0.13068711  1
  O  O351  1  0.63090681  0.38680171  0.63517642  1
  O  O352  1  0.62163388  0.88158054  0.13726390  1
  O  O353  1  0.61447677  0.89054362  0.61291657  1
  O  O354  1  0.11885103  0.25714239  0.24745726  1
  O  O355  1  0.12130013  0.25472029  0.75841985  1
  O  O356  1  0.10601297  0.75050064  0.25976074  1
  O  O357  1  0.10870085  0.77110860  0.74191553  1
  O  O358  1  0.61023720  0.23288977  0.26363599  1
  O  O359  1  0.62387018  0.26292731  0.74322755  1
  O  O360  1  0.61443983  0.75790372  0.25785199  1
  O  O361  1  0.62305469  0.72421270  0.77573617  1
  O  O362  1  0.36541158  0.23088953  0.24374031  1
  O  O363  1  0.38757897  0.25595920  0.74933980  1
  O  O364  1  0.38396650  0.73686908  0.25797284  1
  O  O365  1  0.38612401  0.72458529  0.77432218  1
  O  O366  1  0.87885341  0.25073830  0.24062378  1
  O  O367  1  0.89807042  0.25034617  0.74808805  1
  O  O368  1  0.88595312  0.74575326  0.25492830  1
  O  O369  1  0.89014997  0.73818664  0.72587159  1
  O  O370  1  0.37573697  0.53509924  0.48360891  1
  O  O371  1  0.37566688  0.48881527  0.99163431  1
  O  O372  1  0.35795146  1.00456617  0.48196374  1
  O  O373  1  0.38674158  0.99195621  1.00132741  1
  O  O374  1  0.87089983  0.51000260  0.48798693  1
  O  O375  1  0.86345987  0.48524046  0.98587713  1
  O  O376  1  0.89022143  1.00807215  0.49938741  1
  O  O377  1  0.90197501  1.00850804  1.06973970  1
  O  O378  1  0.13304924  0.01529597  0.00507934  1
  O  O379  1  0.10461268  0.01321631  0.48662722  1
  O  O380  1  0.12951894  0.52919107  -0.03196404  1
  O  O381  1  0.15032912  0.49361614  0.51741729  1
  O  O382  1  0.61479578  0.00242512  0.00940738  1
  O  O383  1  0.62488160  0.01589621  0.48844360  1
  O  O384  1  0.62785550  0.51068301  -0.00299464  1
  O  O385  1  0.62152092  0.50554795  0.51607276  1
  O  O386  1  0.36834799  0.36910637  0.12395384  1
  O  O387  1  0.36335788  0.41641528  0.61375430  1
  O  O388  1  0.36969212  0.88100852  0.11750017  1
  O  O389  1  0.37228089  0.89926230  0.59614893  1
  O  O390  1  0.87485710  0.37102256  0.11146004  1
  O  O391  1  0.86563775  0.38511943  0.62771299  1
  O  O392  1  0.85132464  0.86234743  0.13119152  1
  O  O393  1  0.86309464  0.85753505  0.62061800  1
  O  O394  1  0.11997366  0.13870298  0.35259842  1
  O  O395  1  0.13889413  0.13660460  0.89043213  1
  O  O396  1  0.13380697  0.63426063  0.37252010  1
  O  O397  1  0.12283311  0.58495832  0.91714925  1
  O  O398  1  0.61297110  0.13342833  0.38953086  1
  O  O399  1  0.64082142  0.12452388  0.88278667  1
  O  O400  1  0.61472691  0.64002275  0.37340083  1
  O  O401  1  0.60417167  0.62821843  0.89933556  1
