# generated using pymatgen
data_V73Zn73O256
_symmetry_space_group_name_H-M   'P 1'
_cell_length_a   16.92672435
_cell_length_b   16.96726586
_cell_length_c   16.93951778
_cell_angle_alpha   89.68508568
_cell_angle_beta   89.93409860
_cell_angle_gamma   89.79828695
_symmetry_Int_Tables_number   1
_chemical_formula_structural   V73Zn73O256
_chemical_formula_sum   'V73 Zn73 O256'
_cell_volume   4864.92669691
_cell_formula_units_Z   1
loop_
 _symmetry_equiv_pos_site_id
 _symmetry_equiv_pos_as_xyz
  1  'x, y, z'
loop_
 _atom_site_type_symbol
 _atom_site_label
 _atom_site_symmetry_multiplicity
 _atom_site_fract_x
 _atom_site_fract_y
 _atom_site_fract_z
 _atom_site_occupancy
  V  V0  1  0.74595638  0.49619440  0.73687630  1
  V  V1  1  0.61938863  0.03506551  0.12786414  1
  V  V2  1  0.62592637  0.36941594  0.75742168  1
  V  V3  1  0.36550715  0.87689414  0.49340282  1
  V  V4  1  0.12898292  0.48095372  0.62634142  1
  V  V5  1  0.72523640  0.25062335  -0.00982392  1
  V  V6  1  0.74125555  0.11826528  0.87641301  1
  V  V7  1  0.11407433  0.24890945  0.38051115  1
  V  V8  1  0.76082266  0.47810101  0.22702808  1
  V  V9  1  0.49421849  0.60839835  0.11436189  1
  V  V10  1  0.26668952  0.12367718  0.91182912  1
  V  V11  1  0.63812429  -0.00512691  0.62476458  1
  V  V12  1  0.49386852  -0.00637785  0.49072617  1
  V  V13  1  0.75573121  0.77581374  0.50032052  1
  V  V14  1  0.49999637  0.49584545  0.52581790  1
  V  V15  1  0.88066559  0.61571033  0.73964819  1
  V  V16  1  0.38334177  0.73813486  0.11724494  1
  V  V17  1  0.87593674  0.36003553  0.00670851  1
  V  V18  1  0.50078971  0.38132495  0.37483230  1
  V  V19  1  0.12018150  0.62588500  -0.00727672  1
  V  V20  1  0.00216135  0.26551510  0.24212649  1
  V  V21  1  0.86783705  0.10924559  0.75047075  1
  V  V22  1  -0.00065091  0.50055026  -0.00308652  1
  V  V23  1  0.36834935  0.36732935  0.50876101  1
  V  V24  1  0.50705692  0.24785436  0.76001266  1
  V  V25  1  0.51860691  0.00106007  -0.00051712  1
  V  V26  1  0.12466193  0.51300915  0.13369823  1
  V  V27  1  0.00735737  0.48666729  0.48476769  1
  V  V28  1  0.75045913  0.37318601  0.62436506  1
  V  V29  1  0.26472838  0.37915028  0.12212498  1
  V  V30  1  0.00530822  0.11187384  0.13329034  1
  V  V31  1  0.24170623  -0.00504548  0.74537620  1
  V  V32  1  -0.00766359  0.24496590  0.76190910  1
  V  V33  1  0.35869428  0.10363930  0.25778047  1
  V  V34  1  0.37408672  0.11817061  0.74526194  1
  V  V35  1  0.88030711  0.37539013  0.49373287  1
  V  V36  1  0.40583753  0.64366471  0.28923847  1
  V  V37  1  0.88125773  0.49350612  0.87207709  1
  V  V38  1  0.25355782  0.61692704  0.86786294  1
  V  V39  1  0.74947112  0.25216271  0.50198108  1
  V  V40  1  0.12059999  0.00818192  0.59495674  1
  V  V41  1  0.73173243  -0.01247699  0.25506695  1
  V  V42  1  0.38078582  0.86882840  -0.00457098  1
  V  V43  1  0.25150245  0.75481744  -0.01692147  1
  V  V44  1  0.25298326  0.48912904  0.74891138  1
  V  V45  1  0.64484202  0.87275981  0.73766415  1
  V  V46  1  0.12284604  0.36197507  0.76528306  1
  V  V47  1  0.89025853  0.76499719  0.62827010  1
  V  V48  1  -0.04364933  0.73705443  0.23073114  1
  V  V49  1  0.62949277  0.12587592  0.49507639  1
  V  V50  1  0.24955875  0.23214084  0.48787052  1
  V  V51  1  0.63083231  0.61563829  0.52243769  1
  V  V52  1  0.75270190  0.62512755  0.86346276  1
  V  V53  1  0.62524661  0.74735248  0.86060951  1
  V  V54  1  0.62530183  0.25370699  0.36849619  1
  V  V55  1  0.37922576  0.62163633  0.73873131  1
  V  V56  1  0.00272821  0.61402292  0.62526932  1
  V  V57  1  0.61947015  0.60622736  -0.01342467  1
  V  V58  1  0.34745202  0.75997941  0.62213277  1
  V  V59  1  0.50469481  0.74804104  0.72201908  1
  V  V60  1  0.12693783  0.63668136  0.49924720  1
  V  V61  1  0.25343087  0.64235608  0.38564793  1
  V  V62  1  0.49174699  0.24561843  0.24717289  1
  V  V63  1  0.47788237  0.48572769  -0.03465968  1
  V  V64  1  0.74592219  0.75176101  0.00853723  1
  V  V65  1  0.36624291  0.24587770  0.62378017  1
  V  V66  1  0.38138029  -0.00719440  0.86954701  1
  V  V67  1  0.50110446  0.12266962  0.62120129  1
  V  V68  1  0.36992454  0.50013380  0.38791638  1
  V  V69  1  -0.00439814  0.13086151  0.61327376  1
  V  V70  1  0.89030711  0.00828045  0.37649616  1
  V  V71  1  0.86290702  0.14143528  0.25440589  1
  V  V72  1  0.89319405  0.88839342  0.48784523  1
  Zn  Zn73  1  0.11140406  0.85653040  0.50253425  1
  Zn  Zn74  1  0.50852030  0.87186129  0.86355703  1
  Zn  Zn75  1  0.27063504  0.51253225  0.24793775  1
  Zn  Zn76  1  0.13083909  0.38597860  0.25760344  1
  Zn  Zn77  1  0.90963813  0.56226950  0.32490215  1
  Zn  Zn78  1  -0.01174617  0.91728822  0.92483977  1
  Zn  Zn79  1  0.11645814  0.16366932  0.01955607  1
  Zn  Zn80  1  0.09824663  0.78096829  0.86834512  1
  Zn  Zn81  1  0.36630339  0.25220885  0.13655773  1
  Zn  Zn82  1  0.18903880  0.18961132  0.19560656  1
  Zn  Zn83  1  0.18281130  0.18185211  0.68471669  1
  Zn  Zn84  1  0.18811229  0.74513380  0.16459153  1
  Zn  Zn85  1  0.17851142  0.68356832  0.69250948  1
  Zn  Zn86  1  0.68332138  0.31296587  0.16781760  1
  Zn  Zn87  1  0.68965693  0.18577568  0.68439850  1
  Zn  Zn88  1  0.66813067  0.67035333  0.17889115  1
  Zn  Zn89  1  0.69866007  0.69238113  0.66787502  1
  Zn  Zn90  1  0.30838524  0.32294635  0.31219851  1
  Zn  Zn91  1  0.30023386  0.29413008  0.80856573  1
  Zn  Zn92  1  0.24893172  0.85778926  0.38372952  1
  Zn  Zn93  1  0.31150291  0.81194679  0.80484687  1
  Zn  Zn94  1  0.81377609  0.31906084  0.31757656  1
  Zn  Zn95  1  0.81395142  0.30893275  0.81778705  1
  Zn  Zn96  1  0.75661660  0.77781626  0.28591557  1
  Zn  Zn97  1  0.92040442  0.79603945  0.82516240  1
  Zn  Zn98  1  0.18996507  0.42625068  0.43874940  1
  Zn  Zn99  1  0.18966083  0.43316432  0.93842496  1
  Zn  Zn100  1  0.07796328  0.83330019  0.31034398  1
  Zn  Zn101  1  0.13722546  0.99019493  0.91439187  1
  Zn  Zn102  1  0.68419141  0.44299338  0.43701386  1
  Zn  Zn103  1  0.69633252  0.43131949  0.93002261  1
  Zn  Zn104  1  0.67619348  0.92880863  0.43109190  1
  Zn  Zn105  1  0.79006394  0.91797126  0.90926663  1
  Zn  Zn106  1  0.37845904  0.07295527  0.06563726  1
  Zn  Zn107  1  0.30695811  0.05423090  0.56162200  1
  Zn  Zn108  1  0.31007935  0.55227269  0.05002396  1
  Zn  Zn109  1  0.31075826  0.56078494  0.56802495  1
  Zn  Zn110  1  0.77893119  0.12670876  0.10015463  1
  Zn  Zn111  1  0.81662239  0.06990618  0.56098381  1
  Zn  Zn112  1  0.80377842  0.55740511  0.05502738  1
  Zn  Zn113  1  0.83705946  0.58300792  0.51745169  1
  Zn  Zn114  1  0.48983727  0.41200740  0.15933639  1
  Zn  Zn115  1  0.43374299  0.42640732  0.69849017  1
  Zn  Zn116  1  0.43751882  0.92947613  0.18155460  1
  Zn  Zn117  1  0.44455469  0.93048425  0.67940423  1
  Zn  Zn118  1  0.94163247  0.44106820  0.17892245  1
  Zn  Zn119  1  0.93824222  0.42567952  0.68200108  1
  Zn  Zn120  1  0.92921765  0.94659015  0.21022859  1
  Zn  Zn121  1  0.94040201  0.94416522  0.67815789  1
  Zn  Zn122  1  0.07093551  0.07421269  0.31180281  1
  Zn  Zn123  1  0.02913536  0.02083627  0.78495052  1
  Zn  Zn124  1  0.08621462  0.63570945  0.28451935  1
  Zn  Zn125  1  0.06688230  0.55974250  0.81217548  1
  Zn  Zn126  1  0.55832251  0.06665304  0.31395244  1
  Zn  Zn127  1  0.56828638  0.05782811  0.80864848  1
  Zn  Zn128  1  0.59831202  0.74299855  0.36370517  1
  Zn  Zn129  1  0.56096120  0.55962170  0.79559426  1
  Zn  Zn130  1  0.43580577  0.18341052  0.43050946  1
  Zn  Zn131  1  0.43775352  0.18319145  0.93664303  1
  Zn  Zn132  1  0.44956776  0.68336563  0.46338970  1
  Zn  Zn133  1  0.44023551  0.68175096  0.92021703  1
  Zn  Zn134  1  0.93225752  0.19338016  0.43063561  1
  Zn  Zn135  1  0.96382310  0.12829553  0.92167296  1
  Zn  Zn136  1  0.92495651  0.71578678  0.41254276  1
  Zn  Zn137  1  0.95443603  0.74987144  1.00702124  1
  Zn  Zn138  1  0.06794738  0.32832546  0.06560103  1
  Zn  Zn139  1  0.06542098  0.30372606  0.56820901  1
  Zn  Zn140  1  0.03551480  0.85014933  0.11705881  1
  Zn  Zn141  1  0.10361449  0.85294893  0.71040566  1
  Zn  Zn142  1  0.55616060  0.31477262  0.04943424  1
  Zn  Zn143  1  0.56230287  0.31302015  0.56842566  1
  Zn  Zn144  1  0.56437551  0.80170097  0.04926608  1
  Zn  Zn145  1  0.57294601  0.81416033  0.53370499  1
  O  O146  1  0.11126267  0.12859810  0.13542360  1
  O  O147  1  0.11110716  0.11495420  0.62952924  1
  O  O148  1  0.14288304  0.61539165  0.09958011  1
  O  O149  1  0.12034507  0.61129014  0.61714120  1
  O  O150  1  0.60608804  0.12857034  0.12304817  1
  O  O151  1  0.61930001  0.11611358  0.61708660  1
  O  O152  1  0.60787315  0.61817488  0.09526660  1
  O  O153  1  0.62224452  0.61740696  0.62259611  1
  O  O154  1  0.38216257  0.38014627  0.38884933  1
  O  O155  1  0.36287262  0.33783202  0.90336092  1
  O  O156  1  0.36968372  0.86747539  0.39405814  1
  O  O157  1  0.38150599  0.88041610  0.87447673  1
  O  O158  1  0.86649827  0.38509141  0.39481507  1
  O  O159  1  0.87115842  0.38944395  0.88408829  1
  O  O160  1  0.87293826  0.89842156  0.38354216  1
  O  O161  1  0.88962466  0.89257785  0.86954790  1
  O  O162  1  0.20460671  -0.02218983  0.27615026  1
  O  O163  1  0.27039632  0.01406596  0.86470696  1
  O  O164  1  0.26385280  0.49795316  0.38465335  1
  O  O165  1  0.24746833  0.50474961  0.86004373  1
  O  O166  1  0.72454453  0.00132849  0.35715377  1
  O  O167  1  0.75075084  0.01860514  0.88263629  1
  O  O168  1  0.72692835  0.50498812  0.34287186  1
  O  O169  1  0.75963424  0.50780961  0.86217722  1
  O  O170  1  0.24607332  0.50100941  0.13059004  1
  O  O171  1  0.23800971  0.49904294  0.63579681  1
  O  O172  1  0.23887619  0.96505411  0.11819571  1
  O  O173  1  0.23131837  1.00826739  0.63663476  1
  O  O174  1  0.74471745  0.48690574  0.12814121  1
  O  O175  1  0.75514867  0.48841934  0.63503518  1
  O  O176  1  0.72881117  1.02750444  0.14327575  1
  O  O177  1  0.73588860  1.00652535  0.61663513  1
  O  O178  1  0.00243271  0.36870108  0.24874314  1
  O  O179  1  0.01121480  0.35769101  0.74926499  1
  O  O180  1  -0.00644683  0.85671549  0.22662194  1
  O  O181  1  0.01407317  0.90804921  0.75597216  1
  O  O182  1  0.49368739  0.37576637  0.27223161  1
  O  O183  1  0.50670559  0.35432870  0.74865061  1
  O  O184  1  0.53228665  0.85612230  0.20983826  1
  O  O185  1  0.51009181  0.86136832  0.74446689  1
  O  O186  1  0.50148126  0.14554592  0.25226885  1
  O  O187  1  0.49522797  0.12789634  0.74027164  1
  O  O188  1  0.49238476  0.61301908  0.21421514  1
  O  O189  1  0.48869148  0.63292054  0.74227972  1
  O  O190  1  0.99563138  0.14031668  0.24638191  1
  O  O191  1  0.98393837  0.12624358  0.74138784  1
  O  O192  1  0.97332906  0.63125951  0.25334408  1
  O  O193  1  0.99444023  0.61184799  0.73643394  1
  O  O194  1  0.37855783  0.28918827  -0.03917970  1
  O  O195  1  0.36839890  0.24755349  0.50443059  1
  O  O196  1  0.37428498  0.75308256  -0.01300395  1
  O  O197  1  0.38019286  0.76176554  0.51726927  1
  O  O198  1  0.88872400  0.26472479  -0.00222736  1
  O  O199  1  0.86038985  0.26293032  0.48930520  1
  O  O200  1  0.84289094  0.72367972  0.00821524  1
  O  O201  1  0.87592879  0.77671891  0.49954529  1
  O  O202  1  0.14013433  0.25511849  0.49260136  1
  O  O203  1  0.13356475  0.26964760  1.00056725  1
  O  O204  1  0.11578766  0.73266375  0.50882055  1
  O  O205  1  0.14513656  0.73464520  0.99367003  1
  O  O206  1  0.62780653  0.24313490  0.49557414  1
  O  O207  1  0.62591136  0.25432062  0.98398752  1
  O  O208  1  0.66700142  0.74778903  0.55050213  1
  O  O209  1  0.62484782  0.73315953  0.97562055  1
  O  O210  1  0.48822186  0.26692267  0.14338820  1
  O  O211  1  0.49182276  0.23485179  0.62730614  1
  O  O212  1  0.48969084  0.72656283  0.09811084  1
  O  O213  1  0.50722067  0.75383645  0.62256840  1
  O  O214  1  1.00414268  0.25559681  0.14170436  1
  O  O215  1  1.01230714  0.23440735  0.64306676  1
  O  O216  1  0.98310379  0.73694070  0.12895199  1
  O  O217  1  0.98439678  0.72458775  0.60841200  1
  O  O218  1  0.01054281  0.25493015  0.37351502  1
  O  O219  1  0.00768158  0.22366627  0.85793753  1
  O  O220  1  -0.00735236  0.75603008  0.33733209  1
  O  O221  1  -0.00760513  0.74771977  0.89694947  1
  O  O222  1  0.50551408  0.26162549  0.37277495  1
  O  O223  1  0.50117264  0.23645256  0.85782400  1
  O  O224  1  0.46941372  0.70097246  0.34362031  1
  O  O225  1  0.51436418  0.74583040  0.85378825  1
  O  O226  1  0.25620860  0.13339744  0.49578271  1
  O  O227  1  0.32078667  0.14860964  0.99437836  1
  O  O228  1  0.23380527  0.61718990  0.50015612  1
  O  O229  1  0.25095384  0.62608013  0.97898852  1
  O  O230  1  0.73787905  0.13565943  0.50215047  1
  O  O231  1  0.75154804  0.13984037  0.98610926  1
  O  O232  1  0.72847584  0.60886417  0.49839312  1
  O  O233  1  0.73165667  0.62089449  0.98341169  1
  O  O234  1  0.25015665  0.38942261  0.02253278  1
  O  O235  1  0.26481142  0.35981178  0.50211190  1
  O  O236  1  0.26543351  0.85584627  -0.01516169  1
  O  O237  1  0.26629350  0.88665188  0.50546661  1
  O  O238  1  0.76094072  0.35804387  -0.00911595  1
  O  O239  1  0.75437975  0.37530196  0.50552447  1
  O  O240  1  0.74008354  0.84963569  -0.01694194  1
  O  O241  1  0.76252629  0.87838733  0.50348181  1
  O  O242  1  0.12403621  0.52959122  0.23451449  1
  O  O243  1  0.13089392  0.48493091  0.74457417  1
  O  O244  1  0.12435461  0.97637748  0.27029981  1
  O  O245  1  0.14696773  1.01804940  0.77008306  1
  O  O246  1  0.67097171  0.51559337  0.28008573  1
  O  O247  1  0.63804938  0.48659701  0.75119490  1
  O  O248  1  0.62035780  1.00756471  0.23716233  1
  O  O249  1  0.62363064  0.98610010  0.73471173  1
  O  O250  1  0.37974658  0.00442021  0.23951407  1
  O  O251  1  0.37457957  0.00076714  0.75085135  1
  O  O252  1  0.39036991  0.52729463  0.28486822  1
  O  O253  1  0.36396560  0.50756704  0.73340096  1
  O  O254  1  0.85153702  0.01216378  0.26512905  1
  O  O255  1  0.86534620  0.01101602  0.73729756  1
  O  O256  1  0.86526451  0.48792485  0.25131297  1
  O  O257  1  0.87094472  0.49776519  0.75248213  1
  O  O258  1  0.13449346  0.35860325  0.36953470  1
  O  O259  1  0.12442082  0.37637855  0.86363534  1
  O  O260  1  0.13817951  0.86917956  0.39585690  1
  O  O261  1  0.10311510  0.88622416  0.91356511  1
  O  O262  1  0.60817631  0.36641092  0.38933441  1
  O  O263  1  0.63494457  0.36775894  0.85653085  1
  O  O264  1  0.61047582  0.83949633  0.42424057  1
  O  O265  1  0.63106482  0.85860976  0.84843533  1
  O  O266  1  0.37635902  0.13850509  0.15279522  1
  O  O267  1  0.38406444  0.12524271  0.62727478  1
  O  O268  1  0.38545953  0.62781540  0.09767040  1
  O  O269  1  0.36073891  0.64344300  0.63183278  1
  O  O270  1  0.88548298  0.12683609  0.14993438  1
  O  O271  1  0.88505643  0.12642304  0.63268366  1
  O  O272  1  0.82843057  0.62306706  0.14973773  1
  O  O273  1  0.88745383  0.60581055  0.62822975  1
  O  O274  1  0.24990703  0.27426740  0.14036850  1
  O  O275  1  0.26156458  0.23675290  0.61478872  1
  O  O276  1  0.27236899  0.73640668  0.09374577  1
  O  O277  1  0.24868526  0.75615940  0.62736349  1
  O  O278  1  0.74070509  0.24072834  0.09732431  1
  O  O279  1  0.74584511  0.25558123  0.60926752  1
  O  O280  1  0.71381116  0.75002758  0.10432947  1
  O  O281  1  0.79431535  0.72787254  0.60522196  1
  O  O282  1  0.25195420  0.24981718  0.38654176  1
  O  O283  1  0.24648371  0.20988298  0.86623034  1
  O  O284  1  0.25962831  0.73902213  0.38873366  1
  O  O285  1  0.25399676  0.73846995  0.87568873  1
  O  O286  1  0.73054789  0.26352094  0.38485923  1
  O  O287  1  0.75558981  0.23906391  0.88451626  1
  O  O288  1  0.75523282  0.75194592  0.40344921  1
  O  O289  1  0.74144788  0.73059012  0.86870882  1
  O  O290  1  -0.00260846  0.13144673  0.03056164  1
  O  O291  1  -0.00782948  0.14379907  0.51445503  1
  O  O292  1  0.01884014  0.62148156  -0.00235272  1
  O  O293  1  0.01904924  0.59972800  0.50680345  1
  O  O294  1  0.48685253  0.10030979  -0.00194414  1
  O  O295  1  0.50679252  0.11700407  0.50457113  1
  O  O296  1  0.50803692  0.60935294  -0.01842645  1
  O  O297  1  0.47930394  0.59275801  0.53401531  1
  O  O298  1  0.48807672  0.37125226  0.49771262  1
  O  O299  1  0.49824307  0.38859255  0.98468046  1
  O  O300  1  0.48719559  0.89151005  0.51357344  1
  O  O301  1  0.50046109  0.88122112  0.98742086  1
  O  O302  1  0.99059820  0.37312635  0.50578305  1
  O  O303  1  0.99069440  0.39381824  1.00157336  1
  O  O304  1  0.99059825  0.88364563  0.49075671  1
  O  O305  1  0.97028064  0.86650157  1.02761939  1
  O  O306  1  0.48979423  0.48428981  0.39999339  1
  O  O307  1  0.49501882  0.49805245  0.86553054  1
  O  O308  1  0.50887912  0.99909968  0.39240791  1
  O  O309  1  0.49829899  0.99536027  0.87921186  1
  O  O310  1  1.00535241  0.49465290  0.38775982  1
  O  O311  1  0.99055958  0.50861605  0.88248211  1
  O  O312  1  0.98763385  1.00558840  0.36137190  1
  O  O313  1  1.02149489  1.02922596  0.89828161  1
  O  O314  1  0.00071496  0.01253827  0.14541790  1
  O  O315  1  0.00908987  0.01827459  0.61643136  1
  O  O316  1  0.01674453  0.50564849  0.11383899  1
  O  O317  1  0.01336378  0.49771766  0.62285284  1
  O  O318  1  0.50933867  -0.00736088  0.10903121  1
  O  O319  1  0.50713890  0.01104799  0.61863579  1
  O  O320  1  0.48858923  0.50714681  0.09214058  1
  O  O321  1  0.50824240  0.46805483  0.62122366  1
  O  O322  1  0.25100583  0.39633029  0.24456279  1
  O  O323  1  0.24158701  0.37791458  0.75657960  1
  O  O324  1  0.23904448  0.90765084  0.27301205  1
  O  O325  1  0.24666078  0.89442814  0.75581124  1
  O  O326  1  0.75051337  0.37307011  0.24035429  1
  O  O327  1  0.74778934  0.37651480  0.74366329  1
  O  O328  1  0.74232764  0.89099214  0.24362346  1
  O  O329  1  0.74048731  0.86726838  0.73460454  1
  O  O330  1  0.25878896  0.12197078  0.25611112  1
  O  O331  1  0.26922134  0.11643479  0.73895515  1
  O  O332  1  0.27561147  0.62657604  0.28288427  1
  O  O333  1  0.25198277  0.61212412  0.75196789  1
  O  O334  1  0.76542623  0.14683119  0.25072299  1
  O  O335  1  0.76288635  0.13691427  0.75648835  1
  O  O336  1  0.77551349  0.61013562  0.20831926  1
  O  O337  1  0.75883001  0.61526253  0.74447389  1
  O  O338  1  0.38599531  0.11759085  0.35609893  1
  O  O339  1  0.37938577  0.11071367  0.86037474  1
  O  O340  1  0.36270915  0.61532681  0.40762842  1
  O  O341  1  0.36472924  0.63024933  0.84962664  1
  O  O342  1  0.87413797  0.11690741  0.36798944  1
  O  O343  1  0.86947353  0.11923347  0.85604590  1
  O  O344  1  0.87607215  0.61802767  0.41493189  1
  O  O345  1  0.86701535  0.61420815  0.85049762  1
  O  O346  1  0.13400851  0.40095505  0.13543806  1
  O  O347  1  0.12429958  0.37728694  0.63709139  1
  O  O348  1  0.14849808  0.86205104  0.13078200  1
  O  O349  1  0.11624825  0.90048227  0.60834964  1
  O  O350  1  0.59936459  0.37872545  0.13162546  1
  O  O351  1  0.64059358  0.36668760  0.63515840  1
  O  O352  1  0.58777759  0.85687317  0.15582483  1
  O  O353  1  0.62310025  0.88927717  0.62484539  1
  O  O354  1  0.11264532  0.25557917  0.26085299  1
  O  O355  1  0.12862891  0.25906175  0.75127199  1
  O  O356  1  0.11963851  0.73857810  0.24634400  1
  O  O357  1  0.12647193  0.75688984  0.75962838  1
  O  O358  1  0.61338271  0.25799075  0.26628593  1
  O  O359  1  0.61132091  0.24991113  0.74112525  1
  O  O360  1  0.65718430  0.72677969  0.27178179  1
  O  O361  1  0.62549266  0.75494470  0.73869626  1
  O  O362  1  0.38748512  0.25247681  0.26267638  1
  O  O363  1  0.38408218  0.23849778  0.74227891  1
  O  O364  1  0.37617542  0.73067962  0.21724746  1
  O  O365  1  0.38181243  0.74697087  0.73240274  1
  O  O366  1  0.89042699  0.24685952  0.26877574  1
  O  O367  1  0.89028358  0.25089486  0.75293405  1
  O  O368  1  0.85867676  0.75500455  0.24107340  1
  O  O369  1  0.88460618  0.73806461  0.73154688  1
  O  O370  1  0.37936315  0.48399065  0.50895522  1
  O  O371  1  0.37853433  0.49890556  0.97603589  1
  O  O372  1  0.38571271  0.99364801  0.50472455  1
  O  O373  1  0.38323432  0.98367537  0.99058670  1
  O  O374  1  0.89784355  0.48424013  0.50960875  1
  O  O375  1  0.88233800  0.50679699  0.98884353  1
  O  O376  1  0.87307889  1.00130099  0.48666739  1
  O  O377  1  0.84289664  0.97587749  1.04226416  1
  O  O378  1  0.17475932  -0.06188354  0.09311469  1
  O  O379  1  0.13045336  0.01594447  0.50026723  1
  O  O380  1  0.11880834  0.50847319  -0.00132370  1
  O  O381  1  0.11749589  0.48320524  0.50889505  1
  O  O382  1  0.61907154  0.00505659  0.01337939  1
  O  O383  1  0.61539966  0.00632792  0.50879340  1
  O  O384  1  0.62093146  0.50578529  -0.02226196  1
  O  O385  1  0.60765384  0.50917472  0.49778227  1
  O  O386  1  0.36810955  0.38030481  0.13184373  1
  O  O387  1  0.38001175  0.35420566  0.62172188  1
  O  O388  1  0.38848801  0.85218960  0.10605922  1
  O  O389  1  0.36951376  0.86304905  0.62492665  1
  O  O390  1  0.87668892  0.38039161  0.10548758  1
  O  O391  1  0.86107967  0.37133373  0.61337986  1
  O  O392  1  0.86565346  0.91934178  0.08424273  1
  O  O393  1  0.88725614  0.86861414  0.61363801  1
  O  O394  1  0.12879280  0.14874598  0.37229849  1
  O  O395  1  0.17634020  0.08841889  0.95568696  1
  O  O396  1  0.14100704  0.62365731  0.38927450  1
  O  O397  1  0.13705709  0.62047802  0.88092666  1
  O  O398  1  0.61539299  0.14338373  0.38491258  1
  O  O399  1  0.64143984  0.12551905  0.85985800  1
  O  O400  1  0.57201899  0.67745109  0.45684014  1
  O  O401  1  0.63152436  0.62622677  0.86701754  1
