# generated using pymatgen
data_V73Zn73O256
_symmetry_space_group_name_H-M   'P 1'
_cell_length_a   16.87399655
_cell_length_b   16.88607286
_cell_length_c   16.89923654
_cell_angle_alpha   89.98219115
_cell_angle_beta   89.97629017
_cell_angle_gamma   90.01874249
_symmetry_Int_Tables_number   1
_chemical_formula_structural   V73Zn73O256
_chemical_formula_sum   'V73 Zn73 O256'
_cell_volume   4815.19210287
_cell_formula_units_Z   1
loop_
 _symmetry_equiv_pos_site_id
 _symmetry_equiv_pos_as_xyz
  1  'x, y, z'
loop_
 _atom_site_type_symbol
 _atom_site_label
 _atom_site_symmetry_multiplicity
 _atom_site_fract_x
 _atom_site_fract_y
 _atom_site_fract_z
 _atom_site_occupancy
  V  V0  1  -0.00407255  0.26602329  0.75488341  1
  V  V1  1  0.10446993  0.63351610  0.51037557  1
  V  V2  1  0.61296818  0.13796087  0.50348851  1
  V  V3  1  0.63073881  0.48964620  0.14297814  1
  V  V4  1  0.51007119  0.74767277  0.25656401  1
  V  V5  1  0.00645149  0.87261811  0.87423618  1
  V  V6  1  0.75570408  0.37571858  0.13916776  1
  V  V7  1  0.38250862  0.12519510  0.75735355  1
  V  V8  1  0.24963364  -0.00809793  0.25468284  1
  V  V9  1  0.49878987  0.25861220  0.75529982  1
  V  V10  1  0.87649843  0.49372807  0.86712874  1
  V  V11  1  0.25915900  0.12083946  0.38118247  1
  V  V12  1  0.25281074  -0.00392229  0.75643006  1
  V  V13  1  0.25710291  0.75305415  -0.00304642  1
  V  V14  1  0.25313526  0.62911804  0.87186242  1
  V  V15  1  0.12669283  0.13311027  0.00804222  1
  V  V16  1  0.36820247  0.38089852  0.49403178  1
  V  V17  1  0.24697724  0.12486376  0.87933300  1
  V  V18  1  0.38243130  0.25069865  0.62402916  1
  V  V19  1  0.89049428  0.24808554  0.12566222  1
  V  V20  1  0.61359830  0.00518726  0.12601926  1
  V  V21  1  -0.00105514  0.00478716  0.00710279  1
  V  V22  1  0.05593598  0.82640712  0.69264661  1
  V  V23  1  0.50596487  0.25287235  0.24947820  1
  V  V24  1  0.13070134  0.12871974  0.50102445  1
  V  V25  1  0.11406403  0.62880499  0.00351955  1
  V  V26  1  0.76530473  0.35844049  0.61186313  1
  V  V27  1  0.24705047  0.49580804  0.74651698  1
  V  V28  1  0.51540657  0.37939812  0.37087916  1
  V  V29  1  0.86900089  0.87191311  0.00208310  1
  V  V30  1  0.37935702  0.63116410  0.72919777  1
  V  V31  1  0.88021917  0.64153948  0.74929856  1
  V  V32  1  0.62067068  0.12218466  0.00312896  1
  V  V33  1  0.86126783  0.88699290  0.50995305  1
  V  V34  1  0.12177530  0.75548055  0.35961084  1
  V  V35  1  0.12353535  -0.00768711  0.12990625  1
  V  V36  1  0.23883062  0.59896960  0.37312319  1
  V  V37  1  0.61376599  0.25659854  0.87762136  1
  V  V38  1  0.86796453  0.00735342  0.87058236  1
  V  V39  1  0.74828572  -0.00080554  0.24689045  1
  V  V40  1  0.89465456  0.74940356  0.13413385  1
  V  V41  1  0.90941997  0.36936558  0.49351739  1
  V  V42  1  0.75217790  0.00399945  0.73318865  1
  V  V43  1  0.12670643  0.00252188  0.63362148  1
  V  V44  1  0.12661214  0.26285539  0.87003569  1
  V  V45  1  0.63529247  0.39075637  0.74210675  1
  V  V46  1  0.12605176  0.48888748  0.13645349  1
  V  V47  1  0.87466933  0.60224410  0.24469808  1
  V  V48  1  0.74644377  0.14242549  0.37912786  1
  V  V49  1  0.74579885  0.62572502  0.88479369  1
  V  V50  1  0.87556379  0.00557331  0.37176195  1
  V  V51  1  0.00282976  0.00127067  0.50309347  1
  V  V52  1  0.36828603  0.26428125  0.11516202  1
  V  V53  1  0.01131572  0.25401317  0.25433611  1
  V  V54  1  -0.00937466  0.12844430  0.63938973  1
  V  V55  1  0.50717421  0.74771872  0.72610804  1
  V  V56  1  0.00738316  0.88015436  0.36311554  1
  V  V57  1  0.62363982  0.74776364  0.90125746  1
  V  V58  1  0.25908716  0.87147690  0.12468446  1
  V  V59  1  0.74212851  0.86862419  0.12683739  1
  V  V60  1  0.27056353  0.87061695  0.62223772  1
  V  V61  1  0.10647266  0.50405053  0.62737451  1
  V  V62  1  0.37865349  0.11961036  0.23872422  1
  V  V63  1  0.51001801  0.49906355  0.51795879  1
  V  V64  1  0.24422149  0.37111433  0.62615028  1
  V  V65  1  0.37346160  0.72834884  0.13350792  1
  V  V66  1  0.51422542  0.61179028  0.11804360  1
  V  V67  1  0.60321659  0.00255566  0.62110406  1
  V  V68  1  0.75931140  0.25830663  -0.00301011  1
  V  V69  1  -0.00455047  0.47801026  -0.00593449  1
  V  V70  1  0.13066928  0.25854313  0.37536756  1
  V  V71  1  0.38738100  0.49026201  0.88211954  1
  V  V72  1  0.49206190  0.88258678  0.88825740  1
  Zn  Zn73  1  0.75495081  0.13026008  0.87320594  1
  Zn  Zn74  1  0.12492782  0.75278817  0.86382592  1
  Zn  Zn75  1  0.59547805  0.66072565  0.50874766  1
  Zn  Zn76  1  0.74944225  0.61057024  0.36836909  1
  Zn  Zn77  1  0.64050690  0.74603380  0.37296167  1
  Zn  Zn78  1  0.62792653  0.87041234  0.74854528  1
  Zn  Zn79  1  0.78887611  0.70932927  0.50048411  1
  Zn  Zn80  1  0.24606243  0.75125612  0.50349178  1
  Zn  Zn81  1  0.88096789  0.12574333  0.24317262  1
  Zn  Zn82  1  0.19230626  0.18178771  0.19114767  1
  Zn  Zn83  1  0.19054146  0.18812338  0.69459814  1
  Zn  Zn84  1  0.18392375  0.67732441  0.18813019  1
  Zn  Zn85  1  0.19007200  0.68802453  0.68419312  1
  Zn  Zn86  1  0.69452449  0.18618458  0.18769964  1
  Zn  Zn87  1  0.68781409  0.18229557  0.68844046  1
  Zn  Zn88  1  0.68760182  0.68020878  0.18753425  1
  Zn  Zn89  1  0.69823446  0.68140464  0.68599173  1
  Zn  Zn90  1  0.31753237  0.30350560  0.31275567  1
  Zn  Zn91  1  0.32131650  0.31155961  0.93080217  1
  Zn  Zn92  1  0.30979019  0.80054025  0.31349399  1
  Zn  Zn93  1  0.32027028  0.81194100  0.80885535  1
  Zn  Zn94  1  0.82684420  0.32302121  0.31672280  1
  Zn  Zn95  1  0.81400773  0.31141376  0.80547011  1
  Zn  Zn96  1  0.81668907  0.80677679  0.31972160  1
  Zn  Zn97  1  0.80265928  0.81881975  0.81983532  1
  Zn  Zn98  1  0.08859664  0.44997609  0.42490426  1
  Zn  Zn99  1  0.18737598  0.44640721  0.93566579  1
  Zn  Zn100  1  0.18954922  0.93796001  0.44139083  1
  Zn  Zn101  1  0.19107398  0.93994727  0.94258123  1
  Zn  Zn102  1  0.69307435  0.42961899  0.43739835  1
  Zn  Zn103  1  0.69353528  0.43557274  0.93223369  1
  Zn  Zn104  1  0.68373784  0.95948382  0.43899120  1
  Zn  Zn105  1  0.68115072  0.93311907  0.93954909  1
  Zn  Zn106  1  0.31058863  0.05199976  0.06358434  1
  Zn  Zn107  1  0.31317656  0.06383545  0.57275142  1
  Zn  Zn108  1  0.30569322  0.55502179  0.05714196  1
  Zn  Zn109  1  0.30163037  0.55997098  0.54770835  1
  Zn  Zn110  1  0.80791466  0.06649202  0.05953884  1
  Zn  Zn111  1  0.81266049  0.07926573  0.55880826  1
  Zn  Zn112  1  0.81643607  0.56361590  0.06061685  1
  Zn  Zn113  1  0.72320125  0.54783272  0.56583953  1
  Zn  Zn114  1  0.43870468  0.43186787  0.18357155  1
  Zn  Zn115  1  0.43484019  0.43560238  0.69787874  1
  Zn  Zn116  1  0.43599614  0.93054105  0.19156738  1
  Zn  Zn117  1  0.44168280  0.93385154  0.70042866  1
  Zn  Zn118  1  0.95130094  0.43112974  0.17568857  1
  Zn  Zn119  1  0.88237628  0.49410565  0.64043269  1
  Zn  Zn120  1  0.93232523  0.93601353  0.18547379  1
  Zn  Zn121  1  0.86062676  0.78774228  0.64634304  1
  Zn  Zn122  1  0.06425666  0.07130806  0.30935043  1
  Zn  Zn123  1  0.06163407  0.06102307  0.81907319  1
  Zn  Zn124  1  0.04706960  0.57869068  0.30570147  1
  Zn  Zn125  1  0.05804310  0.56554006  0.81253745  1
  Zn  Zn126  1  0.56732892  0.07175460  0.31101870  1
  Zn  Zn127  1  0.56985384  0.06480681  0.81365247  1
  Zn  Zn128  1  0.56406056  0.56888830  0.31736820  1
  Zn  Zn129  1  0.56349320  0.57095687  0.80982520  1
  Zn  Zn130  1  0.43894945  0.19492796  0.43631108  1
  Zn  Zn131  1  0.41670255  0.13743718  0.96766979  1
  Zn  Zn132  1  0.42660419  0.66237585  0.42476978  1
  Zn  Zn133  1  0.43968958  0.68412809  0.93640721  1
  Zn  Zn134  1  0.94256157  0.18870382  0.43701016  1
  Zn  Zn135  1  0.94395598  0.19254719  0.93751924  1
  Zn  Zn136  1  0.91089069  0.55308493  0.44372266  1
  Zn  Zn137  1  0.92762232  0.69104882  0.93636116  1
  Zn  Zn138  1  0.18905126  0.32063711  0.06890502  1
  Zn  Zn139  1  0.06497880  0.30823223  0.56929080  1
  Zn  Zn140  1  0.06869355  0.81605556  0.05788452  1
  Zn  Zn141  1  -0.00099392  0.76178183  0.51279537  1
  Zn  Zn142  1  0.56662518  0.30946008  0.07071125  1
  Zn  Zn143  1  0.56300928  0.31961656  0.56373318  1
  Zn  Zn144  1  0.55271053  0.81703885  0.06970969  1
  Zn  Zn145  1  0.67335305  0.82094244  0.56021962  1
  O  O146  1  0.13473016  0.11408008  0.11323380  1
  O  O147  1  0.13257708  0.12000276  0.61673270  1
  O  O148  1  0.12289987  0.62533476  0.10564885  1
  O  O149  1  0.12265143  0.61849911  0.61994414  1
  O  O150  1  0.63251481  0.11587989  0.11544969  1
  O  O151  1  0.62552674  0.11807045  0.61347078  1
  O  O152  1  0.62231065  0.60613717  0.11783023  1
  O  O153  1  0.64770411  0.62330186  0.60200085  1
  O  O154  1  0.36874918  0.36746000  0.39331060  1
  O  O155  1  0.37713182  0.38948180  0.86780279  1
  O  O156  1  0.37782376  0.82431540  0.41183365  1
  O  O157  1  0.39188056  0.87069805  0.87285725  1
  O  O158  1  0.87760587  0.38198093  0.39616931  1
  O  O159  1  0.86423095  0.39519175  0.86939096  1
  O  O160  1  0.88556559  0.89205222  0.37930474  1
  O  O161  1  0.88057904  0.88630972  0.88568319  1
  O  O162  1  0.24620100  0.01004967  0.36762881  1
  O  O163  1  0.24447334  0.00750742  0.86590066  1
  O  O164  1  0.20403006  0.50673902  0.38269652  1
  O  O165  1  0.25390871  0.51004759  0.85946956  1
  O  O166  1  0.75885931  0.00518263  0.36391977  1
  O  O167  1  0.76252804  0.00137227  0.88659269  1
  O  O168  1  0.73874549  0.49467596  0.36118355  1
  O  O169  1  0.75875464  0.51403480  0.88285478  1
  O  O170  1  0.22587238  0.50868972  0.11910181  1
  O  O171  1  0.24855529  0.49477754  0.63389955  1
  O  O172  1  0.24551965  0.98950962  0.13341987  1
  O  O173  1  0.24443549  0.99138521  0.63292514  1
  O  O174  1  0.73937794  0.48579930  0.11211604  1
  O  O175  1  0.76422414  0.46922895  0.63341512  1
  O  O176  1  0.74764237  0.99603733  0.13294759  1
  O  O177  1  0.75619362  1.00961660  0.63320029  1
  O  O178  1  -0.00036986  0.35428954  0.24655937  1
  O  O179  1  0.00413532  0.36122405  0.74835902  1
  O  O180  1  -0.00017992  0.88642697  0.26451879  1
  O  O181  1  0.00328928  0.88192384  0.76383623  1
  O  O182  1  0.49554904  0.36573163  0.25975649  1
  O  O183  1  0.51442120  0.36424150  0.74906725  1
  O  O184  1  0.48986246  0.84766264  0.24630924  1
  O  O185  1  0.50337798  0.85662529  0.75833137  1
  O  O186  1  0.48355272  0.13401908  0.26167215  1
  O  O187  1  0.48694574  0.13293673  0.76063342  1
  O  O188  1  0.50708768  0.63243154  0.22908911  1
  O  O189  1  0.48852687  0.63352629  0.74363862  1
  O  O190  1  0.99687650  0.14118273  0.25072540  1
  O  O191  1  1.00230623  0.11996206  0.74019118  1
  O  O192  1  0.97451480  0.63248235  0.23793875  1
  O  O193  1  0.98170511  0.63763396  0.76761451  1
  O  O194  1  0.37746257  0.24123942  0.01127340  1
  O  O195  1  0.38102764  0.25978011  0.51745313  1
  O  O196  1  0.36275001  0.73937185  0.01273404  1
  O  O197  1  0.37023957  0.76704948  0.46605462  1
  O  O198  1  0.86633951  0.24682131  0.00810933  1
  O  O199  1  0.89568595  0.26535811  0.50199665  1
  O  O200  1  0.87857434  0.76618054  0.01203020  1
  O  O201  1  0.88347305  0.78244635  0.50278522  1
  O  O202  1  0.12428081  0.23797209  0.48870019  1
  O  O203  1  0.12518858  0.23539843  0.99649366  1
  O  O204  1  0.11822760  0.74032649  0.50777888  1
  O  O205  1  0.13698956  0.74311025  0.99517581  1
  O  O206  1  0.62030565  0.23767560  0.50826806  1
  O  O207  1  0.63323412  0.24747068  0.99245025  1
  O  O208  1  0.61109636  0.77132177  0.48075949  1
  O  O209  1  0.62141415  0.74993333  1.00007856  1
  O  O210  1  0.48613581  0.25870145  0.13815108  1
  O  O211  1  0.48791353  0.25575304  0.63522575  1
  O  O212  1  0.48793069  0.73859565  0.12988424  1
  O  O213  1  0.50120166  0.75361531  0.63076435  1
  O  O214  1  0.99031770  0.24882446  0.13040143  1
  O  O215  1  1.01644521  0.23569471  0.64302399  1
  O  O216  1  0.99377398  0.76108250  0.12435018  1
  O  O217  1  0.98931051  0.77870562  0.63251909  1
  O  O218  1  0.01803421  0.24588329  0.36518187  1
  O  O219  1  0.01721205  0.24487220  0.86849349  1
  O  O220  1  0.00961646  0.77463294  0.38475570  1
  O  O221  1  -0.00312368  0.77121558  0.88065155  1
  O  O222  1  0.48848049  0.26361616  0.35964185  1
  O  O223  1  0.51199922  0.25252032  0.87416101  1
  O  O224  1  0.49176501  0.72523666  0.35400204  1
  O  O225  1  0.51343186  0.75191303  0.87698556  1
  O  O226  1  0.24843232  0.11583059  0.48874849  1
  O  O227  1  0.23522481  0.11399176  0.99209605  1
  O  O228  1  0.22927249  0.63127536  0.49184260  1
  O  O229  1  0.24048687  0.63288965  0.98813669  1
  O  O230  1  0.74227345  0.12645297  0.48486841  1
  O  O231  1  0.74071049  0.14183570  1.00032167  1
  O  O232  1  0.79091089  0.59665737  0.48413101  1
  O  O233  1  0.75373489  0.62904719  0.98594589  1
  O  O234  1  0.25014499  0.37447776  -0.00737332  1
  O  O235  1  0.26378961  0.37874355  0.52006456  1
  O  O236  1  0.24632967  0.86395074  0.00967011  1
  O  O237  1  0.24646702  0.87932590  0.52007088  1
  O  O238  1  0.74704526  0.36105724  0.00530812  1
  O  O239  1  0.74476048  0.36163769  0.51154889  1
  O  O240  1  0.75862965  0.88484777  0.01546531  1
  O  O241  1  0.75855660  0.88961425  0.49395207  1
  O  O242  1  0.10786063  0.51226114  0.23219469  1
  O  O243  1  0.13954571  0.51461702  0.74054609  1
  O  O244  1  0.13747610  1.01034160  0.24027170  1
  O  O245  1  0.13749059  1.01025716  0.74221797  1
  O  O246  1  0.63034765  0.50099127  0.24029174  1
  O  O247  1  0.62338230  0.48868435  0.75621750  1
  O  O248  1  0.63532522  1.01236501  0.23462238  1
  O  O249  1  0.63496910  1.00693451  0.73482605  1
  O  O250  1  0.36968681  0.01134294  0.24621875  1
  O  O251  1  0.36823142  0.01805984  0.74384634  1
  O  O252  1  0.33630646  0.46328482  0.25104943  1
  O  O253  1  0.36612561  0.51362541  0.75444738  1
  O  O254  1  0.86875073  0.00547404  0.25560075  1
  O  O255  1  0.86173154  0.00060333  0.76853564  1
  O  O256  1  0.87520554  0.50453475  0.21818633  1
  O  O257  1  0.87866719  0.51572068  0.76620307  1
  O  O258  1  0.14020408  0.35581162  0.37950938  1
  O  O259  1  0.13046785  0.36095780  0.87573269  1
  O  O260  1  0.11459166  0.87620060  0.37726910  1
  O  O261  1  0.11034841  0.87745966  0.88273619  1
  O  O262  1  0.61240730  0.36538906  0.37788757  1
  O  O263  1  0.63245628  0.35953135  0.86334727  1
  O  O264  1  0.59031841  0.91491342  0.37227684  1
  O  O265  1  0.61921931  0.85904636  0.87554099  1
  O  O266  1  0.37060489  0.13001099  0.13772000  1
  O  O267  1  0.36340918  0.14298555  0.63858535  1
  O  O268  1  0.37577191  0.62633632  0.12580687  1
  O  O269  1  0.36543042  0.62196648  0.63165570  1
  O  O270  1  0.86475890  0.14422236  0.12564163  1
  O  O271  1  0.89312272  0.12774476  0.62207693  1
  O  O272  1  0.86607106  0.64768236  0.12516274  1
  O  O273  1  0.87136175  0.61995885  0.65107226  1
  O  O274  1  0.26103079  0.25130604  0.13029623  1
  O  O275  1  0.25631980  0.26661360  0.63758864  1
  O  O276  1  0.25732366  0.75003470  0.12135322  1
  O  O277  1  0.25241391  0.76667073  0.62562730  1
  O  O278  1  0.74868282  0.26197254  0.11629076  1
  O  O279  1  0.75205523  0.25893887  0.63903123  1
  O  O280  1  0.74042745  0.76904803  0.12885161  1
  O  O281  1  0.75615602  0.75336508  0.60778666  1
  O  O282  1  0.23975170  0.23241930  0.36451201  1
  O  O283  1  0.23731491  0.23577661  0.87863968  1
  O  O284  1  0.22589674  0.76438574  0.38410291  1
  O  O285  1  0.25075289  0.74787450  0.87908554  1
  O  O286  1  0.75615741  0.23945789  0.36525986  1
  O  O287  1  0.74824718  0.25074579  0.88754507  1
  O  O288  1  0.75713047  0.74070216  0.38762006  1
  O  O289  1  0.73200193  0.74710318  0.87949828  1
  O  O290  1  0.01456722  0.11446291  -0.00352953  1
  O  O291  1  0.01203086  0.11899357  0.50626815  1
  O  O292  1  0.01539432  0.63843812  -0.01185955  1
  O  O293  1  0.00326415  0.63503632  0.50343093  1
  O  O294  1  0.52327609  0.13837551  0.00496738  1
  O  O295  1  0.51321720  0.12525760  0.48560597  1
  O  O296  1  0.49512721  0.62525426  0.02017476  1
  O  O297  1  0.49337787  0.60228098  0.49679457  1
  O  O298  1  0.49092137  0.37981343  0.48985033  1
  O  O299  1  0.54357167  0.40768141  1.00105574  1
  O  O300  1  0.43458377  0.95132227  0.49356991  1
  O  O301  1  0.50146866  0.87696327  0.98946226  1
  O  O302  1  1.01523413  0.37383203  0.49202764  1
  O  O303  1  0.99977284  0.38249070  0.98955726  1
  O  O304  1  0.99272295  0.89563068  0.49249692  1
  O  O305  1  0.99325044  0.88616260  0.99288675  1
  O  O306  1  0.50212791  0.48278388  0.37282347  1
  O  O307  1  0.48501224  0.51032981  0.86714709  1
  O  O308  1  0.53171614  0.96355673  0.35962305  1
  O  O309  1  0.51333342  0.97985939  0.86384446  1
  O  O310  1  1.00544143  0.51301283  0.38546335  1
  O  O311  1  0.98874219  0.50423915  0.88234976  1
  O  O312  1  0.99747742  1.00077037  0.38106135  1
  O  O313  1  0.98963376  0.99307535  0.88437795  1
  O  O314  1  0.00896856  -0.00809405  0.11785444  1
  O  O315  1  0.01390871  0.01731165  0.61814419  1
  O  O316  1  0.01237890  0.49685243  0.10126661  1
  O  O317  1  0.01121383  0.49579523  0.64494853  1
  O  O318  1  0.51509548  -0.00411739  0.13403726  1
  O  O319  1  0.50419874  0.00631438  0.63458974  1
  O  O320  1  0.51209022  0.50361705  0.13321515  1
  O  O321  1  0.49820513  0.48920947  0.61682203  1
  O  O322  1  0.28256466  0.40972833  0.25465766  1
  O  O323  1  0.25230282  0.39428614  0.74104733  1
  O  O324  1  0.26020973  0.88493784  0.24651743  1
  O  O325  1  0.26013035  0.88714150  0.74052132  1
  O  O326  1  0.75612702  0.37139948  0.23785103  1
  O  O327  1  0.73697605  0.37110859  0.74828155  1
  O  O328  1  0.75426487  0.88762960  0.23837736  1
  O  O329  1  0.74365127  0.89773223  0.75788367  1
  O  O330  1  0.26172084  0.11375873  0.25923977  1
  O  O331  1  0.25736369  0.11738124  0.75945746  1
  O  O332  1  0.23527423  0.62779025  0.27423155  1
  O  O333  1  0.26134092  0.62471815  0.75243204  1
  O  O334  1  0.75347317  0.11816017  0.26204553  1
  O  O335  1  0.74596929  0.10869956  0.75895437  1
  O  O336  1  0.76618610  0.63032420  0.24777695  1
  O  O337  1  0.76108948  0.63252086  0.77024793  1
  O  O338  1  0.36205001  0.13260318  0.37014117  1
  O  O339  1  0.36300676  0.13729757  0.86152324  1
  O  O340  1  0.34083219  0.59950117  0.39049681  1
  O  O341  1  0.36360746  0.62252566  0.86765299  1
  O  O342  1  0.86647195  0.11788145  0.37809067  1
  O  O343  1  0.87731068  0.10979281  0.88768940  1
  O  O344  1  0.87324698  0.60703641  0.35026667  1
  O  O345  1  0.86226507  0.62503568  0.87283852  1
  O  O346  1  0.12333383  0.38664686  0.13175253  1
  O  O347  1  0.13792239  0.38824613  0.62154753  1
  O  O348  1  0.13834605  0.88439797  0.12409054  1
  O  O349  1  0.11914989  0.88781722  0.63554830  1
  O  O350  1  0.63726252  0.38080045  0.13356212  1
  O  O351  1  0.63118825  0.37113985  0.63949220  1
  O  O352  1  0.63500415  0.89183318  0.11644450  1
  O  O353  1  0.62509005  0.89925015  0.62770411  1
  O  O354  1  0.12101929  0.24345069  0.25915852  1
  O  O355  1  0.12088120  0.24490907  0.76563849  1
  O  O356  1  0.12216481  0.75089491  0.26105182  1
  O  O357  1  0.11664595  0.75872259  0.74351879  1
  O  O358  1  0.60420680  0.23738926  0.24168170  1
  O  O359  1  0.61480019  0.24151951  0.76508222  1
  O  O360  1  0.61648049  0.74830048  0.25546546  1
  O  O361  1  0.61368723  0.74609934  0.74476059  1
  O  O362  1  0.37831574  0.24007166  0.23757878  1
  O  O363  1  0.38613225  0.24230342  0.74298712  1
  O  O364  1  0.37267908  0.74146029  0.23604176  1
  O  O365  1  0.38576439  0.73713292  0.74709653  1
  O  O366  1  0.88573464  0.25048381  0.24062833  1
  O  O367  1  0.89618519  0.24656958  0.76633944  1
  O  O368  1  0.87670955  0.76434524  0.23296005  1
  O  O369  1  0.86777752  0.75091226  0.75395058  1
  O  O370  1  0.38347798  0.48358112  0.50818748  1
  O  O371  1  0.37128970  0.50501882  0.98118134  1
  O  O372  1  0.38148860  1.00256926  0.48562743  1
  O  O373  1  0.38753949  1.03129291  0.98959022  1
  O  O374  1  0.89688224  0.47549485  0.52409457  1
  O  O375  1  0.88951831  0.50546037  0.99128395  1
  O  O376  1  0.88192450  1.00340196  0.49022279  1
  O  O377  1  0.88313125  0.99348364  1.00208698  1
  O  O378  1  0.11756416  0.00369422  0.01070940  1
  O  O379  1  0.12151607  0.00883304  0.50995704  1
  O  O380  1  0.11167222  0.51578894  -0.01005822  1
  O  O381  1  0.11596163  0.51579977  0.52084572  1
  O  O382  1  0.63028489  0.01399848  0.00962714  1
  O  O383  1  0.62112293  0.01250915  0.51543770  1
  O  O384  1  0.60002600  0.46341910  0.00607799  1
  O  O385  1  0.61130848  0.48727580  0.50515175  1
  O  O386  1  0.37326989  0.36434875  0.11743775  1
  O  O387  1  0.36764070  0.36491857  0.62714245  1
  O  O388  1  0.36337115  0.86310321  0.12580269  1
  O  O389  1  0.36939238  0.88182416  0.62407380  1
  O  O390  1  0.86441586  0.35990973  0.12314817  1
  O  O391  1  0.87116130  0.36291903  0.61081925  1
  O  O392  1  0.86399999  0.86882468  0.11993583  1
  O  O393  1  0.87242795  0.89917417  0.60809538  1
  O  O394  1  0.13715261  0.12695427  0.38492777  1
  O  O395  1  0.13081453  0.12522755  0.88775976  1
  O  O396  1  0.11959341  0.64601510  0.38603829  1
  O  O397  1  0.13807921  0.63160709  0.87472237  1
  O  O398  1  0.63809855  0.12207015  0.38530428  1
  O  O399  1  0.62974475  0.13549250  0.88760148  1
  O  O400  1  0.63130098  0.62628162  0.38943143  1
  O  O401  1  0.63273126  0.63623058  0.87612106  1
