# generated using pymatgen
data_V73Zn73O256
_symmetry_space_group_name_H-M   'P 1'
_cell_length_a   16.90967998
_cell_length_b   16.91041715
_cell_length_c   16.90719565
_cell_angle_alpha   90.31275547
_cell_angle_beta   89.87555149
_cell_angle_gamma   89.98469726
_symmetry_Int_Tables_number   1
_chemical_formula_structural   V73Zn73O256
_chemical_formula_sum   'V73 Zn73 O256'
_cell_volume   4834.52462109
_cell_formula_units_Z   1
loop_
 _symmetry_equiv_pos_site_id
 _symmetry_equiv_pos_as_xyz
  1  'x, y, z'
loop_
 _atom_site_type_symbol
 _atom_site_label
 _atom_site_symmetry_multiplicity
 _atom_site_fract_x
 _atom_site_fract_y
 _atom_site_fract_z
 _atom_site_occupancy
  V  V0  1  -0.00432170  0.77058353  0.25576715  1
  V  V1  1  0.62903973  0.13353061  0.49666386  1
  V  V2  1  0.25744635  0.75702788  0.00565228  1
  V  V3  1  0.49167095  0.63568754  0.12294517  1
  V  V4  1  0.88933761  0.87669387  0.49010643  1
  V  V5  1  0.12848259  0.76522779  0.36784938  1
  V  V6  1  0.75692411  0.09922865  0.88226244  1
  V  V7  1  0.11756504  0.11424786  -0.00874787  1
  V  V8  1  0.62821278  0.75857661  0.36346176  1
  V  V9  1  0.62661108  0.87170085  0.73482381  1
  V  V10  1  0.00404571  0.50264192  -0.00097034  1
  V  V11  1  0.36884210  0.24010247  0.62590814  1
  V  V12  1  0.37928592  0.87390754  0.00682233  1
  V  V13  1  0.75044817  0.62883133  0.88079837  1
  V  V14  1  0.12005499  0.38132787  0.73520132  1
  V  V15  1  0.87276737  0.62458838  0.74678723  1
  V  V16  1  0.51273791  -0.01049626  0.50485118  1
  V  V17  1  0.87566930  0.75594973  0.62277441  1
  V  V18  1  0.49212417  0.75906985  0.24352817  1
  V  V19  1  -0.00120190  0.36734728  0.86849935  1
  V  V20  1  0.26925933  0.12464736  0.86865077  1
  V  V21  1  0.75749622  0.76225399  -0.00018622  1
  V  V22  1  0.37359856  0.50231171  0.35863474  1
  V  V23  1  0.62122542  -0.00421429  0.14224776  1
  V  V24  1  0.36910289  0.87013319  0.50635507  1
  V  V25  1  0.75122486  -0.01196563  0.72743798  1
  V  V26  1  0.12741261  0.24584936  0.86493888  1
  V  V27  1  0.58745224  0.30674888  0.83556895  1
  V  V28  1  0.75016244  0.75732013  0.50261535  1
  V  V29  1  0.62698966  0.75396424  0.88045772  1
  V  V30  1  0.25186293  0.13388225  0.38859896  1
  V  V31  1  0.74782621  0.26577444  0.50086364  1
  V  V32  1  0.74797010  0.37596132  0.12083293  1
  V  V33  1  0.25963307  0.36986267  0.61158981  1
  V  V34  1  0.75232912  0.24481717  -0.01066360  1
  V  V35  1  0.49722283  0.00177900  -0.00172573  1
  V  V36  1  0.11994610  0.61211719  0.48728106  1
  V  V37  1  0.87470826  0.12102753  0.74012595  1
  V  V38  1  0.12827326  0.37636556  0.25130245  1
  V  V39  1  0.50399207  0.87787701  0.87493400  1
  V  V40  1  0.50214879  0.12151811  0.63645003  1
  V  V41  1  -0.00487405  0.62439497  0.12941172  1
  V  V42  1  0.24769731  0.74672528  0.50190251  1
  V  V43  1  0.61447985  0.62349125  0.50500763  1
  V  V44  1  0.75843023  0.62820108  0.37070340  1
  V  V45  1  0.49956163  0.50892635  -0.00963440  1
  V  V46  1  0.37267358  0.13302276  0.24599913  1
  V  V47  1  0.75466885  0.88551906  0.13864903  1
  V  V48  1  0.63120587  0.12223180  -0.00187639  1
  V  V49  1  0.50315269  0.13557999  0.12637898  1
  V  V50  1  0.63151807  0.48929244  0.64463876  1
  V  V51  1  0.35825215  0.36711482  0.00075444  1
  V  V52  1  -0.00548175  0.12612142  0.13437855  1
  V  V53  1  0.87583443  0.24697049  0.13694253  1
  V  V54  1  0.88320523  0.01263779  0.35951770  1
  V  V55  1  0.13515421  0.62008009  -0.00325232  1
  V  V56  1  0.01114340  0.61325940  0.61949238  1
  V  V57  1  0.87662880  0.37285857  -0.00445395  1
  V  V58  1  0.26101924  -0.00839217  0.75063963  1
  V  V59  1  0.62030126  0.37679142  0.25197326  1
  V  V60  1  0.36954180  -0.00582105  0.37205755  1
  V  V61  1  0.87866664  0.49072241  0.39156277  1
  V  V62  1  0.75987057  0.50618666  0.24763422  1
  V  V63  1  0.86465444  0.26237395  0.63096538  1
  V  V64  1  0.00932001  0.75482520  0.74737640  1
  V  V65  1  0.63398473  0.51849540  0.11188586  1
  V  V66  1  0.12884894  0.13375129  0.51114471  1
  V  V67  1  -0.01167556  0.87648213  0.87833706  1
  V  V68  1  0.87077409  0.50134675  0.87040893  1
  V  V69  1  0.87778842  0.76022132  0.12264608  1
  V  V70  1  0.12432403  -0.01650363  0.63190940  1
  V  V71  1  -0.02680228  -0.00166271  -0.00566616  1
  V  V72  1  0.13339261  0.75286288  0.87165083  1
  Zn  Zn73  1  0.00583067  0.00676361  0.50318642  1
  Zn  Zn74  1  0.74841445  0.12471952  0.36505099  1
  Zn  Zn75  1  0.36081953  0.51425986  0.86517513  1
  Zn  Zn76  1  0.50915935  0.88461246  0.36190894  1
  Zn  Zn77  1  0.42081164  0.70793112  0.69314878  1
  Zn  Zn78  1  0.50081683  0.26161021  0.24373158  1
  Zn  Zn79  1  0.19237736  0.92177162  0.18427528  1
  Zn  Zn80  1  0.25355449  0.49792404  0.74303609  1
  Zn  Zn81  1  0.23818984  0.24534964  0.03159210  1
  Zn  Zn82  1  0.19292445  0.09592790  0.17678267  1
  Zn  Zn83  1  0.19162639  0.18351460  0.69338332  1
  Zn  Zn84  1  0.16906787  0.71048104  0.17250010  1
  Zn  Zn85  1  0.23189410  0.71768542  0.70857928  1
  Zn  Zn86  1  0.68327010  0.19245961  0.18665337  1
  Zn  Zn87  1  0.68836870  0.16892692  0.68081994  1
  Zn  Zn88  1  0.69505710  0.69299071  0.18754234  1
  Zn  Zn89  1  0.68735334  0.68938029  0.68828423  1
  Zn  Zn90  1  0.30961400  0.30493434  0.31346369  1
  Zn  Zn91  1  0.40149843  0.35800677  0.78635660  1
  Zn  Zn92  1  0.31192361  0.80588787  0.31427389  1
  Zn  Zn93  1  0.31688809  0.82507311  0.82282032  1
  Zn  Zn94  1  0.80333671  0.31212937  0.31859928  1
  Zn  Zn95  1  0.75586861  0.29478701  0.77997545  1
  Zn  Zn96  1  0.81868812  0.81635697  0.31220080  1
  Zn  Zn97  1  0.81284332  0.81081321  0.80628184  1
  Zn  Zn98  1  0.12780688  0.39898162  0.47110639  1
  Zn  Zn99  1  0.19650330  0.43234809  0.92213797  1
  Zn  Zn100  1  0.18735702  0.94096671  0.44115033  1
  Zn  Zn101  1  0.18967551  0.93579181  0.92662739  1
  Zn  Zn102  1  0.68787241  0.44448044  0.43779756  1
  Zn  Zn103  1  0.68512226  0.43077420  0.92067442  1
  Zn  Zn104  1  0.70108253  0.93818441  0.43150164  1
  Zn  Zn105  1  0.68728801  0.93503027  0.94617784  1
  Zn  Zn106  1  0.31074238  0.06797630  0.05347101  1
  Zn  Zn107  1  0.31359538  0.05414081  0.56996222  1
  Zn  Zn108  1  0.32084137  0.54831753  0.06621188  1
  Zn  Zn109  1  0.29335312  0.55593531  0.55656423  1
  Zn  Zn110  1  0.81319627  0.06269512  0.19233792  1
  Zn  Zn111  1  0.81099626  0.05716153  0.55759725  1
  Zn  Zn112  1  0.81819978  0.56846106  0.05831954  1
  Zn  Zn113  1  0.80719162  0.56767112  0.56206162  1
  Zn  Zn114  1  0.44604569  0.43326585  0.15364304  1
  Zn  Zn115  1  0.44060578  0.51897754  0.68661765  1
  Zn  Zn116  1  0.35007626  0.94415120  0.18705991  1
  Zn  Zn117  1  0.44060546  0.92869975  0.68695908  1
  Zn  Zn118  1  0.93705702  0.43826046  0.18449381  1
  Zn  Zn119  1  0.93376059  0.43619933  0.68428063  1
  Zn  Zn120  1  1.03706915  0.95104606  0.18206465  1
  Zn  Zn121  1  0.94178786  0.93926417  0.68682641  1
  Zn  Zn122  1  0.07033084  0.05380738  0.32346478  1
  Zn  Zn123  1  0.05741180  0.05833322  0.80516732  1
  Zn  Zn124  1  0.05675461  0.56326178  0.31435696  1
  Zn  Zn125  1  0.06397902  0.56380211  0.81285533  1
  Zn  Zn126  1  0.55313443  0.06794470  0.31692430  1
  Zn  Zn127  1  0.57310820  0.05733669  0.81389348  1
  Zn  Zn128  1  0.57238653  0.56961353  0.30437085  1
  Zn  Zn129  1  0.56599360  0.57127051  0.81042338  1
  Zn  Zn130  1  0.43236469  0.17414237  0.45493878  1
  Zn  Zn131  1  0.44533529  0.19995026  0.94155606  1
  Zn  Zn132  1  0.44025583  0.69334365  0.42998370  1
  Zn  Zn133  1  0.44551834  0.68534322  0.93582422  1
  Zn  Zn134  1  0.93404324  0.18704023  0.45445314  1
  Zn  Zn135  1  0.93203805  0.18500504  0.92829057  1
  Zn  Zn136  1  0.94001174  0.68564818  0.43458999  1
  Zn  Zn137  1  0.93918917  0.69013526  0.93725901  1
  Zn  Zn138  1  0.06125340  0.30438768  0.05640643  1
  Zn  Zn139  1  0.05693408  0.27625259  0.58384148  1
  Zn  Zn140  1  0.06195909  0.81220532  0.05354062  1
  Zn  Zn141  1  0.06742925  0.80745158  0.56242286  1
  Zn  Zn142  1  0.56515758  0.32127367  0.04053884  1
  Zn  Zn143  1  0.56744406  0.30696697  0.67295214  1
  Zn  Zn144  1  0.56904221  0.81552065  0.06282738  1
  Zn  Zn145  1  0.55444257  0.79999536  0.55810858  1
  O  O146  1  0.10051904  0.12905586  0.09805508  1
  O  O147  1  0.13467177  0.11838437  0.61513420  1
  O  O148  1  0.10602753  0.63750529  0.10316503  1
  O  O149  1  0.11238968  0.62172332  0.61083920  1
  O  O150  1  0.62302737  0.11249529  0.12137273  1
  O  O151  1  0.61254995  0.11586593  0.61020018  1
  O  O152  1  0.64118703  0.61859999  0.11677548  1
  O  O153  1  0.63009533  0.63743864  0.60626792  1
  O  O154  1  0.36396306  0.39863315  0.35965766  1
  O  O155  1  0.38078234  0.38612276  0.90219830  1
  O  O156  1  0.38177851  0.88579513  0.37848221  1
  O  O157  1  0.39667405  0.87232635  0.88672395  1
  O  O158  1  0.86317517  0.39184126  0.37362478  1
  O  O159  1  0.88147777  0.38373766  0.88397183  1
  O  O160  1  0.87706453  0.88379914  0.38623153  1
  O  O161  1  0.88973420  0.86534748  0.87234001  1
  O  O162  1  0.26695305  0.00357871  0.37837490  1
  O  O163  1  0.24845384  0.01802196  0.86850823  1
  O  O164  1  0.27287214  0.51711483  0.34136018  1
  O  O165  1  0.24606314  0.50932799  0.85953823  1
  O  O166  1  0.77541008  0.00371335  0.37906514  1
  O  O167  1  0.75783301  -0.00121116  0.87899424  1
  O  O168  1  0.75767338  0.51029444  0.36548808  1
  O  O169  1  0.76423581  0.51366102  0.88658030  1
  O  O170  1  0.23887161  0.55675764  0.15474345  1
  O  O171  1  0.25010540  0.47528544  0.62292661  1
  O  O172  1  0.26171936  1.00731946  0.13408154  1
  O  O173  1  0.24274242  0.99883208  0.64120380  1
  O  O174  1  0.74967434  0.49694068  0.12375881  1
  O  O175  1  0.73047370  0.51259563  0.61883651  1
  O  O176  1  0.74072069  0.99231536  0.13193786  1
  O  O177  1  0.74420581  0.99284712  0.62968080  1
  O  O178  1  0.02244790  0.38316452  0.24502006  1
  O  O179  1  0.00216972  0.37978408  0.76293697  1
  O  O180  1  -0.00434836  0.86867509  0.25372843  1
  O  O181  1  0.00022585  0.86205680  0.75919918  1
  O  O182  1  0.51447635  0.37952782  0.22788019  1
  O  O183  1  0.52220411  0.36041266  0.77691072  1
  O  O184  1  0.50195447  0.85949424  0.24651241  1
  O  O185  1  0.51782716  0.88421045  0.76097395  1
  O  O186  1  0.49591778  0.13711672  0.24446779  1
  O  O187  1  0.50922909  0.10227037  0.73375798  1
  O  O188  1  0.51660784  0.63777926  0.22943340  1
  O  O189  1  0.46648027  0.62257535  0.77433160  1
  O  O190  1  1.00755770  0.12482318  0.23071515  1
  O  O191  1  0.97282520  0.12017725  0.75745413  1
  O  O192  1  1.00876643  0.62513497  0.22975079  1
  O  O193  1  0.99618624  0.63350389  0.74090864  1
  O  O194  1  0.38018051  0.26712872  0.01414936  1
  O  O195  1  0.38694217  0.24810339  0.52279636  1
  O  O196  1  0.36274763  0.75142589  -0.01073873  1
  O  O197  1  0.36007659  0.75616025  0.48347430  1
  O  O198  1  0.87066993  0.25833716  0.00179581  1
  O  O199  1  0.85798212  0.24808236  0.51710576  1
  O  O200  1  0.87140711  0.75179654  0.00942584  1
  O  O201  1  0.87245252  0.75762898  0.50249759  1
  O  O202  1  0.13282181  0.23430857  0.50994714  1
  O  O203  1  0.12384107  0.23990577  0.98597353  1
  O  O204  1  0.13143689  0.74788484  0.48414883  1
  O  O205  1  0.13494349  0.74252171  0.99085761  1
  O  O206  1  0.63535109  0.23524276  0.50155802  1
  O  O207  1  0.64232290  0.22824276  1.01760514  1
  O  O208  1  0.63388348  0.74770679  0.48676211  1
  O  O209  1  0.64106673  0.75663352  0.99003561  1
  O  O210  1  0.51215126  0.23745989  0.11621601  1
  O  O211  1  0.50057564  0.22649812  0.62931889  1
  O  O212  1  0.50831624  0.74505379  0.13018316  1
  O  O213  1  0.50555432  0.74362933  0.63751030  1
  O  O214  1  0.98398200  0.23992208  0.11387865  1
  O  O215  1  0.96442163  0.24301068  0.63145723  1
  O  O216  1  0.99465293  0.74649291  0.13254353  1
  O  O217  1  0.99850773  0.74153809  0.63254558  1
  O  O218  1  -0.00704190  0.29950552  0.42377330  1
  O  O219  1  0.00556766  0.26126372  0.88132533  1
  O  O220  1  0.00389734  0.74847018  0.35982294  1
  O  O221  1  0.00737197  0.75630305  0.86806508  1
  O  O222  1  0.49012300  0.26747365  0.38278088  1
  O  O223  1  0.52772137  0.23025450  0.87134516  1
  O  O224  1  0.51635680  0.74905591  0.36114661  1
  O  O225  1  0.51741868  0.76260261  0.88314248  1
  O  O226  1  0.24893117  0.11713221  0.49459236  1
  O  O227  1  0.23418189  0.12611825  0.98377854  1
  O  O228  1  0.23279406  0.63506647  0.49749679  1
  O  O229  1  0.23875163  0.63038346  1.00585477  1
  O  O230  1  0.73286515  0.11588155  0.49990041  1
  O  O231  1  0.75030315  0.12396946  0.99002918  1
  O  O232  1  0.74545032  0.64144794  0.48789071  1
  O  O233  1  0.76037312  0.64033960  0.98756116  1
  O  O234  1  0.25137335  0.35882803  -0.00551636  1
  O  O235  1  0.22359443  0.36414625  0.51632309  1
  O  O236  1  0.26216046  0.86510165  -0.01178772  1
  O  O237  1  0.26230761  0.86432613  0.48894278  1
  O  O238  1  0.76003271  0.36796563  0.00330556  1
  O  O239  1  0.73918632  0.36401848  0.49874255  1
  O  O240  1  0.75239373  0.86755940  0.01243460  1
  O  O241  1  0.76430467  0.86226106  0.49683480  1
  O  O242  1  0.12682497  0.48251243  0.25395649  1
  O  O243  1  0.12140538  0.48450660  0.75165653  1
  O  O244  1  0.12455495  1.01487248  0.23194346  1
  O  O245  1  0.13135442  1.00713870  0.73689966  1
  O  O246  1  0.63661735  0.49629871  0.23047522  1
  O  O247  1  0.63426009  0.51510638  0.74402623  1
  O  O248  1  0.61327606  1.00118878  0.24056320  1
  O  O249  1  0.64184878  0.98239484  0.75354949  1
  O  O250  1  0.39315123  0.01576650  0.26876233  1
  O  O251  1  0.36166387  -0.01180021  0.74499949  1
  O  O252  1  0.38836935  0.49820742  0.25525090  1
  O  O253  1  0.37397700  0.46604334  0.75756570  1
  O  O254  1  0.88721289  0.00441322  0.25894813  1
  O  O255  1  0.86077676  0.00408327  0.74168437  1
  O  O256  1  0.86201926  0.49620603  0.24737888  1
  O  O257  1  0.88233911  0.51189577  0.76151566  1
  O  O258  1  0.12874864  0.38135798  0.35552282  1
  O  O259  1  0.11799271  0.36196380  0.86618350  1
  O  O260  1  0.12538635  0.86490927  0.37667349  1
  O  O261  1  0.11299134  0.85684300  0.88314793  1
  O  O262  1  0.62868750  0.39387957  0.35009885  1
  O  O263  1  0.59665825  0.35204704  0.93232442  1
  O  O264  1  0.62911933  0.86193547  0.37729942  1
  O  O265  1  0.62230772  0.86955879  0.87418451  1
  O  O266  1  0.38764308  0.11976423  0.14025188  1
  O  O267  1  0.38855287  0.12719855  0.62277502  1
  O  O268  1  0.39371274  0.62397067  0.12233778  1
  O  O269  1  0.35095932  0.60763547  0.64807611  1
  O  O270  1  0.87964423  0.13897782  0.12820605  1
  O  O271  1  0.86339298  0.12304244  0.63697834  1
  O  O272  1  0.88772192  0.63954438  0.11948296  1
  O  O273  1  0.88444097  0.63440104  0.63029416  1
  O  O274  1  0.23664133  0.19833866  0.13379435  1
  O  O275  1  0.26159602  0.24836004  0.62848974  1
  O  O276  1  0.24722284  0.75655223  0.10490297  1
  O  O277  1  0.23743626  0.75563077  0.59891137  1
  O  O278  1  0.76305390  0.25817634  0.11542623  1
  O  O279  1  0.74963682  0.24136130  0.61124169  1
  O  O280  1  0.75778681  0.75936734  0.11910028  1
  O  O281  1  0.76547164  0.74348809  0.61477001  1
  O  O282  1  0.26024189  0.23391992  0.38381833  1
  O  O283  1  0.23073780  0.23251159  0.87075883  1
  O  O284  1  0.23281062  0.74674899  0.37401253  1
  O  O285  1  0.23644033  0.75035806  0.88221617  1
  O  O286  1  0.75813621  0.24171670  0.39610528  1
  O  O287  1  0.75137103  0.23688633  0.88887789  1
  O  O288  1  0.74543615  0.74768016  0.37653078  1
  O  O289  1  0.75085232  0.74947571  0.88344944  1
  O  O290  1  0.00027255  0.11004463  -0.01404303  1
  O  O291  1  0.02286612  0.12643567  0.49421095  1
  O  O292  1  0.00304429  0.61725427  0.00278051  1
  O  O293  1  0.00857845  0.63170853  0.50990883  1
  O  O294  1  0.50962629  0.11923006  0.00607932  1
  O  O295  1  0.51160883  0.10682185  0.50597254  1
  O  O296  1  0.51204797  0.62322013  0.01203936  1
  O  O297  1  0.51473476  0.63770351  0.49235761  1
  O  O298  1  0.50952089  0.32597524  0.42504309  1
  O  O299  1  0.48154488  0.40640248  1.02905374  1
  O  O300  1  0.49020989  0.87782275  0.49362215  1
  O  O301  1  0.50074288  0.88296884  0.99519050  1
  O  O302  1  1.01808737  0.34623687  0.48039125  1
  O  O303  1  0.99599324  0.38294307  0.99533461  1
  O  O304  1  0.99020497  0.86672472  0.49820919  1
  O  O305  1  0.99600793  0.88607589  0.98920321  1
  O  O306  1  0.48018967  0.50206855  0.36457697  1
  O  O307  1  0.52495908  0.50130300  0.89447981  1
  O  O308  1  0.49133324  0.99944103  0.39031036  1
  O  O309  1  0.51367615  0.99149847  0.88929089  1
  O  O310  1  0.97732858  0.50687155  0.36969845  1
  O  O311  1  0.99239901  0.49390071  0.88335521  1
  O  O312  1  0.98866084  1.00186778  0.38413214  1
  O  O313  1  1.00204484  0.98325161  0.87793760  1
  O  O314  1  -0.01636844  0.01789410  0.10494476  1
  O  O315  1  0.01767493  -0.00299208  0.62487950  1
  O  O316  1  -0.00831659  0.51354056  0.11257359  1
  O  O317  1  -0.00752555  0.51502865  0.62617538  1
  O  O318  1  0.51472812  0.01059491  0.11540223  1
  O  O319  1  0.49202134  0.00081345  0.60885640  1
  O  O320  1  0.52058504  0.52230354  0.11918162  1
  O  O321  1  0.52851535  0.51387966  0.62329221  1
  O  O322  1  0.23308331  0.37057338  0.24705398  1
  O  O323  1  0.22307409  0.36734256  0.72592148  1
  O  O324  1  0.27440815  0.87996477  0.24387832  1
  O  O325  1  0.23772075  0.89666343  0.77661159  1
  O  O326  1  0.74249932  0.38344356  0.23650436  1
  O  O327  1  0.68681926  0.37073276  0.82127048  1
  O  O328  1  0.75082141  0.87100225  0.23717502  1
  O  O329  1  0.74534979  0.88117622  0.74746752  1
  O  O330  1  0.27126898  0.12309351  0.26996393  1
  O  O331  1  0.25519247  0.11697604  0.76342257  1
  O  O332  1  0.24311877  0.61667543  0.20079042  1
  O  O333  1  0.28172562  0.60874538  0.70256104  1
  O  O334  1  0.74927599  0.13318195  0.25182002  1
  O  O335  1  0.74851651  0.10024543  0.76024550  1
  O  O336  1  0.74582449  0.61741442  0.25794298  1
  O  O337  1  0.76769105  0.63930023  0.76161847  1
  O  O338  1  0.37236817  0.11444581  0.37725319  1
  O  O339  1  0.36594206  0.13528234  0.88721954  1
  O  O340  1  0.38284988  0.60716750  0.36269028  1
  O  O341  1  0.41125956  0.62258115  0.84172638  1
  O  O342  1  0.87943702  0.11563561  0.38272461  1
  O  O343  1  0.85789324  0.12635328  0.86145814  1
  O  O344  1  0.86281202  0.62024377  0.37795644  1
  O  O345  1  0.87361734  0.62078514  0.86762633  1
  O  O346  1  0.12710838  0.36962326  0.14576407  1
  O  O347  1  0.09856986  0.36912102  0.63585822  1
  O  O348  1  0.10874373  0.88020042  0.12568269  1
  O  O349  1  0.12804339  0.88302014  0.62434528  1
  O  O350  1  0.64026068  0.38393508  0.12121441  1
  O  O351  1  0.63065632  0.38747784  0.63350796  1
  O  O352  1  0.63745677  0.88948270  0.12163384  1
  O  O353  1  0.62173736  0.86542634  0.63705998  1
  O  O354  1  0.11748656  0.27386411  0.26246387  1
  O  O355  1  0.11813880  0.25297808  0.75954201  1
  O  O356  1  0.11055239  0.75041537  0.25887059  1
  O  O357  1  0.12556377  0.73835909  0.76286721  1
  O  O358  1  0.62397699  0.27172256  0.24491323  1
  O  O359  1  0.63909160  0.24595731  0.75322176  1
  O  O360  1  0.62743156  0.75064371  0.26046669  1
  O  O361  1  0.63973152  0.76622754  0.76397797  1
  O  O362  1  0.38317236  0.23933437  0.25750111  1
  O  O363  1  0.38618641  0.26400585  0.72649910  1
  O  O364  1  0.39481295  0.74366082  0.26174147  1
  O  O365  1  0.33366184  0.75872578  0.73732619  1
  O  O366  1  0.87286536  0.26546549  0.23412989  1
  O  O367  1  0.84317096  0.23247069  0.73956184  1
  O  O368  1  0.88844314  0.75270457  0.24101373  1
  O  O369  1  0.88760608  0.74387595  0.74187400  1
  O  O370  1  0.36076546  0.50264003  0.46195612  1
  O  O371  1  0.39557769  0.53187993  0.97753209  1
  O  O372  1  0.37900374  0.98582511  0.49255463  1
  O  O373  1  0.39032008  0.99417753  1.00377796  1
  O  O374  1  0.86927409  0.50255749  0.49149881  1
  O  O375  1  0.88356748  0.49267667  0.99298654  1
  O  O376  1  0.88270235  0.98209568  0.50915964  1
  O  O377  1  0.87895891  1.00143035  0.98773584  1
  O  O378  1  0.12173134  0.01295998  -0.01263685  1
  O  O379  1  0.12890344  0.00444112  0.51541587  1
  O  O380  1  0.11871242  0.51190968  -0.00883069  1
  O  O381  1  0.12281460  0.51284706  0.48450707  1
  O  O382  1  0.62120583  0.00859593  0.00971658  1
  O  O383  1  0.61344056  -0.01361768  0.49689075  1
  O  O384  1  0.62676911  0.49784925  0.01053374  1
  O  O385  1  0.62723608  0.52212021  0.49325353  1
  O  O386  1  0.34824632  0.43293508  0.09234547  1
  O  O387  1  0.36023278  0.36197732  0.60969002  1
  O  O388  1  0.38724325  0.87055582  0.10588140  1
  O  O389  1  0.37782331  0.87151036  0.60499633  1
  O  O390  1  0.87136545  0.36956745  0.11331471  1
  O  O391  1  0.85892654  0.36235480  0.64466200  1
  O  O392  1  0.86143879  0.86761252  0.12526165  1
  O  O393  1  0.88489300  0.86048486  0.61786761  1
  O  O394  1  0.14609041  0.11607109  0.38777704  1
  O  O395  1  0.11227654  0.13501511  0.87724061  1
  O  O396  1  0.11239995  0.63551368  0.38456859  1
  O  O397  1  0.11453194  0.63862345  0.88908313  1
  O  O398  1  0.62304518  0.11709730  0.39227664  1
  O  O399  1  0.64432522  0.11287970  0.88635417  1
  O  O400  1  0.63638670  0.63665466  0.37949206  1
  O  O401  1  0.64152849  0.64177820  0.86676697  1
