# generated using pymatgen
data_V73Zn73O256
_symmetry_space_group_name_H-M   'P 1'
_cell_length_a   16.85553834
_cell_length_b   16.83049682
_cell_length_c   16.84533127
_cell_angle_alpha   89.96400833
_cell_angle_beta   89.88565456
_cell_angle_gamma   90.02964290
_symmetry_Int_Tables_number   1
_chemical_formula_structural   V73Zn73O256
_chemical_formula_sum   'V73 Zn73 O256'
_cell_volume   4778.79181262
_cell_formula_units_Z   1
loop_
 _symmetry_equiv_pos_site_id
 _symmetry_equiv_pos_as_xyz
  1  'x, y, z'
loop_
 _atom_site_type_symbol
 _atom_site_label
 _atom_site_symmetry_multiplicity
 _atom_site_fract_x
 _atom_site_fract_y
 _atom_site_fract_z
 _atom_site_occupancy
  V  V0  1  0.25046072  0.39715173  0.13280187  1
  V  V1  1  0.37976822  0.00212113  0.89523676  1
  V  V2  1  0.88433099  0.24136720  0.11496991  1
  V  V3  1  0.37811489  0.49525898  0.87493107  1
  V  V4  1  0.01191681  0.24548460  0.75668179  1
  V  V5  1  0.39329602  0.63472059  0.24664392  1
  V  V6  1  0.11929604  -0.01326245  0.62123866  1
  V  V7  1  0.37515152  0.87902553  0.48197909  1
  V  V8  1  -0.00572689  0.49874199  0.50408717  1
  V  V9  1  0.01476338  0.61060863  0.11665760  1
  V  V10  1  0.71237261  0.63161221  0.40334861  1
  V  V11  1  0.75935830  0.37659695  0.61731517  1
  V  V12  1  0.24940066  0.48315410  0.74245767  1
  V  V13  1  0.13218097  0.38760059  0.25554410  1
  V  V14  1  0.74957127  0.12312798  0.88647295  1
  V  V15  1  0.75348175  0.75493005  0.00126182  1
  V  V16  1  0.88718456  0.74797673  0.62011093  1
  V  V17  1  0.37073443  0.50244200  0.37021681  1
  V  V18  1  -0.00201919  0.23746248  0.25059124  1
  V  V19  1  0.35463093  0.26192555  0.61614183  1
  V  V20  1  0.49541521  -0.00193448  0.49909442  1
  V  V21  1  0.49708684  0.23203195  0.25322315  1
  V  V22  1  0.61848790  0.49590063  0.62309761  1
  V  V23  1  0.87187111  0.61637928  0.25685544  1
  V  V24  1  0.37179786  0.37064705  0.00187950  1
  V  V25  1  -0.00242615  0.75141148  0.25901742  1
  V  V26  1  0.36553880  0.24062883  0.13359560  1
  V  V27  1  0.49875918  0.50427941  0.50005630  1
  V  V28  1  0.12145559  0.01132143  0.12578856  1
  V  V29  1  0.36271132  0.75820231  0.62575858  1
  V  V30  1  0.75113509  0.62369324  0.87158010  1
  V  V31  1  0.87611280  -0.01647491  0.88622176  1
  V  V32  1  0.62251638  0.23977814  0.37525183  1
  V  V33  1  0.00684433  -0.00527839  -0.00631054  1
  V  V34  1  0.13169622  0.24717951  0.38169139  1
  V  V35  1  0.50228073  0.64010862  0.62306531  1
  V  V36  1  0.50589803  0.12388024  0.10283863  1
  V  V37  1  0.26639595  -0.00222332  0.73471591  1
  V  V38  1  0.72773664  0.24292743  0.00614699  1
  V  V39  1  0.38569494  0.74831300  0.11270051  1
  V  V40  1  0.26357530  0.00239636  0.24927706  1
  V  V41  1  0.88575028  0.63320165  0.74641652  1
  V  V42  1  0.62057449  0.11905008  0.51803501  1
  V  V43  1  0.13089582  0.86588678  0.25890968  1
  V  V44  1  0.24382967  0.63498463  0.36596667  1
  V  V45  1  0.75999633  0.12049659  0.36861014  1
  V  V46  1  0.49591501  0.50118977  0.01185639  1
  V  V47  1  0.75112758  0.50106498  0.74162653  1
  V  V48  1  0.13112550  0.48167794  0.62091245  1
  V  V49  1  0.23807203  0.63394107  0.87998768  1
  V  V50  1  0.75413857  0.25394188  0.49890256  1
  V  V51  1  0.25167262  0.86451655  0.10884612  1
  V  V52  1  -0.01046789  0.37968812  0.37931861  1
  V  V53  1  0.76093098  0.00530775  0.74426026  1
  V  V54  1  0.11846859  0.86797011  0.76338317  1
  V  V55  1  0.87411234  0.88336165  0.49387040  1
  V  V56  1  0.61855870  0.62323395  0.00756301  1
  V  V57  1  0.11647826  0.11952071  0.50413965  1
  V  V58  1  0.62990728  0.49684804  0.12597710  1
  V  V59  1  0.62870807  0.37376215  0.24674352  1
  V  V60  1  0.74088010  0.86608119  0.62170456  1
  V  V61  1  0.50016534  0.37567888  0.38042121  1
  V  V62  1  0.37684296  0.62550065  0.74633150  1
  V  V63  1  0.50885412  0.24957095  0.74139178  1
  V  V64  1  0.62116651  0.88224564  0.74999225  1
  V  V65  1  0.49246275  0.87508350  0.88690480  1
  V  V66  1  0.26618843  0.11978487  0.37620809  1
  V  V67  1  0.74785829  -0.00950606  0.25319332  1
  V  V68  1  0.24138331  0.12522818  0.88406280  1
  V  V69  1  0.61553545  0.74524449  0.86787885  1
  V  V70  1  0.62108880  -0.00300171  0.11099563  1
  V  V71  1  0.12935494  0.63032773  0.50744590  1
  V  V72  1  0.75461984  0.87432979  0.12381624  1
  Zn  Zn73  1  0.88864919  0.75347362  0.11944356  1
  Zn  Zn74  1  0.80324115  0.40915944  0.07427097  1
  Zn  Zn75  1  0.88026276  0.24839466  0.62531079  1
  Zn  Zn76  1  0.75474585  0.49809378  0.26018084  1
  Zn  Zn77  1  0.54822984  0.34393147  0.86889777  1
  Zn  Zn78  1  0.23984546  0.76351227  0.49617474  1
  Zn  Zn79  1  0.92655996  0.46194478  0.93601627  1
  Zn  Zn80  1  -0.02089633  0.11379385  0.63384221  1
  Zn  Zn81  1  0.00498912  0.88964364  0.38749170  1
  Zn  Zn82  1  0.18436718  0.18914936  0.19931987  1
  Zn  Zn83  1  0.19315031  0.18280846  0.69504507  1
  Zn  Zn84  1  0.18964641  0.68414148  0.18413114  1
  Zn  Zn85  1  0.18902604  0.68330386  0.69201396  1
  Zn  Zn86  1  0.68584762  0.18319518  0.18531380  1
  Zn  Zn87  1  0.69059653  0.19357047  0.69904215  1
  Zn  Zn88  1  0.68171010  0.68982038  0.19489052  1
  Zn  Zn89  1  0.68369135  0.68768031  0.68399373  1
  Zn  Zn90  1  0.30618230  0.31787036  0.33178787  1
  Zn  Zn91  1  0.32633458  0.29993252  0.80695046  1
  Zn  Zn92  1  0.31823521  0.81192031  0.30834098  1
  Zn  Zn93  1  0.30683691  0.81619634  0.80917741  1
  Zn  Zn94  1  0.81394114  0.30833751  0.30782370  1
  Zn  Zn95  1  0.86338424  0.27745904  0.84587123  1
  Zn  Zn96  1  0.80201142  0.80310037  0.31454691  1
  Zn  Zn97  1  0.80970060  0.80979983  0.80900806  1
  Zn  Zn98  1  0.19471360  0.43428547  0.44327055  1
  Zn  Zn99  1  0.19576351  0.43761969  0.93783538  1
  Zn  Zn100  1  0.19334037  0.94278491  0.43716503  1
  Zn  Zn101  1  0.19002757  0.94441965  0.93370100  1
  Zn  Zn102  1  0.68512722  0.44361564  0.43523852  1
  Zn  Zn103  1  0.74311072  0.39902826  0.89272053  1
  Zn  Zn104  1  0.68096502  0.93573324  0.44120421  1
  Zn  Zn105  1  0.68452988  0.93732071  0.93270435  1
  Zn  Zn106  1  0.31097485  0.06142916  0.06636337  1
  Zn  Zn107  1  0.30916538  0.06644722  0.55817528  1
  Zn  Zn108  1  0.30909521  0.57232831  0.06143762  1
  Zn  Zn109  1  0.31307245  0.56280848  0.55797768  1
  Zn  Zn110  1  0.82197832  0.06151880  0.06915701  1
  Zn  Zn111  1  0.80563878  0.06248845  0.55788996  1
  Zn  Zn112  1  0.81652027  0.57821702  0.07142470  1
  Zn  Zn113  1  0.81088300  0.57041537  0.55913302  1
  Zn  Zn114  1  0.43745543  0.43453096  0.19594734  1
  Zn  Zn115  1  0.43878956  0.42718530  0.68852847  1
  Zn  Zn116  1  0.43957568  0.92671014  0.17765292  1
  Zn  Zn117  1  0.44090399  1.08536765  0.67839222  1
  Zn  Zn118  1  0.93925539  0.43131905  0.19104590  1
  Zn  Zn119  1  0.92725114  0.42843126  0.77308897  1
  Zn  Zn120  1  0.95180602  0.96744774  0.22710076  1
  Zn  Zn121  1  0.93826556  0.93077865  0.68722514  1
  Zn  Zn122  1  0.07051858  0.05631410  0.31733556  1
  Zn  Zn123  1  0.06574638  0.06006864  0.80664074  1
  Zn  Zn124  1  0.05881007  0.56607005  0.31663138  1
  Zn  Zn125  1  0.06503288  0.55626226  0.81013263  1
  Zn  Zn126  1  0.54198630  0.01746078  0.29235375  1
  Zn  Zn127  1  0.56370438  0.06533045  0.81932616  1
  Zn  Zn128  1  0.56526268  0.56601750  0.31231195  1
  Zn  Zn129  1  0.59337461  0.51361437  0.84050247  1
  Zn  Zn130  1  0.43784382  0.18871046  0.45141270  1
  Zn  Zn131  1  0.42839092  0.19121822  0.93178650  1
  Zn  Zn132  1  0.44392873  0.69396390  0.43846156  1
  Zn  Zn133  1  0.43408190  0.68367444  0.93086038  1
  Zn  Zn134  1  0.93912961  0.18611405  0.43731773  1
  Zn  Zn135  1  0.94667057  0.16377692  0.93599853  1
  Zn  Zn136  1  0.94020886  0.68879063  0.43891396  1
  Zn  Zn137  1  0.93404597  0.67202501  0.94239109  1
  Zn  Zn138  1  0.06048142  0.32515041  0.07247953  1
  Zn  Zn139  1  0.05949282  0.30687320  0.56774511  1
  Zn  Zn140  1  0.05028810  0.82767520  0.08366953  1
  Zn  Zn141  1  0.05731690  0.81163825  0.56239647  1
  Zn  Zn142  1  0.55562941  0.31474702  0.06488986  1
  Zn  Zn143  1  0.56235080  0.31312733  0.56388602  1
  Zn  Zn144  1  0.56754570  0.81198901  0.06470214  1
  Zn  Zn145  1  0.48460499  0.89961154  0.64120308  1
  O  O146  1  0.13680792  0.11014710  0.12897017  1
  O  O147  1  0.13094375  0.11826516  0.60842870  1
  O  O148  1  0.11587574  0.62231408  0.12795746  1
  O  O149  1  0.13356056  0.61608874  0.61032886  1
  O  O150  1  0.61188289  0.12075080  0.11984455  1
  O  O151  1  0.63915069  0.12882509  0.61485554  1
  O  O152  1  0.62981778  0.61578469  0.11452239  1
  O  O153  1  0.60692029  0.62346375  0.62673399  1
  O  O154  1  0.39096281  0.39480431  0.35716295  1
  O  O155  1  0.35813784  0.38317930  0.89175400  1
  O  O156  1  0.38442667  0.87137294  0.38305545  1
  O  O157  1  0.38786651  0.87947490  0.86894891  1
  O  O158  1  0.89056863  0.37281747  0.37054555  1
  O  O159  1  0.85610656  0.38904077  0.86533265  1
  O  O160  1  0.85917592  0.86414051  0.39405858  1
  O  O161  1  0.86946255  0.88286871  0.87342811  1
  O  O162  1  0.25191498  0.00718514  0.35969899  1
  O  O163  1  0.27085474  -0.00138848  0.86831236  1
  O  O164  1  0.26780988  0.51394534  0.37757762  1
  O  O165  1  0.25412252  0.50405300  0.86179028  1
  O  O166  1  0.73711398  0.00813909  0.36343640  1
  O  O167  1  0.76012440  -0.00131480  0.86939938  1
  O  O168  1  0.73385813  0.52736057  0.37263389  1
  O  O169  1  0.74690475  0.51519511  0.85259436  1
  O  O170  1  0.25502777  0.49553872  0.13521138  1
  O  O171  1  0.24839576  0.49870799  0.63291300  1
  O  O172  1  0.24535121  0.98778046  0.13188704  1
  O  O173  1  0.23984460  1.00410250  0.63046456  1
  O  O174  1  0.73720087  0.49644889  0.12955946  1
  O  O175  1  0.74049330  0.49729027  0.62133043  1
  O  O176  1  0.74093205  0.99308843  0.12517737  1
  O  O177  1  0.75475888  0.98875811  0.63980408  1
  O  O178  1  0.01390604  0.37030729  0.26320530  1
  O  O179  1  -0.00478631  0.34803862  0.73447875  1
  O  O180  1  0.01665554  0.86067355  0.23732073  1
  O  O181  1  0.01797178  0.87540004  0.74529360  1
  O  O182  1  0.51099884  0.36507612  0.25856770  1
  O  O183  1  0.50159938  0.36271405  0.75649772  1
  O  O184  1  0.51536319  0.91333371  0.25534189  1
  O  O185  1  0.51816404  0.87713776  0.75135267  1
  O  O186  1  0.50308575  0.13112953  0.25262197  1
  O  O187  1  0.50541599  0.13628863  0.75474408  1
  O  O188  1  0.49284309  0.62957057  0.24748200  1
  O  O189  1  0.48203841  0.61769584  0.73309708  1
  O  O190  1  1.01299028  0.13975277  0.25421469  1
  O  O191  1  1.00154924  0.13085945  0.74721751  1
  O  O192  1  0.99773289  0.63696030  0.24874941  1
  O  O193  1  0.98367189  0.62399343  0.75277013  1
  O  O194  1  0.38106009  0.26200982  0.01976754  1
  O  O195  1  0.37582501  0.25751485  0.51184194  1
  O  O196  1  0.37313190  0.73483329  0.01380574  1
  O  O197  1  0.37949207  0.76439457  0.50698613  1
  O  O198  1  0.89329909  0.24717749  0.01440568  1
  O  O199  1  0.85720870  0.24907729  0.49715729  1
  O  O200  1  0.85636241  0.74207927  0.00017640  1
  O  O201  1  0.87585411  0.75105834  0.51432421  1
  O  O202  1  0.12338536  0.23757934  0.48937420  1
  O  O203  1  0.11508369  0.27803212  0.96755026  1
  O  O204  1  0.12227551  0.73553419  0.50323191  1
  O  O205  1  0.08064963  0.75855401  0.94939094  1
  O  O206  1  0.63127316  0.24240815  0.49389956  1
  O  O207  1  0.62780850  0.24689156  1.00379485  1
  O  O208  1  0.57640613  0.80117082  0.41583101  1
  O  O209  1  0.62765360  0.74065289  0.99023637  1
  O  O210  1  0.49588760  0.23721823  0.13344747  1
  O  O211  1  0.50142979  0.25148168  0.63513477  1
  O  O212  1  0.48539915  0.75802732  0.12167807  1
  O  O213  1  0.48927836  0.73966758  0.62342546  1
  O  O214  1  0.99774156  0.25593895  0.13915053  1
  O  O215  1  0.99929715  0.23576447  0.62963395  1
  O  O216  1  1.00535562  0.73799460  0.13514823  1
  O  O217  1  0.98633327  0.75115699  0.62945970  1
  O  O218  1  0.00864839  0.25919308  0.37115366  1
  O  O219  1  -0.01950212  0.24392899  0.86247830  1
  O  O220  1  -0.00021537  0.76031573  0.36190804  1
  O  O221  1  0.02384714  0.75253336  0.90169034  1
  O  O222  1  0.50417095  0.25497058  0.37177138  1
  O  O223  1  0.48290513  0.25534259  0.85951296  1
  O  O224  1  0.51688674  0.77131728  0.37463850  1
  O  O225  1  0.50484342  0.75908605  0.87482394  1
  O  O226  1  0.23865519  0.11584028  0.47923240  1
  O  O227  1  0.25587053  0.11743625  0.98556589  1
  O  O228  1  0.24157949  0.62683502  0.48889207  1
  O  O229  1  0.24186404  0.61026031  0.98011458  1
  O  O230  1  0.73597027  0.12982162  0.48725549  1
  O  O231  1  0.75472911  0.12952126  0.99640130  1
  O  O232  1  0.73533020  0.63204494  0.50238772  1
  O  O233  1  0.74000274  0.63374455  0.99238340  1
  O  O234  1  0.25695174  0.38271193  0.02262556  1
  O  O235  1  0.26507111  0.35087047  0.43776428  1
  O  O236  1  0.24431919  0.87471898  0.01065114  1
  O  O237  1  0.26781812  0.87754878  0.49342533  1
  O  O238  1  0.75163778  0.34446378  -0.00472386  1
  O  O239  1  0.74015266  0.36994175  0.50704269  1
  O  O240  1  0.74120074  0.86017109  0.00299266  1
  O  O241  1  0.75008810  0.87855720  0.51662584  1
  O  O242  1  0.12573859  0.48611549  0.26134700  1
  O  O243  1  0.13867187  0.49974883  0.73186722  1
  O  O244  1  0.13695186  0.98791402  0.23952891  1
  O  O245  1  0.13009001  0.98899803  0.73322087  1
  O  O246  1  0.62043130  0.49250993  0.24072770  1
  O  O247  1  0.63941571  0.51601026  0.73266701  1
  O  O248  1  0.64207656  1.01441971  0.22891169  1
  O  O249  1  0.63958830  0.98612618  0.76191919  1
  O  O250  1  0.36155784  -0.00473363  0.23731931  1
  O  O251  1  0.36750280  -0.00063434  0.73496827  1
  O  O252  1  0.38300395  0.51680076  0.26101052  1
  O  O253  1  0.36635916  0.50116393  0.75538678  1
  O  O254  1  0.84566525  0.00720092  0.23411321  1
  O  O255  1  0.86507923  -0.00872413  0.75867199  1
  O  O256  1  0.87506992  0.51108661  0.25031634  1
  O  O257  1  0.85887735  0.51991582  0.73339485  1
  O  O258  1  0.12265279  0.36631530  0.36738420  1
  O  O259  1  0.13554620  0.32272536  0.91007759  1
  O  O260  1  0.12573487  0.88116961  0.36206793  1
  O  O261  1  0.12468657  0.88445210  0.86357333  1
  O  O262  1  0.61708148  0.36523973  0.36986790  1
  O  O263  1  0.63162249  0.41200351  0.88020155  1
  O  O264  1  0.61724845  0.85765517  0.37591001  1
  O  O265  1  0.61471983  0.86691887  0.86848778  1
  O  O266  1  0.38652269  0.13476631  0.12211866  1
  O  O267  1  0.37043953  0.14288255  0.61243944  1
  O  O268  1  0.36851958  0.63524270  0.13803461  1
  O  O269  1  0.37914659  0.63268310  0.62606036  1
  O  O270  1  0.87391465  0.14170469  0.13292608  1
  O  O271  1  0.86857928  0.13248011  0.61497981  1
  O  O272  1  0.89031016  0.63367711  0.13955721  1
  O  O273  1  0.86807846  0.63974059  0.63380382  1
  O  O274  1  0.26459478  0.24497968  0.13472950  1
  O  O275  1  0.25371453  0.25304207  0.62928937  1
  O  O276  1  0.25499439  0.76028678  0.12641572  1
  O  O277  1  0.26142469  0.74364514  0.61406462  1
  O  O278  1  0.75721816  0.24013252  0.11024195  1
  O  O279  1  0.74254352  0.26712094  0.61906916  1
  O  O280  1  0.73969939  0.75520021  0.11046011  1
  O  O281  1  0.75326407  0.76327316  0.62927011  1
  O  O282  1  0.23913622  0.22467674  0.35298937  1
  O  O283  1  0.26230052  0.22408125  0.86506208  1
  O  O284  1  0.25686643  0.73874640  0.37915958  1
  O  O285  1  0.26035687  0.73288748  0.87275311  1
  O  O286  1  0.74287926  0.24220589  0.37952755  1
  O  O287  1  0.75984499  0.23157227  0.88907071  1
  O  O288  1  0.74128629  0.72233841  0.36460247  1
  O  O289  1  0.73895445  0.74425626  0.88399294  1
  O  O290  1  -0.00942575  0.09511745  0.01455216  1
  O  O291  1  0.01419776  0.12173053  0.49658022  1
  O  O292  1  -0.00333016  0.61602051  0.01490046  1
  O  O293  1  0.02042250  0.60990168  0.48532005  1
  O  O294  1  0.49947896  0.13035312  0.00495176  1
  O  O295  1  0.51587398  0.12405031  0.50575423  1
  O  O296  1  0.50827463  0.61478928  -0.00628689  1
  O  O297  1  0.49216725  0.61854489  0.51403635  1
  O  O298  1  0.50447767  0.38346769  0.48716896  1
  O  O299  1  0.48601292  0.38448354  1.00257586  1
  O  O300  1  0.48965822  0.89053929  0.51042480  1
  O  O301  1  0.50282548  0.87387002  0.98556885  1
  O  O302  1  1.00618126  0.38316625  0.48903575  1
  O  O303  1  1.03413596  0.41656670  1.00039566  1
  O  O304  1  0.98153185  0.87153240  0.49862478  1
  O  O305  1  0.99117965  0.89408284  1.01702121  1
  O  O306  1  0.49779243  0.49589873  0.38188462  1
  O  O307  1  0.48390138  0.49905236  0.88519178  1
  O  O308  1  0.50189873  1.01178263  0.39864917  1
  O  O309  1  0.49101805  0.98641277  0.87069429  1
  O  O310  1  1.00657572  0.48687847  0.38583914  1
  O  O311  1  0.99354146  0.48348763  0.85042401  1
  O  O312  1  0.98578024  0.98681440  0.33546660  1
  O  O313  1  0.99047966  0.99861974  0.88541691  1
  O  O314  1  0.01924833  -0.00255463  0.13482294  1
  O  O315  1  0.01470301  0.00059288  0.62608952  1
  O  O316  1  0.00148045  0.51137607  0.13855192  1
  O  O317  1  0.02308003  0.49613592  0.60789784  1
  O  O318  1  0.50818344  0.01399305  0.12104567  1
  O  O319  1  0.49764653  0.00943909  0.61119283  1
  O  O320  1  0.50380993  0.49633859  0.11792063  1
  O  O321  1  0.50247226  0.50294651  0.61785354  1
  O  O322  1  0.24240715  0.37324811  0.24536628  1
  O  O323  1  0.25403005  0.38545788  0.75721686  1
  O  O324  1  0.24335204  0.88081923  0.24953188  1
  O  O325  1  0.24168232  0.89264884  0.75255608  1
  O  O326  1  0.73370686  0.37725600  0.26239629  1
  O  O327  1  0.75031164  0.39757683  0.73228920  1
  O  O328  1  0.74499316  0.88373757  0.24593008  1
  O  O329  1  0.74356235  0.88178388  0.74357285  1
  O  O330  1  0.24894481  0.10838794  0.25568679  1
  O  O331  1  0.24453797  0.10097341  0.76165614  1
  O  O332  1  0.25669496  0.62915867  0.26323124  1
  O  O333  1  0.26138634  0.61273646  0.75330630  1
  O  O334  1  0.74775092  0.12755561  0.26583169  1
  O  O335  1  0.74806770  0.10937933  0.75887980  1
  O  O336  1  0.76786898  0.62554512  0.23895677  1
  O  O337  1  0.75349968  0.62534176  0.75426624  1
  O  O338  1  0.36490936  0.12985932  0.38073449  1
  O  O339  1  0.37535425  0.10440548  0.87640665  1
  O  O340  1  0.37596688  0.62385439  0.36528400  1
  O  O341  1  0.36770599  0.61307483  0.86580915  1
  O  O342  1  0.85833130  0.12353802  0.38269998  1
  O  O343  1  0.86103813  0.10197843  0.87861663  1
  O  O344  1  0.88162815  0.63052736  0.35791310  1
  O  O345  1  0.86333881  0.63569272  0.86025229  1
  O  O346  1  0.14120554  0.37208268  0.14108710  1
  O  O347  1  0.13555953  0.38293321  0.61121988  1
  O  O348  1  0.14116480  0.87830570  0.13568545  1
  O  O349  1  0.12789684  0.88529061  0.61578538  1
  O  O350  1  0.61945921  0.38170882  0.13524695  1
  O  O351  1  0.62852861  0.39173309  0.62328667  1
  O  O352  1  0.63043346  0.88969176  0.12144687  1
  O  O353  1  0.63455288  0.87168360  0.64036218  1
  O  O354  1  0.11594352  0.25894377  0.26046199  1
  O  O355  1  0.11365938  0.24178708  0.75282514  1
  O  O356  1  0.12282877  0.76046398  0.25094981  1
  O  O357  1  0.13903143  0.76947763  0.74320308  1
  O  O358  1  0.61759380  0.25351087  0.25599726  1
  O  O359  1  0.61224916  0.25194454  0.75510865  1
  O  O360  1  0.60519863  0.74979956  0.24725229  1
  O  O361  1  0.63356050  0.76075554  0.76309040  1
  O  O362  1  0.38518966  0.25737828  0.23969593  1
  O  O363  1  0.38690639  0.24770676  0.72771790  1
  O  O364  1  0.37834544  0.74004265  0.24303499  1
  O  O365  1  0.36585975  0.74066329  0.73496291  1
  O  O366  1  0.89447002  0.24580844  0.25528228  1
  O  O367  1  0.88528435  0.24435880  0.73999700  1
  O  O368  1  0.88918187  0.75014440  0.24785974  1
  O  O369  1  0.87100159  0.74217596  0.73941673  1
  O  O370  1  0.38562984  0.50671970  0.48265653  1
  O  O371  1  0.37867333  0.49601094  0.99764886  1
  O  O372  1  0.38065723  0.98968336  0.50127816  1
  O  O373  1  0.37710035  0.99405833  0.99415651  1
  O  O374  1  0.89597640  0.51072906  0.50907031  1
  O  O375  1  0.85221381  0.49099612  1.01045503  1
  O  O376  1  0.86686687  0.98311243  0.50183967  1
  O  O377  1  0.87614872  0.99160598  0.99138975  1
  O  O378  1  0.11686067  -0.00676897  0.01361171  1
  O  O379  1  0.12787166  0.00706098  0.50720914  1
  O  O380  1  0.09447037  0.46838805  -0.00707330  1
  O  O381  1  0.13287304  0.50545716  0.50669761  1
  O  O382  1  0.63014244  0.00208490  0.01093280  1
  O  O383  1  0.61869603  0.01197104  0.50313282  1
  O  O384  1  0.61334270  0.50682135  0.01155588  1
  O  O385  1  0.61008780  0.50173362  0.50894461  1
  O  O386  1  0.36367791  0.36964063  0.12699944  1
  O  O387  1  0.37111804  0.36624278  0.62331318  1
  O  O388  1  0.36277831  0.86158901  0.12495071  1
  O  O389  1  0.37579593  0.85960758  0.62519295  1
  O  O390  1  0.87009116  0.35182906  0.14475152  1
  O  O391  1  0.85767277  0.37582905  0.61763084  1
  O  O392  1  0.85512907  0.86865610  0.12862754  1
  O  O393  1  0.86475750  0.86458095  0.61898389  1
  O  O394  1  0.12850377  0.12840506  0.38369575  1
  O  O395  1  0.14072056  0.10558061  0.88010057  1
  O  O396  1  0.14059897  0.62064417  0.37997229  1
  O  O397  1  0.13930928  0.62583522  0.85667199  1
  O  O398  1  0.62904900  0.13694289  0.38056992  1
  O  O399  1  0.64911303  0.11018739  0.88069467  1
  O  O400  1  0.61070568  0.63330205  0.39175895  1
  O  O401  1  0.63107397  0.62641503  0.88242636  1
