# generated using pymatgen
data_V73Zn73O256
_symmetry_space_group_name_H-M   'P 1'
_cell_length_a   16.84538533
_cell_length_b   16.84231200
_cell_length_c   16.82954304
_cell_angle_alpha   90.10402897
_cell_angle_beta   90.05383193
_cell_angle_gamma   89.92759633
_symmetry_Int_Tables_number   1
_chemical_formula_structural   V73Zn73O256
_chemical_formula_sum   'V73 Zn73 O256'
_cell_volume   4774.78398621
_cell_formula_units_Z   1
loop_
 _symmetry_equiv_pos_site_id
 _symmetry_equiv_pos_as_xyz
  1  'x, y, z'
loop_
 _atom_site_type_symbol
 _atom_site_label
 _atom_site_symmetry_multiplicity
 _atom_site_fract_x
 _atom_site_fract_y
 _atom_site_fract_z
 _atom_site_occupancy
  V  V0  1  0.73984486  0.37603577  0.12098664  1
  V  V1  1  0.36269718  0.25479183  0.09957101  1
  V  V2  1  0.87540762  0.25648106  0.11836961  1
  V  V3  1  0.86722802  0.00193577  0.87564877  1
  V  V4  1  0.61905085  0.62196635  -0.00263454  1
  V  V5  1  0.26125111  0.62441245  0.85980042  1
  V  V6  1  0.37506119  0.87598653  0.00738799  1
  V  V7  1  0.86973611  0.00133998  0.37203562  1
  V  V8  1  0.87110754  0.12410137  0.25198640  1
  V  V9  1  0.35472867  0.00445501  0.36697994  1
  V  V10  1  0.87395738  0.87046201  0.50342233  1
  V  V11  1  0.35785906  0.74323468  0.62108659  1
  V  V12  1  0.87427569  0.51707957  0.37516400  1
  V  V13  1  0.36539581  0.88226702  0.50654567  1
  V  V14  1  0.36680895  0.50091464  0.37164891  1
  V  V15  1  0.00524184  0.25641244  0.74983030  1
  V  V16  1  0.13030740  0.50015030  0.63886626  1
  V  V17  1  0.13830753  0.25507950  0.87352250  1
  V  V18  1  0.13624898  0.38495891  0.24687638  1
  V  V19  1  0.61371101  0.26391500  0.86419458  1
  V  V20  1  0.62551588  0.11529364  0.49187079  1
  V  V21  1  0.13752401  0.87477846  0.24396369  1
  V  V22  1  0.50163765  0.88609862  0.37149820  1
  V  V23  1  0.37803372  0.75043082  0.13129170  1
  V  V24  1  0.74826155  0.50893695  0.25470042  1
  V  V25  1  0.35345420  0.62243020  0.25422136  1
  V  V26  1  0.49061388  0.49036735  -0.00341247  1
  V  V27  1  0.49397092  0.74293680  0.73871882  1
  V  V28  1  0.75857597  0.62654518  0.87507281  1
  V  V29  1  0.13949660  0.12387079  -0.00995228  1
  V  V30  1  0.24424916  0.75237325  0.01013838  1
  V  V31  1  0.62905427  0.62869511  0.49702237  1
  V  V32  1  -0.00523115  0.36885517  0.38228804  1
  V  V33  1  0.14282584  0.24862672  0.38392369  1
  V  V34  1  0.13493796  0.12042961  0.50005312  1
  V  V35  1  0.62429242  0.74860413  0.87825566  1
  V  V36  1  0.37754711  0.14104265  0.24772459  1
  V  V37  1  0.87012240  0.12558642  0.75447026  1
  V  V38  1  0.36323445  0.11161354  0.74557316  1
  V  V39  1  0.37643879  0.48343577  0.85989865  1
  V  V40  1  0.00049143  0.11403973  0.62214435  1
  V  V41  1  0.49559073  0.50945979  0.49798089  1
  V  V42  1  0.12506183  0.75200054  0.86442941  1
  V  V43  1  0.00177079  0.12491002  0.12593097  1
  V  V44  1  0.75029564  0.74889823  0.49733282  1
  V  V45  1  0.76706062  0.50961392  0.75222499  1
  V  V46  1  0.73824650  0.86428323  0.12469148  1
  V  V47  1  0.24579558  0.36317509  0.62287504  1
  V  V48  1  0.50454003  0.01086201  0.01209847  1
  V  V49  1  0.51665674  0.09497294  0.63162370  1
  V  V50  1  0.12286166  0.60031995  0.00422062  1
  V  V51  1  -0.01046665  0.38057987  0.88854853  1
  V  V52  1  0.86995512  0.85922654  0.00876274  1
  V  V53  1  0.50511519  0.36838009  0.38004359  1
  V  V54  1  0.73806953  -0.00240317  0.24077652  1
  V  V55  1  -0.00282921  -0.00130379  0.00062761  1
  V  V56  1  0.50537066  0.62021792  0.13431936  1
  V  V57  1  0.61957573  0.50863576  0.63336836  1
  V  V58  1  -0.00265960  0.87288257  0.36634180  1
  V  V59  1  0.64133516  0.13093205  0.00124916  1
  V  V60  1  0.13809704  0.74372989  0.37652832  1
  V  V61  1  -0.00237470  0.86515546  0.86754783  1
  V  V62  1  -0.01479788  0.73841274  0.23659520  1
  V  V63  1  0.74345658  0.24874247  0.48322678  1
  V  V64  1  0.74656481  0.87804494  0.62582345  1
  V  V65  1  0.39310811  0.25194697  0.62001358  1
  V  V66  1  0.62444359  0.88241255  0.74623471  1
  V  V67  1  0.74897414  0.37338704  0.63494155  1
  V  V68  1  0.62578395  0.36032175  0.25893361  1
  V  V69  1  0.13998813  -0.00032553  0.13061976  1
  V  V70  1  0.61493817  0.75041023  0.36369564  1
  V  V71  1  0.49872877  0.87861030  0.87774483  1
  V  V72  1  -0.00752615  0.63864337  0.64228461  1
  Zn  Zn73  1  -0.00039846  0.50956902  0.50624395  1
  Zn  Zn74  1  0.13133008  0.62354463  0.50130686  1
  Zn  Zn75  1  0.87200129  0.37667215  0.50212325  1
  Zn  Zn76  1  0.75816138  0.25931447  -0.01872158  1
  Zn  Zn77  1  -0.00037682  -0.00388557  0.49900370  1
  Zn  Zn78  1  0.00638350  0.24887866  0.25107077  1
  Zn  Zn79  1  0.87591836  0.25192477  0.62376924  1
  Zn  Zn80  1  0.36796370  0.00873255  0.87641521  1
  Zn  Zn81  1  0.74135259  0.00740133  0.74862205  1
  Zn  Zn82  1  0.20354209  0.19706314  0.20115942  1
  Zn  Zn83  1  0.18656424  0.18158738  0.68620160  1
  Zn  Zn84  1  0.17224451  0.68106314  0.18649890  1
  Zn  Zn85  1  0.18077119  0.69141451  0.68165345  1
  Zn  Zn86  1  0.68408484  0.18389074  0.18334475  1
  Zn  Zn87  1  0.67956949  0.18815878  0.69022761  1
  Zn  Zn88  1  0.68805484  0.68849004  0.18451684  1
  Zn  Zn89  1  0.68845772  0.69311245  0.68627768  1
  Zn  Zn90  1  0.31710528  0.31752841  0.31716151  1
  Zn  Zn91  1  0.32151213  0.30291752  0.79705084  1
  Zn  Zn92  1  0.31963133  0.81632145  0.31266696  1
  Zn  Zn93  1  0.31310430  0.81347965  0.81349720  1
  Zn  Zn94  1  0.81355480  0.31160440  0.30689745  1
  Zn  Zn95  1  0.80705652  0.31487982  0.81569527  1
  Zn  Zn96  1  0.80580827  0.80950505  0.31089345  1
  Zn  Zn97  1  0.81197230  0.80955347  0.81191328  1
  Zn  Zn98  1  0.18476343  0.43661054  0.44783794  1
  Zn  Zn99  1  0.19146104  0.43532932  0.80972262  1
  Zn  Zn100  1  0.18457964  0.93518479  0.43961667  1
  Zn  Zn101  1  0.18426065  0.93173273  0.94145884  1
  Zn  Zn102  1  0.69019603  0.43852535  0.44061297  1
  Zn  Zn103  1  0.68230122  0.44087434  0.93353476  1
  Zn  Zn104  1  0.68820267  0.93421846  0.43103864  1
  Zn  Zn105  1  0.68462496  0.93859600  0.94275698  1
  Zn  Zn106  1  0.32187424  0.06812733  0.06898149  1
  Zn  Zn107  1  0.34217791  0.09259171  0.53545062  1
  Zn  Zn108  1  0.31935633  0.57247301  0.04982124  1
  Zn  Zn109  1  0.30421324  0.56378702  0.56450930  1
  Zn  Zn110  1  0.81206308  0.05963933  0.06717314  1
  Zn  Zn111  1  0.80879513  0.06289272  0.56134521  1
  Zn  Zn112  1  0.79767558  0.55958041  0.06134568  1
  Zn  Zn113  1  0.81623640  0.56676197  0.56348972  1
  Zn  Zn114  1  0.44102665  0.43428703  0.18984448  1
  Zn  Zn115  1  0.44050652  0.42856202  0.68629976  1
  Zn  Zn116  1  0.44373209  0.94019592  0.19544241  1
  Zn  Zn117  1  0.43614205  0.93222778  0.68766294  1
  Zn  Zn118  1  0.93315352  0.42886766  0.20432316  1
  Zn  Zn119  1  0.94121628  0.44310089  0.68870967  1
  Zn  Zn120  1  0.93718480  0.93508719  0.18736209  1
  Zn  Zn121  1  0.93492037  0.93375886  0.68794924  1
  Zn  Zn122  1  0.06653047  0.06267854  0.31564274  1
  Zn  Zn123  1  0.06037285  0.05959867  0.80917778  1
  Zn  Zn124  1  0.06005108  0.56150777  0.31146060  1
  Zn  Zn125  1  0.05679575  0.56696583  0.82305442  1
  Zn  Zn126  1  0.55713885  0.07025355  0.31119275  1
  Zn  Zn127  1  0.56052926  0.07068244  0.82270496  1
  Zn  Zn128  1  0.56938755  0.55955811  0.31595099  1
  Zn  Zn129  1  0.55445283  0.56149623  0.81419546  1
  Zn  Zn130  1  0.44662726  0.17932145  0.44069418  1
  Zn  Zn131  1  0.43302309  0.19321997  0.92689459  1
  Zn  Zn132  1  0.43195790  0.69126912  0.44092497  1
  Zn  Zn133  1  0.43951615  0.69021771  0.93868414  1
  Zn  Zn134  1  0.93159540  0.18985673  0.44084557  1
  Zn  Zn135  1  0.94347464  0.19046446  0.93688198  1
  Zn  Zn136  1  0.94771231  0.68943605  0.44072191  1
  Zn  Zn137  1  0.94213657  0.68015374  0.94376320  1
  Zn  Zn138  1  0.07500445  0.31299129  0.05994400  1
  Zn  Zn139  1  0.06745979  0.31249310  0.56508861  1
  Zn  Zn140  1  0.05860961  0.81169828  0.06371049  1
  Zn  Zn141  1  0.05120050  0.79799853  0.55101797  1
  Zn  Zn142  1  0.55679552  0.29973566  0.05819609  1
  Zn  Zn143  1  0.56969903  0.32087867  0.56226247  1
  Zn  Zn144  1  0.55831307  0.80898597  0.06592770  1
  Zn  Zn145  1  0.55670780  0.82109203  0.55668153  1
  O  O146  1  0.12018284  0.11427305  0.11642636  1
  O  O147  1  0.10910689  0.12846584  0.61371219  1
  O  O148  1  0.13541263  0.61309796  0.10634157  1
  O  O149  1  0.11835279  0.61358638  0.62849918  1
  O  O150  1  0.61879620  0.13710690  0.10272771  1
  O  O151  1  0.62075691  0.11880798  0.62162683  1
  O  O152  1  0.61255985  0.63182312  0.11426512  1
  O  O153  1  0.62981950  0.61575342  0.61524381  1
  O  O154  1  0.39432018  0.39278773  0.36550344  1
  O  O155  1  0.36764300  0.38416240  0.86691298  1
  O  O156  1  0.37960490  0.88534435  0.38143501  1
  O  O157  1  0.38656295  0.86844869  0.89069247  1
  O  O158  1  0.88723887  0.37486434  0.37446145  1
  O  O159  1  0.88914089  0.36702419  0.87474587  1
  O  O160  1  0.88088118  0.88148053  0.37828258  1
  O  O161  1  0.88116531  0.88059468  0.89014926  1
  O  O162  1  0.25506898  0.00065415  0.37437267  1
  O  O163  1  0.25359180  -0.03221855  0.85304979  1
  O  O164  1  0.26958694  0.49013422  0.38325460  1
  O  O165  1  0.26450326  0.51401457  0.86620545  1
  O  O166  1  0.76275571  -0.01124528  0.35738887  1
  O  O167  1  0.76408628  -0.00746102  0.87295617  1
  O  O168  1  0.76322816  0.49667235  0.36811200  1
  O  O169  1  0.74236005  0.51228955  0.86042593  1
  O  O170  1  0.25565092  0.48667323  0.11771317  1
  O  O171  1  0.23590263  0.49823062  0.63130812  1
  O  O172  1  0.23809101  1.00112632  0.12160515  1
  O  O173  1  0.15376519  0.97958847  0.67896849  1
  O  O174  1  0.75988409  0.48300217  0.14107146  1
  O  O175  1  0.74458194  0.50207819  0.63701743  1
  O  O176  1  0.75062476  0.99064236  0.13462965  1
  O  O177  1  0.75709140  0.98421365  0.63014846  1
  O  O178  1  0.01028658  0.37123478  0.26642755  1
  O  O179  1  -0.00307681  0.35822511  0.75183618  1
  O  O180  1  0.00451492  0.86793447  0.25348260  1
  O  O181  1  -0.01427606  0.86962300  0.76879170  1
  O  O182  1  0.51899366  0.38396202  0.26267738  1
  O  O183  1  0.52958950  0.37360909  0.72462017  1
  O  O184  1  0.49088060  0.86763681  0.27040162  1
  O  O185  1  0.50735257  0.86962799  0.76002704  1
  O  O186  1  0.47787552  0.11018149  0.24545259  1
  O  O187  1  0.50242637  0.11551397  0.73440107  1
  O  O188  1  0.50525784  0.61666007  0.23570455  1
  O  O189  1  0.49978497  0.64466645  0.75375266  1
  O  O190  1  0.99493057  0.12309374  0.23954646  1
  O  O191  1  0.99404214  0.12826284  0.73869032  1
  O  O192  1  1.00538597  0.63991077  0.25008655  1
  O  O193  1  1.00093676  0.62418637  0.74289041  1
  O  O194  1  0.36153713  0.24494049  -0.00039174  1
  O  O195  1  0.36962929  0.21852066  0.52252892  1
  O  O196  1  0.36675201  0.75438785  0.00965588  1
  O  O197  1  0.37430795  0.76028759  0.51256875  1
  O  O198  1  0.87217520  0.24084224  0.01431325  1
  O  O199  1  0.85761475  0.25096324  0.50685195  1
  O  O200  1  0.87702013  0.76067784  -0.00137091  1
  O  O201  1  0.86497249  0.76200557  0.48539823  1
  O  O202  1  0.11965578  0.23784892  0.49184971  1
  O  O203  1  0.12698550  0.23364749  0.98720731  1
  O  O204  1  0.12953447  0.76241194  0.47898710  1
  O  O205  1  0.13898730  0.75548923  0.99934594  1
  O  O206  1  0.63998006  0.24632264  0.50732412  1
  O  O207  1  0.63470419  0.24529609  0.99361310  1
  O  O208  1  0.62906033  0.74315766  0.49815820  1
  O  O209  1  0.61457258  0.73898871  0.98755993  1
  O  O210  1  0.47292064  0.26606884  0.12490469  1
  O  O211  1  0.49388500  0.25794882  0.61993844  1
  O  O212  1  0.48776867  0.73387922  0.12030743  1
  O  O213  1  0.49781317  0.75523020  0.63615153  1
  O  O214  1  0.99209599  0.23990736  0.12392958  1
  O  O215  1  0.99940475  0.24340683  0.63723855  1
  O  O216  1  0.99857049  0.75162829  0.13607047  1
  O  O217  1  1.01513407  0.74100411  0.63607132  1
  O  O218  1  0.00017904  0.26037431  0.37646674  1
  O  O219  1  0.00816701  0.25294099  0.86427272  1
  O  O220  1  0.00857037  0.76105845  0.36464218  1
  O  O221  1  0.01287167  0.75658652  0.88452659  1
  O  O222  1  0.49459358  0.27029024  0.38927563  1
  O  O223  1  0.51260210  0.25914958  0.88636532  1
  O  O224  1  0.51088877  0.75082306  0.37755208  1
  O  O225  1  0.50485531  0.75953401  0.86773826  1
  O  O226  1  0.23232117  0.11660040  0.51384512  1
  O  O227  1  0.23763432  0.10941084  0.99566728  1
  O  O228  1  0.24317252  0.62342989  0.49328664  1
  O  O229  1  0.24556413  0.63900339  0.98802559  1
  O  O230  1  0.74149992  0.14002818  0.50690130  1
  O  O231  1  0.74414032  0.12463054  1.00134809  1
  O  O232  1  0.74304929  0.63703360  0.50394311  1
  O  O233  1  0.73513511  0.61455160  0.98578902  1
  O  O234  1  0.26027610  0.41959272  0.08670800  1
  O  O235  1  0.25470664  0.38336310  0.52256068  1
  O  O236  1  0.26045604  0.86236196  -0.00180319  1
  O  O237  1  0.26446460  0.87521559  0.49486652  1
  O  O238  1  0.74417069  0.38241067  0.01774172  1
  O  O239  1  0.74988143  0.36422661  0.50977090  1
  O  O240  1  0.76126497  0.88011699  0.00997542  1
  O  O241  1  0.75520473  0.87088538  0.50603729  1
  O  O242  1  0.12389661  0.48499697  0.25915812  1
  O  O243  1  0.12160077  0.50159058  0.74480126  1
  O  O244  1  0.12195298  0.99181763  0.23865075  1
  O  O245  1  0.10472868  0.97139795  0.74531787  1
  O  O246  1  0.64339702  0.48893817  0.25957091  1
  O  O247  1  0.62213723  0.50992173  0.73502650  1
  O  O248  1  0.64047366  1.00892602  0.25540909  1
  O  O249  1  0.62638988  0.98587315  0.76599007  1
  O  O250  1  0.36939786  -0.00604260  0.26454139  1
  O  O251  1  0.38040010  0.00661979  0.75242631  1
  O  O252  1  0.37857729  0.51188429  0.25912126  1
  O  O253  1  0.39049445  0.50047754  0.76078767  1
  O  O254  1  0.87086596  0.00707736  0.25289168  1
  O  O255  1  0.87724199  0.01006100  0.75834986  1
  O  O256  1  0.86571278  0.49616217  0.26501357  1
  O  O257  1  0.86533778  0.50659690  0.75198945  1
  O  O258  1  0.11651116  0.36379071  0.37781892  1
  O  O259  1  0.12054113  0.35781259  0.87070612  1
  O  O260  1  0.11780776  0.87430309  0.35876891  1
  O  O261  1  0.10778132  0.86575634  0.88309144  1
  O  O262  1  0.61974849  0.37561156  0.36920382  1
  O  O263  1  0.62791011  0.36602249  0.87262518  1
  O  O264  1  0.61129305  0.86374258  0.38213992  1
  O  O265  1  0.61913096  0.86666060  0.87322217  1
  O  O266  1  0.37459846  0.14527984  0.13297589  1
  O  O267  1  0.39890688  0.12021632  0.63236112  1
  O  O268  1  0.38059456  0.62810733  0.13693101  1
  O  O269  1  0.36880225  0.64327204  0.62115109  1
  O  O270  1  0.88339078  0.13075080  0.13155882  1
  O  O271  1  0.88455961  0.12607914  0.63510795  1
  O  O272  1  0.89840132  0.59593407  0.11742008  1
  O  O273  1  0.89250257  0.62676286  0.62170652  1
  O  O274  1  0.26160139  0.25545663  0.12469614  1
  O  O275  1  0.24119700  0.26018909  0.62306060  1
  O  O276  1  0.25772398  0.74304461  0.11452740  1
  O  O277  1  0.25909831  0.75975065  0.63487707  1
  O  O278  1  0.76237023  0.26078106  0.12664439  1
  O  O279  1  0.74852438  0.26891568  0.63677633  1
  O  O280  1  0.75282751  0.76413557  0.12974628  1
  O  O281  1  0.74665208  0.76287316  0.61182367  1
  O  O282  1  0.24125787  0.25612103  0.38603365  1
  O  O283  1  0.23612204  0.24826462  0.86044341  1
  O  O284  1  0.23675136  0.75326205  0.36168846  1
  O  O285  1  0.24102621  0.74886389  0.88323166  1
  O  O286  1  0.75027936  0.25294044  0.38394847  1
  O  O287  1  0.73661853  0.24977295  0.87125714  1
  O  O288  1  0.73225864  0.76309906  0.38820082  1
  O  O289  1  0.73618214  0.73682482  0.86827965  1
  O  O290  1  0.00784846  0.11594667  0.00684099  1
  O  O291  1  -0.00385967  0.12482272  0.51391123  1
  O  O292  1  0.02278257  0.61663338  -0.01575948  1
  O  O293  1  0.01235570  0.63045587  0.51355150  1
  O  O294  1  0.48771355  0.10935510  -0.00367267  1
  O  O295  1  0.51700944  0.12575444  0.51822977  1
  O  O296  1  0.50173121  0.61898554  0.00749297  1
  O  O297  1  0.51082145  0.61618842  0.49585480  1
  O  O298  1  0.51264134  0.39401489  0.48777478  1
  O  O299  1  0.50761745  0.39393676  1.00715217  1
  O  O300  1  0.48317694  0.86958194  0.48430053  1
  O  O301  1  0.49516315  0.88125061  0.99590899  1
  O  O302  1  0.99760384  0.37501312  0.49083523  1
  O  O303  1  1.00512938  0.36324294  0.98740698  1
  O  O304  1  0.99138410  0.87462427  0.48857109  1
  O  O305  1  0.98778476  0.88167186  0.99774323  1
  O  O306  1  0.49781511  0.49806353  0.38488991  1
  O  O307  1  0.48691561  0.50298042  0.88443592  1
  O  O308  1  0.50044330  0.98788268  0.37491896  1
  O  O309  1  0.49591702  0.98824375  0.88558529  1
  O  O310  1  0.98784909  0.49002961  0.37670745  1
  O  O311  1  1.00444675  0.47865788  0.87013252  1
  O  O312  1  0.98981638  0.98883274  0.37023460  1
  O  O313  1  0.99434809  0.98709721  0.88275208  1
  O  O314  1  0.00347684  0.00742666  0.11676191  1
  O  O315  1  -0.00475172  0.01017658  0.62303612  1
  O  O316  1  -0.06152220  0.52832046  0.09288765  1
  O  O317  1  0.01051113  0.50825139  0.62723815  1
  O  O318  1  0.49629280  -0.00513872  0.11094790  1
  O  O319  1  0.51050972  -0.00411240  0.62319806  1
  O  O320  1  0.48978197  0.51399226  0.11279632  1
  O  O321  1  0.51201035  0.49684829  0.60891943  1
  O  O322  1  0.23637262  0.37248847  0.25977657  1
  O  O323  1  0.25439299  0.37547944  0.73536935  1
  O  O324  1  0.23590951  0.87108236  0.24560644  1
  O  O325  1  0.25194891  0.91257825  0.79196899  1
  O  O326  1  0.74175994  0.37853225  0.24527264  1
  O  O327  1  0.75268182  0.39410383  0.74151425  1
  O  O328  1  0.75402258  0.88560796  0.23618882  1
  O  O329  1  0.74127532  0.87196945  0.74356649  1
  O  O330  1  0.27271891  0.12184620  0.25037278  1
  O  O331  1  0.26304708  0.10967097  0.72900289  1
  O  O332  1  0.25536505  0.61898494  0.24587979  1
  O  O333  1  0.24848084  0.63784622  0.76249997  1
  O  O334  1  0.76138037  0.11271624  0.23882534  1
  O  O335  1  0.76745153  0.12476729  0.74123073  1
  O  O336  1  0.74760729  0.60787070  0.24037324  1
  O  O337  1  0.74637399  0.61927672  0.75943708  1
  O  O338  1  0.38122809  0.10967380  0.37330344  1
  O  O339  1  0.37563072  0.12586277  0.85174497  1
  O  O340  1  0.37790420  0.61838561  0.36175025  1
  O  O341  1  0.36317270  0.63229346  0.87518102  1
  O  O342  1  0.88346436  0.11507647  0.36344221  1
  O  O343  1  0.88584844  0.11691718  0.86292157  1
  O  O344  1  0.88098649  0.61571782  0.37729881  1
  O  O345  1  0.85696138  0.62936683  0.88404014  1
  O  O346  1  0.11787272  0.36561862  0.14785829  1
  O  O347  1  0.13188407  0.38587957  0.62664013  1
  O  O348  1  0.11984387  0.88875075  0.13237664  1
  O  O349  1  0.15593852  0.91859701  0.63407353  1
  O  O350  1  0.63597636  0.36801761  0.13791087  1
  O  O351  1  0.64245083  0.39663187  0.61704050  1
  O  O352  1  0.63789536  0.87222176  0.11594942  1
  O  O353  1  0.63115461  0.87175430  0.63543568  1
  O  O354  1  0.12530667  0.25116597  0.27018897  1
  O  O355  1  0.11212026  0.23435284  0.76105130  1
  O  O356  1  0.11674791  0.76232630  0.25129146  1
  O  O357  1  0.12890095  0.75675718  0.76638941  1
  O  O358  1  0.63199827  0.26040939  0.25381342  1
  O  O359  1  0.61810222  0.24297837  0.76402531  1
  O  O360  1  0.62813966  0.74545547  0.26484078  1
  O  O361  1  0.61407248  0.75906931  0.75690147  1
  O  O362  1  0.38186086  0.24148487  0.26358506  1
  O  O363  1  0.37343387  0.22766727  0.72793686  1
  O  O364  1  0.36788088  0.73470020  0.24286767  1
  O  O365  1  0.38536422  0.76540757  0.73703849  1
  O  O366  1  0.87836276  0.23914461  0.23987150  1
  O  O367  1  0.88685213  0.23701090  0.75185439  1
  O  O368  1  0.88585769  0.75128572  0.25501675  1
  O  O369  1  0.89367081  0.75060937  0.76723863  1
  O  O370  1  0.38964601  0.51182208  0.49015616  1
  O  O371  1  0.38335701  0.50218684  0.98643155  1
  O  O372  1  0.37285153  0.99199505  0.48681681  1
  O  O373  1  0.37900199  0.99124887  0.99817903  1
  O  O374  1  0.87383601  0.49720580  0.48656078  1
  O  O375  1  0.89853664  0.49545457  1.03007314  1
  O  O376  1  0.87285770  0.99196545  0.48803010  1
  O  O377  1  0.88417233  1.00110598  0.99351709  1
  O  O378  1  0.11766889  0.00313681  0.00826063  1
  O  O379  1  0.11483550  0.01552788  0.48733431  1
  O  O380  1  0.14043004  0.50633058  -0.01392457  1
  O  O381  1  0.11957445  0.50229371  0.51467786  1
  O  O382  1  0.61334367  0.01408669  -0.00493724  1
  O  O383  1  0.64219496  0.01563687  0.49620572  1
  O  O384  1  0.60797005  0.51391442  -0.01027274  1
  O  O385  1  0.62330934  0.51325106  0.50266995  1
  O  O386  1  0.38237828  0.36011239  0.12824256  1
  O  O387  1  0.36747056  0.35717659  0.62732027  1
  O  O388  1  0.38500767  0.86350702  0.11796571  1
  O  O389  1  0.37579010  0.87351443  0.61113670  1
  O  O390  1  0.87325977  0.36043668  0.13230498  1
  O  O391  1  0.86145709  0.37941648  0.62433045  1
  O  O392  1  0.87048867  0.87905391  0.11175295  1
  O  O393  1  0.87072659  0.87620316  0.61025682  1
  O  O394  1  0.12074726  0.13744340  0.38644204  1
  O  O395  1  0.12054096  0.12337000  0.88541455  1
  O  O396  1  0.12001155  0.64182600  0.37286793  1
  O  O397  1  0.13708313  0.63911049  0.88059073  1
  O  O398  1  0.61231177  0.13064537  0.39254184  1
  O  O399  1  0.61775154  0.13736188  0.89326030  1
  O  O400  1  0.62469734  0.63765417  0.38476221  1
  O  O401  1  0.62457371  0.63264504  0.87906683  1
