# generated using pymatgen
data_V73Zn73O256
_symmetry_space_group_name_H-M   'P 1'
_cell_length_a   16.89498240
_cell_length_b   16.88701230
_cell_length_c   16.91329609
_cell_angle_alpha   90.12846013
_cell_angle_beta   90.03455569
_cell_angle_gamma   90.03318380
_symmetry_Int_Tables_number   1
_chemical_formula_structural   V73Zn73O256
_chemical_formula_sum   'V73 Zn73 O256'
_cell_volume   4825.44724118
_cell_formula_units_Z   1
loop_
 _symmetry_equiv_pos_site_id
 _symmetry_equiv_pos_as_xyz
  1  'x, y, z'
loop_
 _atom_site_type_symbol
 _atom_site_label
 _atom_site_symmetry_multiplicity
 _atom_site_fract_x
 _atom_site_fract_y
 _atom_site_fract_z
 _atom_site_occupancy
  V  V0  1  0.36948407  0.01248779  0.37540041  1
  V  V1  1  0.75613076  0.51965608  0.75888993  1
  V  V2  1  0.12555130  0.14327131  0.48912174  1
  V  V3  1  0.87426680  0.86288855  0.49934473  1
  V  V4  1  -0.00113346  -0.00123866  0.00056122  1
  V  V5  1  0.86674913  0.12031145  0.75241358  1
  V  V6  1  0.62817031  0.50371820  0.62398879  1
  V  V7  1  0.12512882  0.87093336  0.25143908  1
  V  V8  1  0.87608084  0.38118446  0.49042246  1
  V  V9  1  0.12995777  0.72208475  0.37444586  1
  V  V10  1  0.49473167  0.74050007  0.24280961  1
  V  V11  1  0.49138695  0.87161841  0.36870100  1
  V  V12  1  0.74114833  0.75556968  0.00539473  1
  V  V13  1  0.49855543  0.62635799  0.62021110  1
  V  V14  1  0.75549272  0.12514073  0.37277181  1
  V  V15  1  0.00985975  0.62983789  0.63368022  1
  V  V16  1  0.22427775  0.38224543  0.62177812  1
  V  V17  1  0.87880746  0.00178668  0.37058149  1
  V  V18  1  0.50874072  0.12466336  0.13427753  1
  V  V19  1  0.64401270  0.63578877  0.49468742  1
  V  V20  1  0.01278309  -0.00334323  0.50295985  1
  V  V21  1  0.74940241  0.86877435  0.62002478  1
  V  V22  1  0.63025648  0.88239151  0.75405308  1
  V  V23  1  0.01448587  0.26330620  0.26210203  1
  V  V24  1  -0.01467024  0.73581782  0.24090211  1
  V  V25  1  0.43315982  0.50933488  0.37865410  1
  V  V26  1  0.12423193  0.00070236  0.12766690  1
  V  V27  1  0.26814075  0.25502565  0.49948205  1
  V  V28  1  0.25471129  0.00935896  0.25431044  1
  V  V29  1  0.24917807  0.37872323  0.13271496  1
  V  V30  1  0.63883352  0.76129714  0.37786723  1
  V  V31  1  0.25629768  0.86298601  0.12379015  1
  V  V32  1  0.86409591  0.51749254  0.36047618  1
  V  V33  1  0.00852055  0.11925850  0.62747457  1
  V  V34  1  -0.02203098  0.62094649  0.11235711  1
  V  V35  1  0.62726299  0.22595835  0.87854393  1
  V  V36  1  0.00014007  0.25826623  0.75190027  1
  V  V37  1  0.36890927  0.86307817  -0.00872053  1
  V  V38  1  0.36608851  0.23745376  0.13527699  1
  V  V39  1  0.86630595  0.37282108  -0.00157542  1
  V  V40  1  0.24023343  0.88845275  0.63323578  1
  V  V41  1  0.62820781  0.12267114  0.50286370  1
  V  V42  1  0.49435376  -0.00224512  0.50002750  1
  V  V43  1  0.49469116  0.00842373  0.00803530  1
  V  V44  1  0.72480684  0.89205013  0.12587435  1
  V  V45  1  0.86697375  0.00242022  0.86644912  1
  V  V46  1  0.11437285  0.49324097  0.12591866  1
  V  V47  1  0.74839001  0.37481980  0.63689267  1
  V  V48  1  0.49770849  0.88162420  0.87675110  1
  V  V49  1  0.15491805  0.62878449  0.01017105  1
  V  V50  1  0.25370697  0.25515267  -0.00386521  1
  V  V51  1  0.85931618  0.24872955  0.12873309  1
  V  V52  1  0.63106371  -0.00305314  0.62759251  1
  V  V53  1  0.14400791  0.74580540  0.87659618  1
  V  V54  1  0.48807246  0.13001439  0.62345174  1
  V  V55  1  0.24684399  0.49933044  0.76216378  1
  V  V56  1  0.00370731  0.50764380  0.50273691  1
  V  V57  1  0.63103252  0.73970270  0.87759888  1
  V  V58  1  0.49657013  0.38113674  0.89634896  1
  V  V59  1  0.87740596  0.74823251  0.64893046  1
  V  V60  1  0.25243867  0.11108563  0.86959686  1
  V  V61  1  0.87114011  0.88012523  0.01303449  1
  V  V62  1  0.61794766  0.26107037  0.37708090  1
  V  V63  1  0.12081459  0.25588963  0.87064444  1
  V  V64  1  0.73469879  0.00089601  0.25066393  1
  V  V65  1  0.49985268  0.25900276  0.74631459  1
  V  V66  1  0.62329938  0.38466718  0.21598963  1
  V  V67  1  0.87564099  0.25101708  0.62799057  1
  V  V68  1  0.00320557  0.86419956  0.86451624  1
  V  V69  1  0.75332477  0.25041216  0.50174028  1
  V  V70  1  0.12323291  0.12528892  0.00292636  1
  V  V71  1  0.00396804  0.87086772  0.37544427  1
  V  V72  1  0.49504032  0.74481917  0.75383470  1
  Zn  Zn73  1  0.36623347  0.11674111  0.74961745  1
  Zn  Zn74  1  0.32780372  0.76989254  0.55566078  1
  Zn  Zn75  1  0.28342968  0.61652151  0.34372869  1
  Zn  Zn76  1  0.88827307  0.50757813  0.87276984  1
  Zn  Zn77  1  -0.01872533  0.12145964  0.14909421  1
  Zn  Zn78  1  0.00734896  0.39474871  0.89218013  1
  Zn  Zn79  1  0.37843472  0.60013303  0.77807759  1
  Zn  Zn80  1  0.48418958  0.25157496  0.26591262  1
  Zn  Zn81  1  0.78748066  0.55437692  0.19428844  1
  Zn  Zn82  1  0.18092324  0.19054246  0.19203037  1
  Zn  Zn83  1  0.19188053  0.19129768  0.68487559  1
  Zn  Zn84  1  0.17749108  0.67983554  0.19375655  1
  Zn  Zn85  1  0.19542912  0.68299707  0.69045966  1
  Zn  Zn86  1  0.68496980  0.19193073  0.19121689  1
  Zn  Zn87  1  0.68256839  0.18592904  0.69696831  1
  Zn  Zn88  1  0.68784177  0.71362807  0.19546764  1
  Zn  Zn89  1  0.68828828  0.69089294  0.69007278  1
  Zn  Zn90  1  0.29559716  0.31887183  0.31467020  1
  Zn  Zn91  1  0.33424535  0.32709163  0.78597156  1
  Zn  Zn92  1  0.31307023  0.80907595  0.31336209  1
  Zn  Zn93  1  0.31025342  0.81570713  0.80158415  1
  Zn  Zn94  1  0.80458694  0.32369353  0.29994809  1
  Zn  Zn95  1  0.81102325  0.30906217  0.82307126  1
  Zn  Zn96  1  0.81446072  0.82085363  0.30606199  1
  Zn  Zn97  1  0.80958428  0.82459609  0.81754648  1
  Zn  Zn98  1  0.20688852  0.44955925  0.44473068  1
  Zn  Zn99  1  0.18985174  0.44283295  0.94536394  1
  Zn  Zn100  1  0.19551784  0.92460984  0.44627927  1
  Zn  Zn101  1  0.18499353  0.93128533  0.93619701  1
  Zn  Zn102  1  0.68517982  0.44602224  0.43819292  1
  Zn  Zn103  1  0.68463898  0.41268788  0.92289478  1
  Zn  Zn104  1  0.68758562  0.93581845  0.43887882  1
  Zn  Zn105  1  0.68486220  0.97295400  0.94569832  1
  Zn  Zn106  1  0.31168598  0.05437241  0.05788001  1
  Zn  Zn107  1  0.30327484  0.06195496  0.55782259  1
  Zn  Zn108  1  0.30717295  0.57695638  0.13775078  1
  Zn  Zn109  1  0.31860889  0.55785532  0.53381138  1
  Zn  Zn110  1  0.80004491  0.07747936  0.05762433  1
  Zn  Zn111  1  0.82031790  0.05579099  0.56292524  1
  Zn  Zn112  1  0.81860587  0.57263786  0.01396252  1
  Zn  Zn113  1  0.81559384  0.56690285  0.56869101  1
  Zn  Zn114  1  0.43642103  0.42350924  0.19211227  1
  Zn  Zn115  1  0.43731877  0.44622390  0.68020455  1
  Zn  Zn116  1  0.44005752  0.93107843  0.18559710  1
  Zn  Zn117  1  0.42349113  0.93647707  0.68908514  1
  Zn  Zn118  1  0.93476130  0.42992498  0.18227878  1
  Zn  Zn119  1  0.97097329  0.47384429  0.72170226  1
  Zn  Zn120  1  0.93721908  0.93940789  0.19133816  1
  Zn  Zn121  1  1.06695771  0.93932977  0.68872721  1
  Zn  Zn122  1  0.06439494  0.06734083  0.31394285  1
  Zn  Zn123  1  0.05695513  0.06806628  0.81843794  1
  Zn  Zn124  1  0.07797355  0.50526285  0.33211946  1
  Zn  Zn125  1  0.08180905  0.57260504  0.81703012  1
  Zn  Zn126  1  0.55664723  0.06903464  0.31581588  1
  Zn  Zn127  1  0.53189119  0.05361036  0.80460842  1
  Zn  Zn128  1  0.60033703  0.57400960  0.28078075  1
  Zn  Zn129  1  0.57048907  0.55506215  0.81458060  1
  Zn  Zn130  1  0.43371661  0.18469073  0.43958537  1
  Zn  Zn131  1  0.43595893  0.19138929  0.93389733  1
  Zn  Zn132  1  0.43143312  0.68153298  0.44164665  1
  Zn  Zn133  1  0.41892142  0.66062913  0.96031510  1
  Zn  Zn134  1  0.94288385  0.18770572  0.43361197  1
  Zn  Zn135  1  0.93225678  0.18812242  0.94258283  1
  Zn  Zn136  1  0.94089178  0.68147250  0.43034765  1
  Zn  Zn137  1  0.92303215  0.69072793  0.92893600  1
  Zn  Zn138  1  0.04942407  0.30733539  0.07093183  1
  Zn  Zn139  1  0.05633945  0.31678923  0.56231339  1
  Zn  Zn140  1  0.06117895  0.80627470  0.05977929  1
  Zn  Zn141  1  0.07469425  0.79280284  0.56457206  1
  Zn  Zn142  1  0.56220774  0.29791879  0.05212637  1
  Zn  Zn143  1  0.56860913  0.31265855  0.56745979  1
  Zn  Zn144  1  0.53028078  0.76955689  0.04491428  1
  Zn  Zn145  1  0.53798320  0.80047318  0.55250150  1
  O  O146  1  0.12983400  0.11129771  0.11832565  1
  O  O147  1  0.11136503  0.13606419  0.61586222  1
  O  O148  1  0.11170705  0.61971149  0.11396196  1
  O  O149  1  0.10792318  0.64541009  0.61958974  1
  O  O150  1  0.60708467  0.13495803  0.12611126  1
  O  O151  1  0.62568888  0.11729756  0.61434912  1
  O  O152  1  0.66094564  0.52882917  0.07106411  1
  O  O153  1  0.62908386  0.62047930  0.61852321  1
  O  O154  1  0.37575755  0.40811971  0.34939054  1
  O  O155  1  0.39749512  0.36343813  0.87088279  1
  O  O156  1  0.38571433  0.88519531  0.37405567  1
  O  O157  1  0.38093994  0.86730117  0.88412062  1
  O  O158  1  0.86607875  0.37281586  0.39034220  1
  O  O159  1  0.88469799  0.37038303  0.88312009  1
  O  O160  1  0.88587014  0.88196009  0.37894757  1
  O  O161  1  0.88774177  0.88619336  0.88338364  1
  O  O162  1  0.25957524  -0.00864710  0.36704523  1
  O  O163  1  0.24045971  0.01198505  0.87913336  1
  O  O164  1  0.25852161  0.54784374  0.43171611  1
  O  O165  1  0.25121775  0.48794674  0.86259969  1
  O  O166  1  0.75668651  0.00396255  0.36982589  1
  O  O167  1  0.76958088  -0.01517454  0.86503151  1
  O  O168  1  0.76592451  0.49910839  0.38021585  1
  O  O169  1  0.73530297  0.49190706  0.85582571  1
  O  O170  1  0.23987895  0.48205391  0.11796188  1
  O  O171  1  0.26422770  0.47857386  0.60644522  1
  O  O172  1  0.24226224  0.99064871  0.13823318  1
  O  O173  1  0.24203941  0.98993710  0.61544614  1
  O  O174  1  0.74205172  0.50671914  0.08595947  1
  O  O175  1  0.74803019  0.49471193  0.63543640  1
  O  O176  1  0.75156000  1.00448479  0.14465427  1
  O  O177  1  0.73897176  0.99068955  0.61827572  1
  O  O178  1  0.00179701  0.36537149  0.24609570  1
  O  O179  1  -0.00472598  0.35715535  0.74266467  1
  O  O180  1  0.00792250  0.87288064  0.25731760  1
  O  O181  1  0.00440802  0.87515021  0.76665301  1
  O  O182  1  0.51646238  0.35746292  0.23752818  1
  O  O183  1  0.49301382  0.35870827  0.73024712  1
  O  O184  1  0.50504211  0.88949679  0.27030307  1
  O  O185  1  0.51004696  0.86464803  0.75585607  1
  O  O186  1  0.49883834  0.13362737  0.23967759  1
  O  O187  1  0.50701464  0.13615963  0.72527046  1
  O  O188  1  0.51418263  0.64294329  0.23188925  1
  O  O189  1  0.50280159  0.63403605  0.75250954  1
  O  O190  1  1.00058229  0.13880201  0.25894585  1
  O  O191  1  0.99013794  0.13524030  0.74230306  1
  O  O192  1  0.99046488  0.63536247  0.23630304  1
  O  O193  1  1.00453695  0.61733298  0.73353826  1
  O  O194  1  0.35587557  0.24278287  0.00815928  1
  O  O195  1  0.36713567  0.24235420  0.50965875  1
  O  O196  1  0.36822787  0.76584373  0.00774394  1
  O  O197  1  0.42973390  0.77151902  0.51073893  1
  O  O198  1  0.87958711  0.25581198  0.01380193  1
  O  O199  1  0.86916929  0.25369191  0.50679645  1
  O  O200  1  0.85118779  0.77180669  -0.00656421  1
  O  O201  1  0.88025635  0.76322697  0.48739408  1
  O  O202  1  0.11293251  0.24371946  0.49264849  1
  O  O203  1  0.12826549  0.23875185  0.99787411  1
  O  O204  1  0.11508024  0.74064396  0.47217686  1
  O  O205  1  0.12639761  0.73545626  0.99818309  1
  O  O206  1  0.63463933  0.24110707  0.49868544  1
  O  O207  1  0.61427669  0.22804780  0.97945903  1
  O  O208  1  0.62452517  0.74592413  0.49427863  1
  O  O209  1  0.63152988  0.77137949  0.98420685  1
  O  O210  1  0.47606432  0.23364089  0.11648710  1
  O  O211  1  0.50476246  0.23575998  0.62253852  1
  O  O212  1  0.51254274  0.78709249  0.15345267  1
  O  O213  1  0.51968752  0.73653256  0.64790794  1
  O  O214  1  0.99407646  0.24071680  0.14329007  1
  O  O215  1  0.99108278  0.24271238  0.63067762  1
  O  O216  1  0.99834991  0.73902136  0.13258265  1
  O  O217  1  0.98449632  0.74342393  0.62238463  1
  O  O218  1  -0.00913497  0.25658400  0.36277945  1
  O  O219  1  0.01200141  0.24151287  0.86892585  1
  O  O220  1  0.00578883  0.75455677  0.35987121  1
  O  O221  1  -0.00564390  0.76280236  0.88169467  1
  O  O222  1  0.51367264  0.24083006  0.38116701  1
  O  O223  1  0.50304475  0.24980399  0.85966893  1
  O  O224  1  0.50145376  0.76487438  0.36666168  1
  O  O225  1  0.51814238  0.76369065  0.86703782  1
  O  O226  1  0.23309330  0.14454264  0.51396346  1
  O  O227  1  0.23865405  0.12776148  0.99483494  1
  O  O228  1  0.32325187  0.66874824  0.49479712  1
  O  O229  1  0.25104948  0.62899414  1.03503971  1
  O  O230  1  0.74629398  0.13015439  0.49663685  1
  O  O231  1  0.72320395  0.07655848  0.98101621  1
  O  O232  1  0.74329111  0.63423178  0.50600730  1
  O  O233  1  0.73712713  0.65893353  1.01982790  1
  O  O234  1  0.24286974  0.35752734  0.00653321  1
  O  O235  1  0.24756739  0.36357690  0.51065874  1
  O  O236  1  0.25735756  0.88308602  0.01432670  1
  O  O237  1  0.25091797  0.86121333  0.51810205  1
  O  O238  1  0.76520078  0.36555570  -0.01307281  1
  O  O239  1  0.75849677  0.36522336  0.50916120  1
  O  O240  1  0.75155347  0.89114497  0.01562333  1
  O  O241  1  0.76102081  0.88077470  0.50939837  1
  O  O242  1  0.12222976  0.50938644  0.22354011  1
  O  O243  1  0.14563543  0.50367635  0.74519095  1
  O  O244  1  0.13162307  0.99057710  0.24685656  1
  O  O245  1  0.12031451  1.01795739  0.74464714  1
  O  O246  1  0.60275414  0.48271925  0.20463116  1
  O  O247  1  0.64037562  0.50773717  0.73186109  1
  O  O248  1  0.63635663  1.00322986  0.26217026  1
  O  O249  1  0.61290214  0.99236664  0.73514835  1
  O  O250  1  0.36086286  -0.00435559  0.25794527  1
  O  O251  1  0.42143475  0.01776982  0.76308073  1
  O  O252  1  0.37313192  0.46747113  0.28639967  1
  O  O253  1  0.36397270  0.49129862  0.74736592  1
  O  O254  1  0.87087644  -0.00198158  0.26674387  1
  O  O255  1  0.88859903  0.00792847  0.76500366  1
  O  O256  1  0.86716591  0.49519618  0.25567916  1
  O  O257  1  0.85749104  0.49626842  0.75271884  1
  O  O258  1  0.14929656  0.42029345  0.35544022  1
  O  O259  1  0.12347535  0.35723259  0.88563142  1
  O  O260  1  0.11860774  0.87196074  0.36604181  1
  O  O261  1  0.11066346  0.85804747  0.89011502  1
  O  O262  1  0.62163341  0.35899965  0.39836542  1
  O  O263  1  0.60319538  0.34966418  0.87742672  1
  O  O264  1  0.61119791  0.86704640  0.38883553  1
  O  O265  1  0.61758077  0.89020198  0.86376566  1
  O  O266  1  0.36043356  0.13539898  0.12768319  1
  O  O267  1  0.38696797  0.11740116  0.62036858  1
  O  O268  1  0.41658342  0.52769828  0.13591786  1
  O  O269  1  0.40071821  0.61486460  0.62595159  1
  O  O270  1  0.87282486  0.13775617  0.11582328  1
  O  O271  1  0.88373157  0.13273173  0.62703654  1
  O  O272  1  0.87599311  0.60817432  0.12119450  1
  O  O273  1  0.87538781  0.64518349  0.62718984  1
  O  O274  1  0.24912751  0.25185745  0.11559142  1
  O  O275  1  0.24198892  0.26942132  0.61646981  1
  O  O276  1  0.23585592  0.76701381  0.13177489  1
  O  O277  1  0.24878447  0.76499584  0.63604434  1
  O  O278  1  0.75902360  0.24205647  0.12450126  1
  O  O279  1  0.75315336  0.25191239  0.61767940  1
  O  O280  1  0.73409121  0.77959682  0.11659793  1
  O  O281  1  0.76091887  0.75979787  0.63022909  1
  O  O282  1  0.25777176  0.25681646  0.39814659  1
  O  O283  1  0.23579141  0.24268782  0.88857962  1
  O  O284  1  0.23377329  0.73535881  0.35660837  1
  O  O285  1  0.24100347  0.76727815  0.88045055  1
  O  O286  1  0.74318597  0.24305894  0.38693602  1
  O  O287  1  0.72749902  0.24211463  0.85905649  1
  O  O288  1  0.73800959  0.76867962  0.37226614  1
  O  O289  1  0.73774360  0.76472079  0.88786687  1
  O  O290  1  0.01076950  0.11252480  -0.00276654  1
  O  O291  1  0.00861555  0.11774311  0.50504210  1
  O  O292  1  -0.01098237  0.63565250  0.01420692  1
  O  O293  1  -0.01109580  0.61391779  0.50922890  1
  O  O294  1  0.48479203  0.11342906  0.01032193  1
  O  O295  1  0.50935404  0.11940387  0.50612419  1
  O  O296  1  0.50343566  0.66240850  0.02565513  1
  O  O297  1  0.51785463  0.63233978  0.51901263  1
  O  O298  1  0.47073494  0.37051208  0.52483080  1
  O  O299  1  0.49419285  0.37154385  0.99764989  1
  O  O300  1  0.50618499  0.89568587  0.49160778  1
  O  O301  1  0.48417511  0.87083539  0.99353226  1
  O  O302  1  0.98004710  0.38621339  0.50995752  1
  O  O303  1  0.98790523  0.36576212  0.99893785  1
  O  O304  1  0.99747847  0.87787398  0.48901965  1
  O  O305  1  0.99046319  0.88328996  1.00400935  1
  O  O306  1  0.53245843  0.50792512  0.35975011  1
  O  O307  1  0.51288443  0.48074843  0.87458997  1
  O  O308  1  0.48823845  0.99958755  0.38052273  1
  O  O309  1  0.49460046  0.98812515  0.89545520  1
  O  O310  1  0.97567092  0.50207816  0.39189213  1
  O  O311  1  1.00029003  0.49330642  0.83696979  1
  O  O312  1  0.99674016  0.99050279  0.38043591  1
  O  O313  1  1.00167214  0.98726678  0.88836493  1
  O  O314  1  0.00766512  0.00333174  0.12114209  1
  O  O315  1  -0.00229779  0.00893664  0.61367568  1
  O  O316  1  0.00455928  0.51116765  0.12268974  1
  O  O317  1  -0.00937589  0.51675378  0.61537924  1
  O  O318  1  0.48740925  0.01763897  0.12533962  1
  O  O319  1  0.51011533  0.01137871  0.61375545  1
  O  O320  1  0.43967424  0.51134951  0.05282619  1
  O  O321  1  0.52122748  0.51407422  0.63445692  1
  O  O322  1  0.23704790  0.36682642  0.23070312  1
  O  O323  1  0.25359930  0.38220420  0.72851149  1
  O  O324  1  0.24008282  0.88016534  0.24326696  1
  O  O325  1  0.25064734  0.88474310  0.73706286  1
  O  O326  1  0.71651753  0.38262762  0.26240881  1
  O  O327  1  0.75137599  0.36915744  0.73663517  1
  O  O328  1  0.75060873  0.89138940  0.23890255  1
  O  O329  1  0.73832763  0.87599253  0.73810179  1
  O  O330  1  0.24075062  0.10710272  0.25002425  1
  O  O331  1  0.24909117  0.13137068  0.76508669  1
  O  O332  1  0.26446060  0.62030514  0.23092245  1
  O  O333  1  0.26210269  0.60425683  0.74018350  1
  O  O334  1  0.74525300  0.11656320  0.26527258  1
  O  O335  1  0.76786897  0.12252429  0.73731051  1
  O  O336  1  0.70308658  0.61327318  0.23574703  1
  O  O337  1  0.75204755  0.61990855  0.75442278  1
  O  O338  1  0.37567162  0.11207896  0.36889631  1
  O  O339  1  0.35354251  0.12677646  0.88246745  1
  O  O340  1  0.40377048  0.60929469  0.35665366  1
  O  O341  1  0.36187705  0.65656348  0.87107545  1
  O  O342  1  0.86325407  0.11422450  0.38948157  1
  O  O343  1  0.88052928  0.11255313  0.86909809  1
  O  O344  1  0.86843225  0.61743940  0.36797038  1
  O  O345  1  0.85188169  0.60952793  0.90976827  1
  O  O346  1  0.12727982  0.38786111  0.11250205  1
  O  O347  1  0.12397879  0.38605162  0.62261924  1
  O  O348  1  0.12789826  0.88383443  0.13163100  1
  O  O349  1  0.12883619  0.87109302  0.62325598  1
  O  O350  1  0.63503699  0.34607286  0.12307391  1
  O  O351  1  0.63578271  0.39389412  0.61082340  1
  O  O352  1  0.63013418  0.89784763  0.12788695  1
  O  O353  1  0.63012437  0.87989070  0.62906690  1
  O  O354  1  0.11660456  0.25324812  0.25639569  1
  O  O355  1  0.11814735  0.24409972  0.76531128  1
  O  O356  1  0.11000776  0.75684207  0.25383580  1
  O  O357  1  0.12763270  0.72878458  0.77875224  1
  O  O358  1  0.62881018  0.25208564  0.27395305  1
  O  O359  1  0.60749978  0.24981828  0.74944073  1
  O  O360  1  0.61436466  0.75629145  0.27412711  1
  O  O361  1  0.62697538  0.76070182  0.76517477  1
  O  O362  1  0.36661053  0.25274996  0.23921565  1
  O  O363  1  0.39282671  0.23462262  0.74768413  1
  O  O364  1  0.39332774  0.75268392  0.25597612  1
  O  O365  1  0.39627140  0.75452607  0.75232691  1
  O  O366  1  0.87319236  0.26019570  0.23470561  1
  O  O367  1  0.87999980  0.24127342  0.74420531  1
  O  O368  1  0.88690559  0.75693534  0.24858861  1
  O  O369  1  0.87447508  0.75704832  0.74765767  1
  O  O370  1  0.41486738  0.50693184  0.47797919  1
  O  O371  1  0.38948373  0.53721769  1.00255064  1
  O  O372  1  0.37993982  1.00936373  0.48518695  1
  O  O373  1  0.38378961  0.97970906  1.01043318  1
  O  O374  1  0.86939337  0.48803303  0.49881884  1
  O  O375  1  0.88147246  0.47709698  0.99623425  1
  O  O376  1  0.88670755  0.98901886  0.49108024  1
  O  O377  1  0.88403370  0.99741038  0.99004472  1
  O  O378  1  0.11855875  0.00207497  0.00998393  1
  O  O379  1  0.11502927  0.00219137  0.49292240  1
  O  O380  1  0.13080876  0.51929800  0.00869764  1
  O  O381  1  0.10043487  0.49492897  0.49460581  1
  O  O382  1  0.59235347  -0.01158832  0.01161048  1
  O  O383  1  0.61902005  0.00822676  0.50431862  1
  O  O384  1  0.62846851  0.49516475  0.01148333  1
  O  O385  1  0.63558526  0.51922462  0.51313571  1
  O  O386  1  0.35600960  0.36005655  0.12571808  1
  O  O387  1  0.41543902  0.38360877  0.57541953  1
  O  O388  1  0.35956469  0.87278025  0.12617545  1
  O  O389  1  0.35862800  0.87443731  0.62504801  1
  O  O390  1  0.87128957  0.36334195  0.11217602  1
  O  O391  1  0.86521271  0.35791843  0.61698951  1
  O  O392  1  0.86995897  0.88668427  0.11547924  1
  O  O393  1  0.86731598  0.85896057  0.61503791  1
  O  O394  1  0.12876309  0.12100216  0.39218302  1
  O  O395  1  0.13183268  0.13343694  0.88622601  1
  O  O396  1  0.11249917  0.62511069  0.35791210  1
  O  O397  1  0.13829053  0.63277148  0.89853286  1
  O  O398  1  0.63393329  0.12982065  0.38854743  1
  O  O399  1  0.60666432  0.12687712  0.85590743  1
  O  O400  1  0.62721853  0.64299312  0.39018915  1
  O  O401  1  0.62527915  0.64141206  0.87639623  1
