# generated using pymatgen
data_V73Zn73O256
_symmetry_space_group_name_H-M   'P 1'
_cell_length_a   16.87268680
_cell_length_b   16.84533343
_cell_length_c   16.86184078
_cell_angle_alpha   89.83568544
_cell_angle_beta   90.14887147
_cell_angle_gamma   89.99622569
_symmetry_Int_Tables_number   1
_chemical_formula_structural   V73Zn73O256
_chemical_formula_sum   'V73 Zn73 O256'
_cell_volume   4792.53825146
_cell_formula_units_Z   1
loop_
 _symmetry_equiv_pos_site_id
 _symmetry_equiv_pos_as_xyz
  1  'x, y, z'
loop_
 _atom_site_type_symbol
 _atom_site_label
 _atom_site_symmetry_multiplicity
 _atom_site_fract_x
 _atom_site_fract_y
 _atom_site_fract_z
 _atom_site_occupancy
  V  V0  1  0.62119388  0.73823288  0.89105361  1
  V  V1  1  0.24691536  0.01459741  0.24176759  1
  V  V2  1  0.12067346  0.86396926  0.75185087  1
  V  V3  1  0.36450783  0.49879060  0.88971867  1
  V  V4  1  0.75883171  0.01584361  0.24832160  1
  V  V5  1  0.62758784  0.74066398  0.38572951  1
  V  V6  1  0.63225003  0.12203735  0.48858460  1
  V  V7  1  0.76645150  0.62674570  0.88320291  1
  V  V8  1  0.50607278  0.74267340  0.24126413  1
  V  V9  1  0.84385080  0.25210803  0.13350218  1
  V  V10  1  0.62678246  0.86371415  0.74767100  1
  V  V11  1  -0.00556448  -0.00162034  0.49739674  1
  V  V12  1  0.36701162  0.87288605  0.00940854  1
  V  V13  1  0.49362359  0.48608308  0.49536367  1
  V  V14  1  0.75916544  0.73529033  0.49622542  1
  V  V15  1  0.88109663  0.63230967  0.23665396  1
  V  V16  1  0.50710414  -0.00146620  -0.00112018  1
  V  V17  1  0.10890347  0.25163812  0.87759702  1
  V  V18  1  0.88323644  0.74737575  0.63627418  1
  V  V19  1  0.84751080  0.36852594  -0.00845693  1
  V  V20  1  0.37631734  0.00206717  0.86999683  1
  V  V21  1  0.48892742  0.12794253  0.63296896  1
  V  V22  1  0.62840631  0.87749633  0.25221933  1
  V  V23  1  0.00583802  0.62591287  0.63314382  1
  V  V24  1  0.87447456  0.01123948  0.36798397  1
  V  V25  1  0.50201221  -0.00092699  0.49565910  1
  V  V26  1  0.63021326  0.13346723  -0.00600068  1
  V  V27  1  0.75908214  0.87317616  0.61619315  1
  V  V28  1  0.76702807  0.50542322  0.74662473  1
  V  V29  1  0.23697216  0.63263743  0.88065444  1
  V  V30  1  0.75913001  -0.00332419  0.75478376  1
  V  V31  1  0.75252206  0.24655575  0.49126971  1
  V  V32  1  0.75375543  0.85944483  0.11975928  1
  V  V33  1  0.36872200  0.61466110  0.74658226  1
  V  V34  1  0.00401357  0.12904060  0.62191713  1
  V  V35  1  0.87356380  0.85436497  -0.00398747  1
  V  V36  1  0.88307348  0.12445187  0.75260823  1
  V  V37  1  0.74800558  0.49646962  0.23224229  1
  V  V38  1  0.10716494  0.38642509  0.76015559  1
  V  V39  1  -0.00014586  0.49075045  0.00946530  1
  V  V40  1  -0.01538602  0.00273278  -0.00899909  1
  V  V41  1  0.27436593  0.38359888  0.11406598  1
  V  V42  1  0.11736053  0.37607914  0.23387753  1
  V  V43  1  0.50059151  0.86929480  0.86688972  1
  V  V44  1  0.87061175  0.37474738  0.50304951  1
  V  V45  1  0.75346674  0.13211969  0.87059456  1
  V  V46  1  0.49345884  0.38301792  0.86580417  1
  V  V47  1  0.00847856  0.50452374  0.49825295  1
  V  V48  1  0.24853641  0.86859618  0.61916214  1
  V  V49  1  0.36292611  0.74618706  0.12660859  1
  V  V50  1  0.62983866  0.00125927  0.62323751  1
  V  V51  1  0.13065554  0.63733026  0.48195272  1
  V  V52  1  -0.00239281  0.86446232  0.37475580  1
  V  V53  1  0.63026416  0.00483670  0.12091779  1
  V  V54  1  0.38230048  0.75408783  0.63295900  1
  V  V55  1  0.24254941  0.40709915  0.64217709  1
  V  V56  1  -0.00875511  0.12915409  0.13474105  1
  V  V57  1  0.25398872  0.00548295  0.74588473  1
  V  V58  1  0.61023785  0.24555418  0.84897307  1
  V  V59  1  0.24767087  0.12880102  0.88138952  1
  V  V60  1  0.23153925  0.13237311  0.39004989  1
  V  V61  1  0.12641361  0.00474694  0.61756376  1
  V  V62  1  0.86123056  0.50442202  0.37715010  1
  V  V63  1  0.00661647  0.36448946  0.37295971  1
  V  V64  1  0.11900183  0.63020005  0.03876360  1
  V  V65  1  0.50879810  0.61924196  0.62286883  1
  V  V66  1  0.60881199  0.26256517  0.37574117  1
  V  V67  1  0.13040871  0.86752078  0.25993960  1
  V  V68  1  0.37544048  0.00990803  0.37206765  1
  V  V69  1  0.11978970  -0.00421907  0.11710203  1
  V  V70  1  0.25676185  0.49271290  0.27462367  1
  V  V71  1  0.61745095  0.38405422  0.23728694  1
  V  V72  1  0.87542982  0.25182676  0.62503246  1
  Zn  Zn73  1  0.25389952  0.24782590  0.01383620  1
  Zn  Zn74  1  0.63103878  0.46911251  0.63600034  1
  Zn  Zn75  1  0.50056272  0.87738983  0.37246470  1
  Zn  Zn76  1  0.25533538  0.74632323  0.47687123  1
  Zn  Zn77  1  0.12732248  0.75738359  0.90177697  1
  Zn  Zn78  1  0.44570121  0.19027551  0.18496232  1
  Zn  Zn79  1  -0.01496730  0.86350839  0.86671834  1
  Zn  Zn80  1  0.37922601  0.60413658  0.25511475  1
  Zn  Zn81  1  0.37573773  0.87244520  0.49455387  1
  Zn  Zn82  1  0.15555749  0.19750823  0.17004586  1
  Zn  Zn83  1  0.17945271  0.18843035  0.69926276  1
  Zn  Zn84  1  0.19607759  0.68279441  0.21506683  1
  Zn  Zn85  1  0.18781790  0.67722426  0.68263442  1
  Zn  Zn86  1  0.63617296  0.22255302  0.16082329  1
  Zn  Zn87  1  0.69383756  0.18957687  0.67952317  1
  Zn  Zn88  1  0.70630312  0.68823125  0.20688039  1
  Zn  Zn89  1  0.69617343  0.68096413  0.68843266  1
  Zn  Zn90  1  0.27031245  0.26730508  0.25371290  1
  Zn  Zn91  1  0.29962834  0.32235722  0.81094898  1
  Zn  Zn92  1  0.32115985  0.82469865  0.30146335  1
  Zn  Zn93  1  0.30742536  0.81459537  0.81095287  1
  Zn  Zn94  1  0.80958552  0.31579639  0.31073819  1
  Zn  Zn95  1  0.82264206  0.31297289  0.80713596  1
  Zn  Zn96  1  0.81586373  0.81719641  0.31536818  1
  Zn  Zn97  1  0.80801640  0.80104413  0.81530888  1
  Zn  Zn98  1  0.18480519  0.43192821  0.44386429  1
  Zn  Zn99  1  0.17987483  0.44287973  0.94460295  1
  Zn  Zn100  1  0.18876126  0.94198697  0.43471878  1
  Zn  Zn101  1  0.18792379  0.93920834  0.93574867  1
  Zn  Zn102  1  0.67874376  0.44216687  0.45614130  1
  Zn  Zn103  1  0.70056754  0.41748055  0.87944085  1
  Zn  Zn104  1  0.69443793  0.93450248  0.43404116  1
  Zn  Zn105  1  0.69298989  0.93161353  0.93377358  1
  Zn  Zn106  1  0.31254809  0.05850671  0.05880838  1
  Zn  Zn107  1  0.31299865  0.06466737  0.55566140  1
  Zn  Zn108  1  0.30821471  0.56955540  0.06504030  1
  Zn  Zn109  1  0.31274922  0.56333601  0.55380361  1
  Zn  Zn110  1  0.81340953  0.06482405  0.06190681  1
  Zn  Zn111  1  0.81704660  0.06228870  0.56001611  1
  Zn  Zn112  1  0.81603293  0.55681598  0.05583798  1
  Zn  Zn113  1  0.81645593  0.56183465  0.56821409  1
  Zn  Zn114  1  0.41427976  0.38161154  0.23603514  1
  Zn  Zn115  1  0.43253795  0.43140608  0.68484748  1
  Zn  Zn116  1  0.45375074  0.98205238  0.20252218  1
  Zn  Zn117  1  0.44029535  0.94119470  0.68475211  1
  Zn  Zn118  1  0.92971673  0.42926378  0.18175186  1
  Zn  Zn119  1  0.94111461  0.44010103  0.68874577  1
  Zn  Zn120  1  0.94817239  0.91268937  0.17899052  1
  Zn  Zn121  1  0.93941439  0.93612469  0.68448632  1
  Zn  Zn122  1  0.06276178  0.06371931  0.31142785  1
  Zn  Zn123  1  0.06627278  0.05779531  0.81207850  1
  Zn  Zn124  1  0.06070273  0.55600619  0.30468050  1
  Zn  Zn125  1  0.04353755  0.56242313  0.82866009  1
  Zn  Zn126  1  0.56267260  0.07447878  0.30902116  1
  Zn  Zn127  1  0.56648752  0.05542481  0.80951199  1
  Zn  Zn128  1  0.56526186  0.55874440  0.31767544  1
  Zn  Zn129  1  0.56136103  0.56178196  0.79749949  1
  Zn  Zn130  1  0.39754878  0.22516638  0.36334063  1
  Zn  Zn131  1  0.44054581  0.18716033  0.94287754  1
  Zn  Zn132  1  0.43993363  0.69187389  0.44195444  1
  Zn  Zn133  1  0.41986645  0.70082058  0.92409601  1
  Zn  Zn134  1  0.94064090  0.18402718  0.43675781  1
  Zn  Zn135  1  0.92891515  0.19100544  0.94900750  1
  Zn  Zn136  1  0.93536688  0.68424223  0.43406038  1
  Zn  Zn137  1  0.95626978  0.67270538  0.93854603  1
  Zn  Zn138  1  0.06392384  0.30789399  0.05053253  1
  Zn  Zn139  1  0.06523428  0.32100535  0.57235782  1
  Zn  Zn140  1  0.05638794  0.80644677  0.07143721  1
  Zn  Zn141  1  0.06574177  0.81168904  0.55626444  1
  Zn  Zn142  1  0.52126607  0.33147765  0.06431854  1
  Zn  Zn143  1  0.55825581  0.30827746  0.56588917  1
  Zn  Zn144  1  0.56283872  0.81830453  0.06222632  1
  Zn  Zn145  1  0.56524819  0.81160424  0.56377091  1
  O  O146  1  0.10972851  0.10554909  0.12412520  1
  O  O147  1  0.11652361  0.11682834  0.63395450  1
  O  O148  1  0.13949169  0.62156466  0.13562469  1
  O  O149  1  0.10951049  0.63554525  0.60753147  1
  O  O150  1  0.63621762  0.11312207  0.10444098  1
  O  O151  1  0.62891405  0.11049519  0.61698914  1
  O  O152  1  0.63423409  0.62584475  0.11841130  1
  O  O153  1  0.60696265  0.63442070  0.63303540  1
  O  O154  1  0.35220609  0.34009321  0.47628501  1
  O  O155  1  0.36555540  0.39477453  0.87419235  1
  O  O156  1  0.37977119  0.89097550  0.37593759  1
  O  O157  1  0.38259105  0.87831195  0.88149709  1
  O  O158  1  0.88436242  0.38318054  0.38430654  1
  O  O159  1  0.88068793  0.35267133  0.89643945  1
  O  O160  1  0.89195687  0.88691552  0.36799723  1
  O  O161  1  0.86695759  0.86692367  0.88881272  1
  O  O162  1  0.25301236  0.01672493  0.36958284  1
  O  O163  1  0.25608646  0.00615016  0.86658833  1
  O  O164  1  0.25736237  0.48111474  0.37496013  1
  O  O165  1  0.25849790  0.51467111  0.88088350  1
  O  O166  1  0.76421940  -0.00653286  0.36216164  1
  O  O167  1  0.74372812  0.00746894  0.85959476  1
  O  O168  1  0.76171152  0.49373143  0.38828286  1
  O  O169  1  0.75078386  0.52035032  0.86600414  1
  O  O170  1  0.25751454  0.48598376  0.12460821  1
  O  O171  1  0.23694356  0.50545556  0.62180662  1
  O  O172  1  0.23771612  1.00693980  0.13254233  1
  O  O173  1  0.24530691  0.99271936  0.62673823  1
  O  O174  1  0.74883536  0.49557113  0.13366689  1
  O  O175  1  0.74986374  0.50636250  0.64007958  1
  O  O176  1  0.74716478  0.99597359  0.13366418  1
  O  O177  1  0.74870315  0.99172799  0.62901540  1
  O  O178  1  0.00764103  0.38523149  0.26266335  1
  O  O179  1  0.00677948  0.36988526  0.75075805  1
  O  O180  1  0.01655723  0.88710484  0.26877058  1
  O  O181  1  0.01640360  0.88350893  0.75187725  1
  O  O182  1  0.52197720  0.39593716  0.26673665  1
  O  O183  1  0.47016697  0.35949874  0.76791703  1
  O  O184  1  0.51848874  0.87563416  0.24691474  1
  O  O185  1  0.51278936  0.88429492  0.75823133  1
  O  O186  1  0.48766431  0.09262149  0.22958393  1
  O  O187  1  0.50704722  0.11046310  0.73194816  1
  O  O188  1  0.49405205  0.64026818  0.26169348  1
  O  O189  1  0.47952573  0.62561510  0.73716138  1
  O  O190  1  0.99574567  0.11697903  0.23428844  1
  O  O191  1  0.99138801  0.11372173  0.73913750  1
  O  O192  1  0.98069684  0.61503312  0.25207550  1
  O  O193  1  1.00989372  0.62013269  0.73137217  1
  O  O194  1  0.37069876  0.21308991  0.03064652  1
  O  O195  1  0.36777101  0.26968485  0.48961727  1
  O  O196  1  0.38374483  0.75913914  0.01458374  1
  O  O197  1  0.36946394  0.75336322  0.51554559  1
  O  O198  1  0.86796012  0.25756545  0.01683913  1
  O  O199  1  0.87174290  0.25424495  0.50349892  1
  O  O200  1  0.88206262  0.75759103  0.00592446  1
  O  O201  1  0.86246509  0.74853198  0.50009710  1
  O  O202  1  0.17067014  0.29127171  0.52479295  1
  O  O203  1  0.13786369  0.24977987  0.98114831  1
  O  O204  1  0.13170607  0.74312028  0.48986814  1
  O  O205  1  0.13146245  0.73926225  1.01856787  1
  O  O206  1  0.63312907  0.24003479  0.49208949  1
  O  O207  1  0.62477010  0.23163620  0.98508126  1
  O  O208  1  0.63430731  0.75310407  0.49149236  1
  O  O209  1  0.61873303  0.74717355  0.99050236  1
  O  O210  1  0.52927362  0.24110552  0.12712649  1
  O  O211  1  0.49788974  0.22689454  0.61662223  1
  O  O212  1  0.51423101  0.74716804  0.13956922  1
  O  O213  1  0.48673782  0.74539708  0.62257896  1
  O  O214  1  1.01506756  0.22840232  0.11893380  1
  O  O215  1  0.99381511  0.23742190  0.61239074  1
  O  O216  1  0.98044489  0.80069214  0.15265442  1
  O  O217  1  0.99015640  0.74469781  0.61642162  1
  O  O218  1  -0.00639603  0.26536006  0.37896515  1
  O  O219  1  0.01072282  0.24008296  0.88240900  1
  O  O220  1  -0.00430434  0.76508252  0.38013578  1
  O  O221  1  0.01469429  0.75450067  0.88456409  1
  O  O222  1  0.50986719  0.25024191  0.38158257  1
  O  O223  1  0.50980693  0.23090008  0.86309090  1
  O  O224  1  0.51462920  0.75725146  0.36994177  1
  O  O225  1  0.50534909  0.76073594  0.87588660  1
  O  O226  1  0.24457564  0.12684830  0.49054615  1
  O  O227  1  0.24363914  0.11458651  0.98264117  1
  O  O228  1  0.23327037  0.62559007  0.49898024  1
  O  O229  1  0.23525151  0.62343673  0.98903572  1
  O  O230  1  0.74192842  0.12979794  0.50232936  1
  O  O231  1  0.73993427  0.11354782  0.98271548  1
  O  O232  1  0.75026834  0.63647329  0.50469000  1
  O  O233  1  0.75276343  0.61930441  0.98446511  1
  O  O234  1  0.24845341  0.37320851  0.01225639  1
  O  O235  1  0.21781827  0.35939125  0.53064870  1
  O  O236  1  0.26807891  0.88051969  -0.00354281  1
  O  O237  1  0.25019865  0.87285471  0.50739323  1
  O  O238  1  0.74795326  0.37769663  -0.01927913  1
  O  O239  1  0.76569121  0.36722571  0.49994078  1
  O  O240  1  0.75807359  0.87406752  0.00931524  1
  O  O241  1  0.74765648  0.86735701  0.51301318  1
  O  O242  1  0.13989305  0.48386895  0.26193097  1
  O  O243  1  0.10899233  0.48670677  0.77521433  1
  O  O244  1  0.13503181  0.99787795  0.24477257  1
  O  O245  1  0.13501082  0.99189304  0.73829811  1
  O  O246  1  0.63968215  0.49612836  0.25704053  1
  O  O247  1  0.63664601  0.49673802  0.74769210  1
  O  O248  1  0.63930128  0.99607001  0.24272304  1
  O  O249  1  0.63859363  0.98954212  0.73926932  1
  O  O250  1  0.35362362  -0.00679912  0.25550035  1
  O  O251  1  0.36609011  -0.01278517  0.75995518  1
  O  O252  1  0.36342917  0.48453666  0.25769294  1
  O  O253  1  0.36925419  0.51342177  0.75469704  1
  O  O254  1  0.86723636  -0.00487658  0.25499128  1
  O  O255  1  0.86798195  0.00773757  0.74265156  1
  O  O256  1  0.86210792  0.49274724  0.26233552  1
  O  O257  1  0.86920413  0.50674201  0.74435873  1
  O  O258  1  0.10815663  0.37463780  0.37869188  1
  O  O259  1  0.13160082  0.36207822  0.87159530  1
  O  O260  1  0.11557780  0.88206139  0.36961286  1
  O  O261  1  0.13677081  0.87122893  0.85809962  1
  O  O262  1  0.62627189  0.36153259  0.39037061  1
  O  O263  1  0.60355671  0.35556064  0.86783818  1
  O  O264  1  0.62881722  0.86960598  0.36431848  1
  O  O265  1  0.62095172  0.86326819  0.86759421  1
  O  O266  1  0.37654596  0.15049783  0.09171906  1
  O  O267  1  0.39004304  0.10764209  0.62449320  1
  O  O268  1  0.37431863  0.64154227  0.13166279  1
  O  O269  1  0.36961561  0.63706566  0.63434481  1
  O  O270  1  0.88175630  0.13980975  0.11961329  1
  O  O271  1  0.88480163  0.12992501  0.63024003  1
  O  O272  1  0.86622552  0.62149330  0.13717840  1
  O  O273  1  0.88934958  0.63932286  0.61783218  1
  O  O274  1  0.24250273  0.26766036  0.13247973  1
  O  O275  1  0.28376010  0.24149879  0.65787340  1
  O  O276  1  0.26645249  0.75438835  0.14329100  1
  O  O277  1  0.25705781  0.76067761  0.62554615  1
  O  O278  1  0.74465607  0.24244924  0.12916742  1
  O  O279  1  0.76752420  0.24361236  0.61052076  1
  O  O280  1  0.74271027  0.76075009  0.12605091  1
  O  O281  1  0.76201847  0.75212581  0.61593866  1
  O  O282  1  0.26930861  0.22751831  0.36443864  1
  O  O283  1  0.26990922  0.23177264  0.87820974  1
  O  O284  1  0.29112234  0.72524116  0.36121206  1
  O  O285  1  0.25111563  0.73855887  0.87797668  1
  O  O286  1  0.74994324  0.25153275  0.38829511  1
  O  O287  1  0.73429383  0.23606818  0.86076312  1
  O  O288  1  0.74111726  0.75805628  0.38806802  1
  O  O289  1  0.72789243  0.73740279  0.86977030  1
  O  O290  1  -0.00805049  0.10687633  0.00695379  1
  O  O291  1  -0.00264398  0.11237370  0.51033956  1
  O  O292  1  0.01690017  0.63693016  0.03586959  1
  O  O293  1  0.00756046  0.61735490  0.49870879  1
  O  O294  1  0.51957513  0.10776792  -0.01294945  1
  O  O295  1  0.51786576  0.10767051  0.51240007  1
  O  O296  1  0.53272701  0.56762200  0.00366806  1
  O  O297  1  0.49362716  0.62421839  0.51894615  1
  O  O298  1  0.49445310  0.38401829  0.50925855  1
  O  O299  1  0.47788278  0.35046452  0.96506630  1
  O  O300  1  0.50404024  0.88786497  0.49902159  1
  O  O301  1  0.49675989  0.88152068  0.98679929  1
  O  O302  1  0.99649095  0.38598309  0.49544027  1
  O  O303  1  1.01392543  0.39168497  0.99010032  1
  O  O304  1  1.00742051  0.88788080  0.48766797  1
  O  O305  1  0.98289552  0.88332304  1.00305792  1
  O  O306  1  0.50630589  0.50615686  0.39588917  1
  O  O307  1  0.48732284  0.48859676  0.86540587  1
  O  O308  1  0.49658482  1.00110151  0.38049505  1
  O  O309  1  0.49587066  0.98990870  0.87872361  1
  O  O310  1  0.98954407  0.49298072  0.38793941  1
  O  O311  1  0.97832093  0.54990496  0.91770899  1
  O  O312  1  0.99155785  1.00059410  0.38095975  1
  O  O313  1  1.00839423  0.99254285  0.88907820  1
  O  O314  1  0.00319469  0.00302623  0.11703888  1
  O  O315  1  0.00603578  0.00498169  0.61616652  1
  O  O316  1  -0.01039553  0.49770877  0.11128689  1
  O  O317  1  -0.00900849  0.51490368  0.60865810  1
  O  O318  1  0.51787321  -0.01346465  0.10802524  1
  O  O319  1  0.51522795  -0.00211170  0.61652397  1
  O  O320  1  0.57991350  0.58268124  0.14395977  1
  O  O321  1  0.49714691  0.51096263  0.62740408  1
  O  O322  1  0.24082214  0.38497178  0.23292303  1
  O  O323  1  0.23467437  0.39013636  0.74734600  1
  O  O324  1  0.23582445  0.89164539  0.26286127  1
  O  O325  1  0.24198360  0.88352958  0.73876666  1
  O  O326  1  0.73684367  0.38912723  0.25681854  1
  O  O327  1  0.75547782  0.39822550  0.77404658  1
  O  O328  1  0.74384258  0.87609928  0.23754551  1
  O  O329  1  0.74719793  0.87862166  0.74090500  1
  O  O330  1  0.24285355  0.11610837  0.25130459  1
  O  O331  1  0.24981537  0.11020378  0.75755793  1
  O  O332  1  0.25729239  0.59678459  0.25535201  1
  O  O333  1  0.26045339  0.63048237  0.76009044  1
  O  O334  1  0.75081332  0.11128483  0.24757447  1
  O  O335  1  0.76080105  0.11544683  0.75087597  1
  O  O336  1  0.76039596  0.60288211  0.25600138  1
  O  O337  1  0.74969045  0.61677433  0.76198075  1
  O  O338  1  0.37445422  0.11161956  0.37728524  1
  O  O339  1  0.36962572  0.10707723  0.88146196  1
  O  O340  1  0.35743051  0.66873802  0.36146652  1
  O  O341  1  0.36918005  0.62008207  0.86482891  1
  O  O342  1  0.87933096  0.11121717  0.37040149  1
  O  O343  1  0.86731496  0.13462186  0.86297882  1
  O  O344  1  0.87570103  0.60660419  0.37169376  1
  O  O345  1  0.86224833  0.65047117  0.87299693  1
  O  O346  1  0.11035677  0.37864472  0.13425519  1
  O  O347  1  0.12801400  0.37649897  0.65094112  1
  O  O348  1  0.11863728  0.89065930  0.14470538  1
  O  O349  1  0.13058961  0.88240857  0.63000923  1
  O  O350  1  0.60971983  0.38008036  0.13747471  1
  O  O351  1  0.63900323  0.35650070  0.62421605  1
  O  O352  1  0.63817314  0.88507790  0.12765417  1
  O  O353  1  0.63539669  0.88150205  0.62917441  1
  O  O354  1  0.13562643  0.27474653  0.25478308  1
  O  O355  1  0.13066137  0.26077501  0.76990951  1
  O  O356  1  0.13428574  0.76765878  0.25499580  1
  O  O357  1  0.12979089  0.76524588  0.73899004  1
  O  O358  1  0.63003632  0.27097984  0.26836582  1
  O  O359  1  0.62125431  0.24078692  0.75023185  1
  O  O360  1  0.62184052  0.75501363  0.26019197  1
  O  O361  1  0.62916178  0.76263567  0.74532417  1
  O  O362  1  0.38861596  0.26793316  0.25581832  1
  O  O363  1  0.33658241  0.24707455  0.71302314  1
  O  O364  1  0.39810009  0.76861495  0.23222908  1
  O  O365  1  0.37187717  0.74793946  0.73807442  1
  O  O366  1  0.86898463  0.25814828  0.23275451  1
  O  O367  1  0.87244630  0.23760087  0.73615109  1
  O  O368  1  0.86083531  0.73018084  0.25808671  1
  O  O369  1  0.87480776  0.74951171  0.73526769  1
  O  O370  1  0.39147457  0.50392023  0.50490175  1
  O  O371  1  0.37912114  0.51525550  0.98731455  1
  O  O372  1  0.38572615  0.99667525  0.49140807  1
  O  O373  1  0.38603823  0.98906280  0.99435961  1
  O  O374  1  0.88098685  0.49432260  0.49403558  1
  O  O375  1  0.87923613  0.47273878  1.00691116  1
  O  O376  1  0.88165931  1.00030230  0.48525938  1
  O  O377  1  0.88159890  0.99417867  0.99839094  1
  O  O378  1  0.11523508  -0.01625784  0.01332788  1
  O  O379  1  0.11818444  -0.00161352  0.51223384  1
  O  O380  1  0.11197346  0.52063534  0.00002929  1
  O  O381  1  0.11151900  0.50815299  0.49746378  1
  O  O382  1  0.62411411  -0.00187091  0.00196576  1
  O  O383  1  0.62700158  0.00239637  0.50251647  1
  O  O384  1  0.59157818  0.52537126  -0.00318073  1
  O  O385  1  0.60797459  0.49554470  0.52356568  1
  O  O386  1  0.37464645  0.37324946  0.12127362  1
  O  O387  1  0.34188253  0.38614781  0.63125474  1
  O  O388  1  0.38204586  0.87094648  0.11053039  1
  O  O389  1  0.36902009  0.86678265  0.62624191  1
  O  O390  1  0.86699118  0.35879624  0.11458696  1
  O  O391  1  0.88973962  0.36282684  0.61428332  1
  O  O392  1  0.85725167  0.87930331  0.11479401  1
  O  O393  1  0.87064640  0.86260082  0.62563343  1
  O  O394  1  0.13192534  0.13060354  0.37471952  1
  O  O395  1  0.13990726  0.13621671  0.86406351  1
  O  O396  1  0.11806133  0.62257347  0.38338324  1
  O  O397  1  0.13665582  0.63136221  0.86585959  1
  O  O398  1  0.62438095  0.13677883  0.38192666  1
  O  O399  1  0.63206196  0.12736156  0.87501925  1
  O  O400  1  0.62791010  0.64267076  0.37200968  1
  O  O401  1  0.60690453  0.63958872  0.87144213  1
