# generated using pymatgen
data_V73Zn73O256
_symmetry_space_group_name_H-M   'P 1'
_cell_length_a   16.98125711
_cell_length_b   16.90702615
_cell_length_c   16.86297571
_cell_angle_alpha   90.29452824
_cell_angle_beta   90.29498819
_cell_angle_gamma   90.24710013
_symmetry_Int_Tables_number   1
_chemical_formula_structural   V73Zn73O256
_chemical_formula_sum   'V73 Zn73 O256'
_cell_volume   4841.22975229
_cell_formula_units_Z   1
loop_
 _symmetry_equiv_pos_site_id
 _symmetry_equiv_pos_as_xyz
  1  'x, y, z'
loop_
 _atom_site_type_symbol
 _atom_site_label
 _atom_site_symmetry_multiplicity
 _atom_site_fract_x
 _atom_site_fract_y
 _atom_site_fract_z
 _atom_site_occupancy
  V  V0  1  0.62074574  0.11790431  0.52477030  1
  V  V1  1  0.62946373  0.25124815  0.88006210  1
  V  V2  1  0.37125787  0.88124843  -0.00548301  1
  V  V3  1  0.25622726  0.37605719  0.62450012  1
  V  V4  1  0.12937352  0.37966679  0.74925664  1
  V  V5  1  0.49603767  -0.00896120  0.51458514  1
  V  V6  1  0.12981713  0.24328462  0.88146030  1
  V  V7  1  0.74818163  0.50187189  0.74438659  1
  V  V8  1  0.37193592  0.37560927  0.00097796  1
  V  V9  1  0.87604795  0.12176411  0.75037302  1
  V  V10  1  0.87848783  0.50258015  0.87017577  1
  V  V11  1  0.87208941  0.24595501  0.61953693  1
  V  V12  1  0.11178538  -0.00481069  0.14444888  1
  V  V13  1  0.75440537  0.62752847  0.87412876  1
  V  V14  1  0.37353540  0.11400974  0.26805693  1
  V  V15  1  0.12726708  0.50018405  0.62343871  1
  V  V16  1  0.00990600  0.62172351  0.13138061  1
  V  V17  1  0.88110947  0.13296426  0.24041912  1
  V  V18  1  0.36676905  0.75884288  0.62220025  1
  V  V19  1  0.73917073  -0.00897568  0.74937579  1
  V  V20  1  0.73568787  0.12509356  0.37246786  1
  V  V21  1  0.49660446  0.63095956  0.13722098  1
  V  V22  1  0.09584934  0.12753907  0.50157298  1
  V  V23  1  0.37586548  0.50058646  0.36400076  1
  V  V24  1  0.62447759  0.37243123  0.75005708  1
  V  V25  1  0.88309586  0.64244987  0.74827380  1
  V  V26  1  0.60849593  -0.00425542  0.12076376  1
  V  V27  1  0.00401533  0.75627016  0.26182695  1
  V  V28  1  0.01171974  0.50528292  0.00471344  1
  V  V29  1  0.36464711  0.61238839  0.75174446  1
  V  V30  1  0.37879523  0.23688185  0.12974484  1
  V  V31  1  0.25472780  0.62229103  0.36210540  1
  V  V32  1  0.88536932  -0.00107874  0.88071389  1
  V  V33  1  0.09839800  0.87575082  0.75015952  1
  V  V34  1  0.74126251  0.87391811  0.62506357  1
  V  V35  1  0.61774382  0.76190537  0.87635320  1
  V  V36  1  0.25900025  0.23708284  0.49550569  1
  V  V37  1  0.74332144  0.87588758  0.12693093  1
  V  V38  1  0.87512534  0.48502497  0.35973282  1
  V  V39  1  0.86336435  0.36535431  0.00461628  1
  V  V40  1  0.64144078  0.36861730  0.24612018  1
  V  V41  1  0.00105213  0.63739227  0.62639165  1
  V  V42  1  0.76142813  0.75133403  0.50359213  1
  V  V43  1  0.74198220  -0.00324339  0.24859289  1
  V  V44  1  -0.00210077  0.24631160  0.74543404  1
  V  V45  1  0.87473698  0.74456701  0.12865599  1
  V  V46  1  0.74912261  0.12583194  0.88375510  1
  V  V47  1  0.00098763  0.37744850  0.87330017  1
  V  V48  1  0.60715190  0.12118551  0.00467136  1
  V  V49  1  0.08083382  0.00499830  0.62309093  1
  V  V50  1  0.14110918  0.62794412  0.50187529  1
  V  V51  1  0.88277283  0.88279513  -0.00382280  1
  V  V52  1  0.51183037  0.50665034  0.50784582  1
  V  V53  1  0.12393004  0.39044289  0.25374758  1
  V  V54  1  0.50652809  0.73823863  0.73984704  1
  V  V55  1  0.39579748  0.36576762  0.51359227  1
  V  V56  1  0.74992196  0.37570223  0.62333801  1
  V  V57  1  0.74171239  0.25024463  0.49642542  1
  V  V58  1  0.49043321  0.87770726  0.36886317  1
  V  V59  1  0.49960247  0.37450290  0.87496090  1
  V  V60  1  0.23640621  0.62175479  0.89279144  1
  V  V61  1  0.62712612  0.62915405  0.51526545  1
  V  V62  1  0.49830406  0.49753874  0.00022537  1
  V  V63  1  0.61730101  0.75457734  0.36464447  1
  V  V64  1  0.64012124  0.49607259  0.13272406  1
  V  V65  1  0.50671972  0.37125493  0.36337401  1
  V  V66  1  0.87222791  -0.01033147  0.38188403  1
  V  V67  1  0.24473988  0.86791635  0.12831672  1
  V  V68  1  0.11697954  0.10653423  0.01850064  1
  V  V69  1  0.75068880  0.75208329  -0.00349814  1
  V  V70  1  0.11383138  0.25091478  0.36772035  1
  V  V71  1  0.62620984  0.62237310  -0.00048252  1
  V  V72  1  0.25159025  0.38383797  0.13948551  1
  Zn  Zn73  1  0.24935567  0.24343561  0.00269161  1
  Zn  Zn74  1  0.48794288  0.89998132  0.87584496  1
  Zn  Zn75  1  0.75003223  0.61289945  0.35553047  1
  Zn  Zn76  1  0.51068612  0.23503507  0.24593612  1
  Zn  Zn77  1  -0.00090994  0.48638634  0.48768371  1
  Zn  Zn78  1  0.15103514  0.76831018  0.37499415  1
  Zn  Zn79  1  0.36454104  0.74415442  0.12471489  1
  Zn  Zn80  1  -0.00603107  0.87487982  0.38764985  1
  Zn  Zn81  1  0.24889830  -0.00518189  0.26266156  1
  Zn  Zn82  1  0.19518364  0.18550385  0.18788982  1
  Zn  Zn83  1  0.17442163  0.19711882  0.67267647  1
  Zn  Zn84  1  0.18289931  0.68666603  0.19305610  1
  Zn  Zn85  1  0.19524613  0.69683396  0.69673869  1
  Zn  Zn86  1  0.69370218  0.18619470  0.18206706  1
  Zn  Zn87  1  0.69105931  0.18907961  0.69623770  1
  Zn  Zn88  1  0.68643124  0.68465191  0.18906973  1
  Zn  Zn89  1  0.69290901  0.69165388  0.69018800  1
  Zn  Zn90  1  0.31321808  0.30546094  0.31865619  1
  Zn  Zn91  1  0.30935357  0.32092760  0.81741587  1
  Zn  Zn92  1  0.32265765  0.80679739  0.30599855  1
  Zn  Zn93  1  0.33568019  0.76880557  0.83484605  1
  Zn  Zn94  1  0.81892495  0.31270424  0.31724081  1
  Zn  Zn95  1  0.81176447  0.31203076  0.81512261  1
  Zn  Zn96  1  0.79937898  0.78930484  0.30583004  1
  Zn  Zn97  1  0.88966309  0.85716419  0.74453580  1
  Zn  Zn98  1  0.19393453  0.43468830  0.43960091  1
  Zn  Zn99  1  0.19432484  0.44263147  0.93696154  1
  Zn  Zn100  1  0.16437646  0.95157465  0.43164813  1
  Zn  Zn101  1  0.18989091  0.82580864  0.92296046  1
  Zn  Zn102  1  0.69344559  0.44084077  0.43374505  1
  Zn  Zn103  1  0.68821895  0.44261626  0.93616115  1
  Zn  Zn104  1  0.68251344  0.93536124  0.44018402  1
  Zn  Zn105  1  0.69173172  0.94090632  0.93866056  1
  Zn  Zn106  1  0.29400175  0.05365063  0.05956837  1
  Zn  Zn107  1  0.31564904  0.05199455  0.44113712  1
  Zn  Zn108  1  0.31071067  0.56304755  0.06109055  1
  Zn  Zn109  1  0.32290957  0.55825747  0.56568584  1
  Zn  Zn110  1  0.80683019  0.06824410  0.06520304  1
  Zn  Zn111  1  0.80383992  0.06480189  0.56503193  1
  Zn  Zn112  1  0.82063073  0.55769200  0.06169605  1
  Zn  Zn113  1  0.81621119  0.56568846  0.56004904  1
  Zn  Zn114  1  0.44126751  0.43987743  0.18113830  1
  Zn  Zn115  1  0.44547919  0.44415900  0.69005714  1
  Zn  Zn116  1  0.42873136  0.92868979  0.18993732  1
  Zn  Zn117  1  0.46397572  0.93031347  0.70473555  1
  Zn  Zn118  1  0.93871243  0.42146075  0.18441990  1
  Zn  Zn119  1  0.95573268  0.41849627  0.64980221  1
  Zn  Zn120  1  0.92732616  0.93210779  0.19840393  1
  Zn  Zn121  1  0.91475065  0.92196148  0.55794538  1
  Zn  Zn122  1  0.05689700  0.06487281  0.31827904  1
  Zn  Zn123  1  0.06504515  0.05973144  0.81519801  1
  Zn  Zn124  1  0.05773670  0.56512232  0.31614220  1
  Zn  Zn125  1  0.06537583  0.56581636  0.80821421  1
  Zn  Zn126  1  0.55322869  0.05252453  0.31105038  1
  Zn  Zn127  1  0.55995772  0.05622465  0.82145128  1
  Zn  Zn128  1  0.56790501  0.56443419  0.31900706  1
  Zn  Zn129  1  0.56194879  0.56072270  0.81230259  1
  Zn  Zn130  1  0.45023782  0.18657559  0.44027743  1
  Zn  Zn131  1  0.44047113  0.19672762  0.93888076  1
  Zn  Zn132  1  0.43763649  0.68899746  0.43710794  1
  Zn  Zn133  1  0.43019665  0.68494927  0.94872589  1
  Zn  Zn134  1  0.92546152  0.19116220  0.42291946  1
  Zn  Zn135  1  0.94240783  0.18593728  0.94168197  1
  Zn  Zn136  1  0.93920701  0.67015677  0.44393646  1
  Zn  Zn137  1  0.94245904  0.68910909  0.94286528  1
  Zn  Zn138  1  0.06060441  0.31739643  0.06626570  1
  Zn  Zn139  1  0.06304763  0.31146938  0.55270958  1
  Zn  Zn140  1  0.05769971  0.81783225  0.07236508  1
  Zn  Zn141  1  0.06889865  0.81894386  0.54570686  1
  Zn  Zn142  1  0.56543323  0.30909394  0.06513908  1
  Zn  Zn143  1  0.57180624  0.31949730  0.55441359  1
  Zn  Zn144  1  0.55068028  0.81569494  0.05507714  1
  Zn  Zn145  1  0.56378686  0.81547573  0.56261097  1
  O  O146  1  0.12397497  0.11104046  0.12759543  1
  O  O147  1  0.11545059  0.11836345  0.61347421  1
  O  O148  1  0.10820464  0.63012370  0.12305185  1
  O  O149  1  0.12724400  0.61884551  0.62067873  1
  O  O150  1  0.61896814  0.11291624  0.11168718  1
  O  O151  1  0.62592385  0.12553699  0.62459184  1
  O  O152  1  0.62290354  0.61460382  0.11781201  1
  O  O153  1  0.62906051  0.62527115  0.61500747  1
  O  O154  1  0.38950348  0.38186909  0.38565934  1
  O  O155  1  0.38741453  0.36743583  0.88670126  1
  O  O156  1  0.39114392  0.86362688  0.38041794  1
  O  O157  1  0.36743657  0.86421933  0.88857933  1
  O  O158  1  0.87170061  0.38507824  0.38434788  1
  O  O159  1  0.88714755  0.38382046  0.87034100  1
  O  O160  1  0.86000455  0.88930356  0.36551020  1
  O  O161  1  0.87389391  0.88969968  0.88565924  1
  O  O162  1  0.24912863  -0.00967018  0.37772642  1
  O  O163  1  0.27739116  0.03435572  0.85267510  1
  O  O164  1  0.26933999  0.50330110  0.38339900  1
  O  O165  1  0.25616128  0.51797623  0.88236838  1
  O  O166  1  0.74698889  0.00351474  0.36560922  1
  O  O167  1  0.75519962  0.00770807  0.86841074  1
  O  O168  1  0.76202787  0.49902303  0.36922738  1
  O  O169  1  0.75963683  0.50916796  0.86743396  1
  O  O170  1  0.26100892  0.48283403  0.12635058  1
  O  O171  1  0.23912197  0.48578710  0.61813119  1
  O  O172  1  0.23416343  0.98761941  0.13417238  1
  O  O173  1  0.26615361  0.93938190  0.60755736  1
  O  O174  1  0.73821643  0.50587084  0.12091960  1
  O  O175  1  0.76112283  0.49016369  0.63512961  1
  O  O176  1  0.74256449  0.99193272  0.13015152  1
  O  O177  1  0.75087052  0.99318048  0.63997041  1
  O  O178  1  0.02507091  0.37075095  0.24000264  1
  O  O179  1  0.00842976  0.36836907  0.75381437  1
  O  O180  1  -0.00216823  0.86069545  0.26303010  1
  O  O181  1  -0.00065366  0.87285604  0.76523006  1
  O  O182  1  0.50409578  0.37597771  0.25723361  1
  O  O183  1  0.51440212  0.38625401  0.76149338  1
  O  O184  1  0.49954754  0.88347358  0.26768327  1
  O  O185  1  0.50152294  0.83754506  0.77099168  1
  O  O186  1  0.48332729  0.12452068  0.25495075  1
  O  O187  1  0.42588723  0.17129076  0.65024307  1
  O  O188  1  0.50774711  0.61556862  0.23532656  1
  O  O189  1  0.49142396  0.63209663  0.76350661  1
  O  O190  1  0.97871139  0.12206523  0.26082910  1
  O  O191  1  0.98632922  0.13586834  0.76179078  1
  O  O192  1  0.99896781  0.62998859  0.23591550  1
  O  O193  1  0.99615421  0.62651594  0.74038583  1
  O  O194  1  0.37273476  0.25727472  0.00865524  1
  O  O195  1  0.36261016  0.25284032  0.48407144  1
  O  O196  1  0.38052083  0.76346553  0.01350857  1
  O  O197  1  0.38940450  0.74057655  0.52442158  1
  O  O198  1  0.88181540  0.26713147  -0.01071003  1
  O  O199  1  0.85905164  0.23789608  0.51227558  1
  O  O200  1  0.86790871  0.76262285  0.00163187  1
  O  O201  1  0.85832736  0.73995340  0.49686413  1
  O  O202  1  0.13113391  0.23937220  0.49757073  1
  O  O203  1  0.12244908  0.26181772  0.98570090  1
  O  O204  1  0.13126187  0.72866264  0.50117941  1
  O  O205  1  0.08997093  0.76511921  0.96934091  1
  O  O206  1  0.63215975  0.23412712  0.50610063  1
  O  O207  1  0.62040584  0.23364779  0.99385194  1
  O  O208  1  0.62454707  0.73666708  0.49874162  1
  O  O209  1  0.63290502  0.74149460  0.99567864  1
  O  O210  1  0.48296559  0.25511038  0.12666681  1
  O  O211  1  0.46015667  0.31291860  0.57571769  1
  O  O212  1  0.51511602  0.73072649  0.12243082  1
  O  O213  1  0.51300370  0.74306266  0.63972483  1
  O  O214  1  0.99400386  0.28313968  0.14684078  1
  O  O215  1  0.98836138  0.25400299  0.63884939  1
  O  O216  1  0.99524472  0.74164384  0.13299384  1
  O  O217  1  1.01190493  0.73464721  0.62103546  1
  O  O218  1  0.01419048  0.25486253  0.38196799  1
  O  O219  1  0.00799321  0.26147582  0.86564224  1
  O  O220  1  -0.01468784  0.73656650  0.36030157  1
  O  O221  1  0.03237865  0.76026699  0.91333169  1
  O  O222  1  0.50076044  0.26901887  0.37329057  1
  O  O223  1  0.51549742  0.26522864  0.87961447  1
  O  O224  1  0.51086888  0.75805287  0.38110192  1
  O  O225  1  0.51998437  0.73887092  0.88842297  1
  O  O226  1  0.25488303  0.13697491  0.50327991  1
  O  O227  1  0.22374984  0.12917570  1.00472810  1
  O  O228  1  0.24303712  0.61478721  0.50043009  1
  O  O229  1  0.25117574  0.63027562  0.99474529  1
  O  O230  1  0.73426061  0.12928470  0.49529185  1
  O  O231  1  0.73698616  0.11832086  0.98742704  1
  O  O232  1  0.73922046  0.63760101  0.50593009  1
  O  O233  1  0.74649577  0.63263327  0.99717718  1
  O  O234  1  0.26137957  0.37393537  0.00686288  1
  O  O235  1  0.26865327  0.36984962  0.51074211  1
  O  O236  1  0.25422535  0.86707429  0.01267057  1
  O  O237  1  0.26533522  0.91144263  0.54012732  1
  O  O238  1  0.76532405  0.37644385  -0.01835507  1
  O  O239  1  0.73347762  0.36392067  0.51218997  1
  O  O240  1  0.75558958  0.86775834  0.00581466  1
  O  O241  1  0.74678114  0.86750531  0.51509647  1
  O  O242  1  0.12636590  0.48920076  0.25849417  1
  O  O243  1  0.12575584  0.48515762  0.74458005  1
  O  O244  1  0.12709491  1.00583662  0.24832710  1
  O  O245  1  0.10761693  1.00087716  0.72845375  1
  O  O246  1  0.62692604  0.49340206  0.23764228  1
  O  O247  1  0.64139897  0.49252429  0.75848021  1
  O  O248  1  0.63171031  1.00584123  0.23154181  1
  O  O249  1  0.64149586  1.00453101  0.75734096  1
  O  O250  1  0.37441428  0.01243417  0.24901033  1
  O  O251  1  0.46410082  0.12333742  0.68884039  1
  O  O252  1  0.37847579  0.49179324  0.26526222  1
  O  O253  1  0.38343245  0.51345534  0.75483813  1
  O  O254  1  0.85791127  0.00592168  0.25795927  1
  O  O255  1  0.86583596  0.00903106  0.76873511  1
  O  O256  1  0.88038249  0.48596131  0.25810231  1
  O  O257  1  0.86800388  0.50879202  0.76174717  1
  O  O258  1  0.13328236  0.36511345  0.36443524  1
  O  O259  1  0.11791713  0.37243279  0.86707496  1
  O  O260  1  0.10602118  0.85997878  0.41920534  1
  O  O261  1  0.14418311  0.89361465  0.84066306  1
  O  O262  1  0.61706527  0.38563372  0.35547754  1
  O  O263  1  0.62285982  0.36885884  0.87189409  1
  O  O264  1  0.61778090  0.86065318  0.38149723  1
  O  O265  1  0.62064365  0.86357859  0.88550445  1
  O  O266  1  0.36791460  0.13718046  0.11846700  1
  O  O267  1  0.29255720  0.07902403  0.69285488  1
  O  O268  1  0.39462689  0.62178752  0.11693510  1
  O  O269  1  0.37042779  0.62995144  0.64256066  1
  O  O270  1  0.87288124  0.11815941  0.13951359  1
  O  O271  1  0.86344887  0.13402275  0.63997202  1
  O  O272  1  0.88555165  0.63952942  0.11064810  1
  O  O273  1  0.89318528  0.62244885  0.63256158  1
  O  O274  1  0.26360166  0.26060599  0.12403481  1
  O  O275  1  0.24413583  0.26388263  0.60821380  1
  O  O276  1  0.23909348  0.76192359  0.13035577  1
  O  O277  1  0.26669929  0.75784531  0.62870814  1
  O  O278  1  0.74637750  0.23276563  0.09711614  1
  O  O279  1  0.75412777  0.25445153  0.61996681  1
  O  O280  1  0.75365084  0.75581489  0.11304890  1
  O  O281  1  0.74751762  0.75974655  0.61678534  1
  O  O282  1  0.23605647  0.25558129  0.39195837  1
  O  O283  1  0.23201393  0.25730647  0.87572388  1
  O  O284  1  0.25825826  0.72847065  0.37193113  1
  O  O285  1  0.23510351  0.73619356  0.86831723  1
  O  O286  1  0.75402136  0.24062484  0.38958255  1
  O  O287  1  0.73981430  0.23979833  0.87173073  1
  O  O288  1  0.73382468  0.76102780  0.39828421  1
  O  O289  1  0.73580222  0.74365414  0.88678666  1
  O  O290  1  0.02070319  0.13635596  0.00291420  1
  O  O291  1  -0.00160355  0.13654640  0.50068681  1
  O  O292  1  -0.00031367  0.61097993  0.00580289  1
  O  O293  1  0.01617693  0.61727711  0.51500003  1
  O  O294  1  0.50851428  0.11827399  -0.01330337  1
  O  O295  1  0.51749469  0.11796137  0.49988241  1
  O  O296  1  0.51153686  0.61422781  0.00402905  1
  O  O297  1  0.51256842  0.61358339  0.49587522  1
  O  O298  1  0.51764757  0.39457719  0.47553709  1
  O  O299  1  0.49554317  0.37913314  0.99676162  1
  O  O300  1  0.50656122  0.88593529  0.49534843  1
  O  O301  1  0.48326372  0.88164665  0.99265266  1
  O  O302  1  0.98587191  0.38696210  0.54063863  1
  O  O303  1  0.99093243  0.38706212  0.98905436  1
  O  O304  1  0.97183894  0.85050707  0.49657231  1
  O  O305  1  0.97918905  0.87961120  1.01079991  1
  O  O306  1  0.49004147  0.49828445  0.37828338  1
  O  O307  1  0.51241612  0.48704898  0.89024372  1
  O  O308  1  0.50797435  0.98445322  0.38978265  1
  O  O309  1  0.47352896  0.99132064  0.80663924  1
  O  O310  1  0.98662897  0.50138524  0.37412239  1
  O  O311  1  0.99640635  0.49567468  0.87976277  1
  O  O312  1  0.97587771  0.99691154  0.37359794  1
  O  O313  1  0.98306262  1.00983179  0.88011858  1
  O  O314  1  0.01240747  -0.01592350  0.14104461  1
  O  O315  1  -0.01692755  0.00515062  0.61715498  1
  O  O316  1  -0.00717907  0.51038430  0.11376112  1
  O  O317  1  0.01993931  0.51358370  0.63371765  1
  O  O318  1  0.51186491  -0.01218885  0.12814296  1
  O  O319  1  0.50869947  -0.01220897  0.61556706  1
  O  O320  1  0.51241397  0.50689693  0.11574527  1
  O  O321  1  0.50997178  0.49032791  0.60666370  1
  O  O322  1  0.24908256  0.37179736  0.24498076  1
  O  O323  1  0.24172097  0.36301467  0.73618356  1
  O  O324  1  0.25794198  0.87562932  0.23644422  1
  O  O325  1  0.29806645  0.98769691  0.80137350  1
  O  O326  1  0.73867338  0.36832363  0.25119792  1
  O  O327  1  0.74357091  0.38237997  0.74724737  1
  O  O328  1  0.75066957  0.88024332  0.23477803  1
  O  O329  1  0.75371570  0.88879985  0.74940804  1
  O  O330  1  0.27040064  0.12311970  0.24861640  1
  O  O331  1  0.25607875  0.12828381  0.73460815  1
  O  O332  1  0.24164846  0.61485772  0.26358288  1
  O  O333  1  0.25952470  0.62181408  0.75638189  1
  O  O334  1  0.75092348  0.11449912  0.25449398  1
  O  O335  1  0.75859933  0.11810998  0.76185537  1
  O  O336  1  0.76725332  0.67761712  0.26470705  1
  O  O337  1  0.76105018  0.61931164  0.75234165  1
  O  O338  1  0.37641705  0.12568842  0.37208652  1
  O  O339  1  0.38823643  0.16649896  0.82995076  1
  O  O340  1  0.36697331  0.61149358  0.38090514  1
  O  O341  1  0.36299081  0.64395986  0.86380763  1
  O  O342  1  0.85621028  0.11268923  0.36852773  1
  O  O343  1  0.86665600  0.11893811  0.87617513  1
  O  O344  1  0.86662401  0.60350754  0.38632765  1
  O  O345  1  0.87556131  0.62285784  0.87036642  1
  O  O346  1  0.14461353  0.36980976  0.13859235  1
  O  O347  1  0.13410982  0.37950834  0.63061098  1
  O  O348  1  0.13270157  0.88402620  0.12532134  1
  O  O349  1  0.10585352  0.90101195  0.62364480  1
  O  O350  1  0.62261142  0.38707982  0.13251474  1
  O  O351  1  0.63700115  0.36738730  0.63891710  1
  O  O352  1  0.63238087  0.88641267  0.10882752  1
  O  O353  1  0.64059693  0.87068520  0.63331069  1
  O  O354  1  0.13033131  0.24235841  0.26749372  1
  O  O355  1  0.11628832  0.25609436  0.75631184  1
  O  O356  1  0.10931739  0.74477163  0.26364505  1
  O  O357  1  0.12807186  0.78199558  0.72716377  1
  O  O358  1  0.62292221  0.26404315  0.23600816  1
  O  O359  1  0.62889666  0.26186930  0.76287621  1
  O  O360  1  0.62392337  0.74994993  0.26527657  1
  O  O361  1  0.61990233  0.73432831  0.77018039  1
  O  O362  1  0.37700371  0.23957038  0.24216426  1
  O  O363  1  0.37545080  0.22420160  0.78081912  1
  O  O364  1  0.37927358  0.74257709  0.23526501  1
  O  O365  1  0.39106609  0.73446425  0.73887532  1
  O  O366  1  0.86388966  0.23204520  0.25515427  1
  O  O367  1  0.87867782  0.24120104  0.74794593  1
  O  O368  1  0.88855211  0.76117053  0.23290962  1
  O  O369  1  0.87308582  0.74032864  0.75786763  1
  O  O370  1  0.39532327  0.48736914  0.50009685  1
  O  O371  1  0.38931798  0.48708659  1.00820154  1
  O  O372  1  0.39815695  1.01208870  0.50720450  1
  O  O373  1  0.36204801  0.98324986  1.00117338  1
  O  O374  1  0.87983395  0.51357329  0.48443944  1
  O  O375  1  0.88212008  0.49466085  0.98373381  1
  O  O376  1  0.85952838  1.00091604  0.48702283  1
  O  O377  1  0.86318945  0.99231018  0.99227695  1
  O  O378  1  0.11558208  0.00684588  0.01820533  1
  O  O379  1  0.11191594  0.01885284  0.51056907  1
  O  O380  1  0.10878786  0.48894744  0.00138555  1
  O  O381  1  0.12405930  0.50281586  0.50789112  1
  O  O382  1  0.62487256  0.00997242  0.00681991  1
  O  O383  1  0.62482353  0.01447317  0.50417796  1
  O  O384  1  0.62156106  0.50442097  0.01013947  1
  O  O385  1  0.62077477  0.51531938  0.49035008  1
  O  O386  1  0.36912864  0.36699999  0.12031583  1
  O  O387  1  0.35749963  0.38997081  0.63277320  1
  O  O388  1  0.35970575  0.87482546  0.11644702  1
  O  O389  1  0.39414639  0.85643614  0.64290882  1
  O  O390  1  0.86909507  0.38426651  0.10326075  1
  O  O391  1  0.85725278  0.35805142  0.63882973  1
  O  O392  1  0.86286355  0.87014154  0.11456869  1
  O  O393  1  0.85297436  0.87436946  0.63788755  1
  O  O394  1  0.11797295  0.13426151  0.39277808  1
  O  O395  1  0.11983108  0.14057255  0.87867706  1
  O  O396  1  0.14123722  0.61463400  0.38858461  1
  O  O397  1  0.13483874  0.61818242  0.87764080  1
  O  O398  1  0.63482990  0.12068891  0.36850869  1
  O  O399  1  0.62657725  0.12987284  0.88019993  1
  O  O400  1  0.63217069  0.63791154  0.38172610  1
  O  O401  1  0.63499040  0.62085724  0.88937072  1
