# generated using pymatgen
data_V73Zn73O256
_symmetry_space_group_name_H-M   'P 1'
_cell_length_a   16.87002996
_cell_length_b   16.87151953
_cell_length_c   16.89385810
_cell_angle_alpha   90.14721414
_cell_angle_beta   90.09431898
_cell_angle_gamma   89.93917505
_symmetry_Int_Tables_number   1
_chemical_formula_structural   V73Zn73O256
_chemical_formula_sum   'V73 Zn73 O256'
_cell_volume   4808.35617337
_cell_formula_units_Z   1
loop_
 _symmetry_equiv_pos_site_id
 _symmetry_equiv_pos_as_xyz
  1  'x, y, z'
loop_
 _atom_site_type_symbol
 _atom_site_label
 _atom_site_symmetry_multiplicity
 _atom_site_fract_x
 _atom_site_fract_y
 _atom_site_fract_z
 _atom_site_occupancy
  V  V0  1  0.24817163  -0.00235516  0.23476637  1
  V  V1  1  0.50075894  0.61804010  0.11895048  1
  V  V2  1  0.37129336  0.76312349  0.62791023  1
  V  V3  1  0.36776679  0.87793772  -0.01519324  1
  V  V4  1  0.75156597  0.86609030  0.61242618  1
  V  V5  1  -0.01086362  0.25385740  0.26768129  1
  V  V6  1  0.75500638  -0.00225610  0.75203236  1
  V  V7  1  0.12261079  0.37217946  0.76277015  1
  V  V8  1  0.63352163  0.24397306  0.87637133  1
  V  V9  1  0.36604772  -0.01632766  0.37485163  1
  V  V10  1  0.73514468  0.11613424  0.37831577  1
  V  V11  1  0.12183580  0.87274229  0.25016710  1
  V  V12  1  0.42650055  0.32548852  0.44194518  1
  V  V13  1  0.87196438  0.10066460  0.26582264  1
  V  V14  1  0.62218339  0.00476361  0.61682862  1
  V  V15  1  0.76022703  0.35189822  0.13009106  1
  V  V16  1  0.75057512  0.51207786  0.25148842  1
  V  V17  1  0.74742290  0.63064088  0.39457348  1
  V  V18  1  -0.00751522  0.26473244  0.75384838  1
  V  V19  1  0.64349034  0.88058958  0.23785781  1
  V  V20  1  0.38947653  0.12381641  0.22980430  1
  V  V21  1  -0.00956380  0.87983302  0.86438264  1
  V  V22  1  0.36628704  0.75786279  0.12617577  1
  V  V23  1  0.85285629  0.61871687  0.76111282  1
  V  V24  1  0.13561000  0.62687788  0.49876953  1
  V  V25  1  -0.00763025  0.00363091  0.51073645  1
  V  V26  1  0.62994693  0.49977722  0.12136611  1
  V  V27  1  0.25481420  0.35913177  0.12057215  1
  V  V28  1  0.12479651  0.36181291  0.26381607  1
  V  V29  1  0.11702526  0.75039105  0.85712243  1
  V  V30  1  0.86887492  0.37368857  0.50321018  1
  V  V31  1  0.61353329  0.36355459  0.26396638  1
  V  V32  1  0.75545540  0.74456692  -0.01307133  1
  V  V33  1  0.37323007  0.62408762  0.25368942  1
  V  V34  1  0.12957746  0.13006583  0.49804634  1
  V  V35  1  -0.01057906  0.48873864  -0.00931813  1
  V  V36  1  0.14745809  -0.00841484  0.63184585  1
  V  V37  1  0.37469281  0.62513126  0.76021421  1
  V  V38  1  0.11991142  0.49768651  0.12785045  1
  V  V39  1  0.76103752  0.13158145  0.87675209  1
  V  V40  1  0.13441438  0.13443492  -0.00476995  1
  V  V41  1  0.12760725  0.62685951  -0.00173672  1
  V  V42  1  0.61839393  0.87376379  0.75928975  1
  V  V43  1  0.88347178  0.11651648  0.73741065  1
  V  V44  1  0.63513546  0.50659379  0.62259230  1
  V  V45  1  0.73112761  0.24895761  0.49681321  1
  V  V46  1  0.63911197  0.38037277  0.73864705  1
  V  V47  1  0.25614214  0.37896519  0.61920982  1
  V  V48  1  0.00305366  0.63063095  0.63585164  1
  V  V49  1  0.86473851  0.74475506  0.13492560  1
  V  V50  1  0.87656463  0.50419545  0.37192582  1
  V  V51  1  0.00164102  0.49638548  0.49598904  1
  V  V52  1  0.24886102  0.50156004  0.25358186  1
  V  V53  1  0.25328124  0.50568975  0.76647982  1
  V  V54  1  0.49415407  -0.01131631  0.48848407  1
  V  V55  1  0.40821564  0.03098714  0.87691638  1
  V  V56  1  0.50448511  0.24574880  0.73871642  1
  V  V57  1  0.25479952  0.77226364  0.49993400  1
  V  V58  1  0.49933061  0.50833661  0.49653809  1
  V  V59  1  0.50621649  0.38597248  0.87446037  1
  V  V60  1  0.61283204  0.75083655  0.87599764  1
  V  V61  1  0.36880420  0.24702940  0.62619464  1
  V  V62  1  0.62246253  0.75051976  0.38942322  1
  V  V63  1  0.12828598  0.74825239  0.37666074  1
  V  V64  1  0.37653471  0.50464143  0.37857561  1
  V  V65  1  -0.01188323  0.13239315  0.12568437  1
  V  V66  1  0.49608430  0.62883722  0.62396836  1
  V  V67  1  0.50528851  0.75813252  0.25154633  1
  V  V68  1  -0.01136743  0.88055429  0.38500976  1
  V  V69  1  0.87406873  0.88569109  0.00125082  1
  V  V70  1  0.12720143  0.50037962  0.62610040  1
  V  V71  1  0.88092223  0.75233509  0.61911653  1
  V  V72  1  0.11092297  -0.00920766  0.11562831  1
  Zn  Zn73  1  -0.00880061  0.62187831  0.13258672  1
  Zn  Zn74  1  0.24611527  0.74628572  0.00020564  1
  Zn  Zn75  1  -0.01248134  0.74348344  0.25740930  1
  Zn  Zn76  1  0.50087131  0.12742136  0.61390100  1
  Zn  Zn77  1  0.25226844  0.13447094  0.36649620  1
  Zn  Zn78  1  0.62597926  0.61156396  -0.01681551  1
  Zn  Zn79  1  0.38543178  0.38524132  0.00620199  1
  Zn  Zn80  1  0.87446686  0.25698677  0.62389922  1
  Zn  Zn81  1  0.23647137  0.26267168  0.47624689  1
  Zn  Zn82  1  0.18124720  0.18022377  0.18395666  1
  Zn  Zn83  1  0.17626903  0.18800616  0.68073379  1
  Zn  Zn84  1  0.18249096  0.68329253  0.18843835  1
  Zn  Zn85  1  0.19437015  0.68959335  0.68440522  1
  Zn  Zn86  1  0.68709204  0.17890895  0.19666169  1
  Zn  Zn87  1  0.69686236  0.18955936  0.68151757  1
  Zn  Zn88  1  0.69058175  0.68957447  0.18496878  1
  Zn  Zn89  1  0.68771711  0.68862928  0.69108240  1
  Zn  Zn90  1  0.32118301  0.30663885  0.29077926  1
  Zn  Zn91  1  0.32086445  0.32387206  0.80182824  1
  Zn  Zn92  1  0.30579812  0.81072939  0.30765585  1
  Zn  Zn93  1  0.30417968  0.80098427  0.81802290  1
  Zn  Zn94  1  0.80302075  0.31800115  0.31950832  1
  Zn  Zn95  1  0.81564942  0.32992999  0.81633121  1
  Zn  Zn96  1  0.80585641  0.81498525  0.32039910  1
  Zn  Zn97  1  0.81807599  0.80579472  0.80756395  1
  Zn  Zn98  1  0.18970107  0.44167569  0.43600560  1
  Zn  Zn99  1  0.18640513  0.43481166  0.94708735  1
  Zn  Zn100  1  0.17924067  0.94505014  0.43545391  1
  Zn  Zn101  1  0.17749524  0.92130992  0.94201235  1
  Zn  Zn102  1  0.68698127  0.44071002  0.43969598  1
  Zn  Zn103  1  0.71161261  0.42760037  0.94154227  1
  Zn  Zn104  1  0.68375479  0.93145134  0.43027617  1
  Zn  Zn105  1  0.69878478  0.94040301  0.94198014  1
  Zn  Zn106  1  0.30844151  0.06008455  0.04781935  1
  Zn  Zn107  1  0.30935353  0.06481659  0.55626451  1
  Zn  Zn108  1  0.30987845  0.55411379  0.06106399  1
  Zn  Zn109  1  0.31534702  0.56548164  0.56602166  1
  Zn  Zn110  1  0.84644706  0.09119897  0.04494456  1
  Zn  Zn111  1  0.80607732  0.06524414  0.56067000  1
  Zn  Zn112  1  0.81063906  0.56569988  0.05763817  1
  Zn  Zn113  1  0.82018097  0.56719267  0.56422603  1
  Zn  Zn114  1  0.43958238  0.43475112  0.18665804  1
  Zn  Zn115  1  0.44170732  0.44007082  0.68956138  1
  Zn  Zn116  1  0.44204644  0.94117621  0.17897395  1
  Zn  Zn117  1  0.43545017  0.94536407  0.69819164  1
  Zn  Zn118  1  0.93553513  0.43269539  0.18930627  1
  Zn  Zn119  1  0.93564420  0.44366860  0.68712268  1
  Zn  Zn120  1  0.93489744  0.92842853  0.18574191  1
  Zn  Zn121  1  0.94496464  0.93154454  0.68325146  1
  Zn  Zn122  1  0.06111971  0.06313883  0.31721882  1
  Zn  Zn123  1  0.06407198  0.05621815  0.80811227  1
  Zn  Zn124  1  0.06191750  0.56461877  0.31104360  1
  Zn  Zn125  1  0.05944704  0.56031287  0.81948378  1
  Zn  Zn126  1  0.56207787  0.05665207  0.30825942  1
  Zn  Zn127  1  0.57129087  0.06459608  0.80557647  1
  Zn  Zn128  1  0.56510816  0.56609706  0.31083291  1
  Zn  Zn129  1  0.56538175  0.56621305  0.80325736  1
  Zn  Zn130  1  0.45025694  0.15311288  0.41582994  1
  Zn  Zn131  1  0.42170360  0.22913018  0.91567712  1
  Zn  Zn132  1  0.43596957  0.69265236  0.43880701  1
  Zn  Zn133  1  0.43961611  0.68975284  0.94141619  1
  Zn  Zn134  1  0.94122745  0.18401097  0.43959977  1
  Zn  Zn135  1  0.97079684  0.16132166  0.91239622  1
  Zn  Zn136  1  0.94049881  0.68616669  0.44158904  1
  Zn  Zn137  1  0.94235082  0.67955033  0.93994161  1
  Zn  Zn138  1  0.06204978  0.31158535  0.07029187  1
  Zn  Zn139  1  0.05887495  0.31139740  0.56824557  1
  Zn  Zn140  1  0.04475282  0.80756432  0.05880482  1
  Zn  Zn141  1  0.06667740  0.81867203  0.56809670  1
  Zn  Zn142  1  0.59993549  0.32712445  0.04836050  1
  Zn  Zn143  1  0.56264193  0.32078264  0.56176751  1
  Zn  Zn144  1  0.56457511  0.81186158  0.06263902  1
  Zn  Zn145  1  0.55722059  0.81754626  0.57191034  1
  O  O146  1  0.10981247  0.11421766  0.11111096  1
  O  O147  1  0.13440630  0.11373529  0.60802961  1
  O  O148  1  0.12392026  0.61093618  0.12049687  1
  O  O149  1  0.12365087  0.61893324  0.61925427  1
  O  O150  1  0.63325880  0.10320776  0.11755966  1
  O  O151  1  0.63068358  0.10655385  0.62613787  1
  O  O152  1  0.61405169  0.61712170  0.12892401  1
  O  O153  1  0.61011946  0.61506239  0.63807958  1
  O  O154  1  0.37666979  0.38580823  0.37172622  1
  O  O155  1  0.39593967  0.34724463  0.88586432  1
  O  O156  1  0.37399853  0.88407323  0.36502629  1
  O  O157  1  0.38185976  0.85398065  0.88923641  1
  O  O158  1  0.86883667  0.39396116  0.38865809  1
  O  O159  1  0.87944595  0.32850875  0.94986951  1
  O  O160  1  0.88998250  0.86758303  0.37789467  1
  O  O161  1  0.88039209  0.86655674  0.88558734  1
  O  O162  1  0.25818664  -0.00309790  0.36385101  1
  O  O163  1  0.23895349  -0.04084384  0.83973025  1
  O  O164  1  0.26132351  0.49673863  0.36399804  1
  O  O165  1  0.24774132  0.49664492  0.86463718  1
  O  O166  1  0.74690552  0.01623056  0.38979572  1
  O  O167  1  0.74446609  0.01650508  0.86081761  1
  O  O168  1  0.75346166  0.51370617  0.37288778  1
  O  O169  1  0.79983689  0.42266374  0.87649329  1
  O  O170  1  0.24008573  0.49159257  0.13811474  1
  O  O171  1  0.24233848  0.49690684  0.62990935  1
  O  O172  1  0.23097653  0.99904145  0.13079925  1
  O  O173  1  0.24931205  0.99707852  0.62238358  1
  O  O174  1  0.73989175  0.50754207  0.13480532  1
  O  O175  1  0.73319026  0.50946590  0.61434705  1
  O  O176  1  0.67489180  1.04271722  0.08420367  1
  O  O177  1  0.74156516  0.99062555  0.62907762  1
  O  O178  1  0.01321328  0.36297327  0.24652628  1
  O  O179  1  0.01184698  0.37736892  0.74975932  1
  O  O180  1  0.00747744  0.87125970  0.26422896  1
  O  O181  1  -0.01677070  0.86273349  0.76420195  1
  O  O182  1  0.51361388  0.38204466  0.25358254  1
  O  O183  1  0.50753358  0.36680089  0.75391161  1
  O  O184  1  0.49840642  0.85899670  0.24529240  1
  O  O185  1  0.52021016  0.87999142  0.74853825  1
  O  O186  1  0.48896099  0.10149992  0.23481627  1
  O  O187  1  0.51222735  0.14233192  0.73664552  1
  O  O188  1  0.49214117  0.63253126  0.24144098  1
  O  O189  1  0.48189946  0.61890528  0.73953506  1
  O  O190  1  0.98972098  0.13215629  0.25099886  1
  O  O191  1  0.98609352  0.13742571  0.75332493  1
  O  O192  1  1.00289055  0.63207062  0.24690358  1
  O  O193  1  1.00907765  0.62159988  0.73615284  1
  O  O194  1  0.40586545  0.26058747  0.02663393  1
  O  O195  1  0.37423874  0.26799416  0.51399726  1
  O  O196  1  0.37631960  0.75611777  0.01439871  1
  O  O197  1  0.36244509  0.75051853  0.50856016  1
  O  O198  1  0.86802759  0.26874906  -0.00966643  1
  O  O199  1  0.88748962  0.26990463  0.49723468  1
  O  O200  1  0.86328120  0.74807842  0.00341011  1
  O  O201  1  0.87058653  0.73934932  0.51929556  1
  O  O202  1  0.12229846  0.23697936  0.50715324  1
  O  O203  1  0.11858780  0.23286807  1.00752583  1
  O  O204  1  0.13751423  0.74794646  0.49828808  1
  O  O205  1  0.12251978  0.73267749  1.01478762  1
  O  O206  1  0.63163799  0.25417548  0.50082976  1
  O  O207  1  0.62303113  0.24007285  0.97397304  1
  O  O208  1  0.61163546  0.75744422  0.48755646  1
  O  O209  1  0.63499762  0.75880898  0.98677063  1
  O  O210  1  0.51167144  0.27177942  0.11497410  1
  O  O211  1  0.49101668  0.25399845  0.62574181  1
  O  O212  1  0.49265868  0.74000353  0.13530024  1
  O  O213  1  0.48252005  0.74243009  0.61955804  1
  O  O214  1  1.00556492  0.23437539  0.14220952  1
  O  O215  1  0.99282567  0.25733302  0.64257755  1
  O  O216  1  0.98018116  0.74688527  0.12975768  1
  O  O217  1  0.99051508  0.74641179  0.62020078  1
  O  O218  1  0.00628151  0.24629142  0.36524608  1
  O  O219  1  -0.00142653  0.25605414  0.85489301  1
  O  O220  1  0.01046147  0.76092077  0.38216923  1
  O  O221  1  0.01205036  0.74984953  0.87928705  1
  O  O222  1  0.48247444  0.25933648  0.39202146  1
  O  O223  1  0.52024010  0.25240939  0.85237797  1
  O  O224  1  0.51016022  0.74057582  0.36138239  1
  O  O225  1  0.51442190  0.76126978  0.88604071  1
  O  O226  1  0.24187981  0.13360495  0.49226456  1
  O  O227  1  0.23318490  0.11979928  0.98557434  1
  O  O228  1  0.23813675  0.62657330  0.50334233  1
  O  O229  1  0.23309300  0.62007623  1.00525043  1
  O  O230  1  0.75096103  0.13711375  0.48921137  1
  O  O231  1  0.76557629  0.12984614  0.97669672  1
  O  O232  1  0.74421329  0.62292910  0.49311933  1
  O  O233  1  0.74051941  0.63914810  1.00029564  1
  O  O234  1  0.25538213  0.37557388  0.01645235  1
  O  O235  1  0.24158535  0.37454730  0.51392675  1
  O  O236  1  0.26377177  0.86953482  0.00065479  1
  O  O237  1  0.24925511  0.87018258  0.49858840  1
  O  O238  1  0.72179587  0.35842216  0.03184817  1
  O  O239  1  0.76011949  0.36387608  0.49481429  1
  O  O240  1  0.76359048  0.86119266  -0.00523832  1
  O  O241  1  0.74609977  0.87899792  0.51441469  1
  O  O242  1  0.13136560  0.49144688  0.24860718  1
  O  O243  1  0.13452349  0.49543150  0.74564590  1
  O  O244  1  0.12950267  0.99349895  0.24246945  1
  O  O245  1  0.13057320  1.01852685  0.72998565  1
  O  O246  1  0.63444033  0.49841727  0.24509669  1
  O  O247  1  0.62430187  0.49047059  0.73712800  1
  O  O248  1  0.61751408  0.97698673  0.25228097  1
  O  O249  1  0.63507119  0.99090784  0.73917508  1
  O  O250  1  0.35904028  -0.00862489  0.24770362  1
  O  O251  1  0.38539237  0.00108480  0.78200475  1
  O  O252  1  0.37083552  0.50640276  0.25737593  1
  O  O253  1  0.36245103  0.50931988  0.74890761  1
  O  O254  1  0.87913324  0.00189905  0.25708266  1
  O  O255  1  0.87240825  0.01032269  0.73817438  1
  O  O256  1  0.86494675  0.49326301  0.26236018  1
  O  O257  1  0.87797286  0.52048798  0.74216215  1
  O  O258  1  0.12886827  0.37695286  0.36264888  1
  O  O259  1  0.13486361  0.37525085  0.86108622  1
  O  O260  1  0.11837953  0.86704913  0.36909105  1
  O  O261  1  0.10480351  0.85973113  0.87985253  1
  O  O262  1  0.63152289  0.37886546  0.36326380  1
  O  O263  1  0.62440720  0.36538902  0.85629069  1
  O  O264  1  0.63184552  0.85432829  0.36167649  1
  O  O265  1  0.63372053  0.87464637  0.86487189  1
  O  O266  1  0.36766097  0.10183510  0.13198426  1
  O  O267  1  0.37340357  0.14457626  0.61735610  1
  O  O268  1  0.38691542  0.62961720  0.13350429  1
  O  O269  1  0.37929745  0.63340781  0.63360535  1
  O  O270  1  0.88156496  0.12081452  0.15049799  1
  O  O271  1  0.87136605  0.13221352  0.63617310  1
  O  O272  1  0.87071939  0.63981316  0.12439783  1
  O  O273  1  0.88523607  0.63249135  0.63194518  1
  O  O274  1  0.24313244  0.25987193  0.13042717  1
  O  O275  1  0.26100782  0.25985862  0.63244454  1
  O  O276  1  0.26485793  0.73854456  0.12587133  1
  O  O277  1  0.25853240  0.75153551  0.61103559  1
  O  O278  1  0.75794520  0.25235650  0.14117581  1
  O  O279  1  0.75805766  0.24517571  0.60174280  1
  O  O280  1  0.75791954  0.74980874  0.11327173  1
  O  O281  1  0.75052639  0.76140821  0.62411689  1
  O  O282  1  0.27408155  0.24691287  0.37287675  1
  O  O283  1  0.24858444  0.22431774  0.83384798  1
  O  O284  1  0.24231432  0.75521100  0.38892002  1
  O  O285  1  0.22382526  0.75511884  0.88455274  1
  O  O286  1  0.75507631  0.24038183  0.39007533  1
  O  O287  1  0.74305688  0.24365317  0.86063380  1
  O  O288  1  0.73915672  0.73843432  0.37731629  1
  O  O289  1  0.74372146  0.75045316  0.88362398  1
  O  O290  1  -0.03557096  0.13194754  0.02391822  1
  O  O291  1  0.01320512  0.11156605  0.49432066  1
  O  O292  1  0.01103302  0.61057265  0.00953148  1
  O  O293  1  0.01185144  0.61838666  0.51200128  1
  O  O294  1  0.46633274  0.22362806  0.07540576  1
  O  O295  1  0.49691263  0.10016320  0.50303408  1
  O  O296  1  0.50752403  0.63144724  0.01583980  1
  O  O297  1  0.49418606  0.61988380  0.51063300  1
  O  O298  1  0.49112875  0.38701881  0.49706347  1
  O  O299  1  0.52052589  0.37406479  0.97519830  1
  O  O300  1  0.49227936  0.89018995  0.51130665  1
  O  O301  1  0.47798341  0.88898693  1.02574869  1
  O  O302  1  0.99663987  0.39125586  0.50444618  1
  O  O303  1  1.00832786  0.38953835  1.01038507  1
  O  O304  1  1.00584934  0.88580280  0.49217511  1
  O  O305  1  0.98175683  0.87200867  0.98885370  1
  O  O306  1  0.49185078  0.51085415  0.38494049  1
  O  O307  1  0.50446012  0.48482285  0.86150123  1
  O  O308  1  0.49152601  0.99341672  0.38321998  1
  O  O309  1  0.50813723  1.01933924  0.88719920  1
  O  O310  1  0.99022354  0.51215295  0.38637657  1
  O  O311  1  1.00240700  0.49545767  0.89014426  1
  O  O312  1  1.00504892  0.98614739  0.38565904  1
  O  O313  1  0.99900125  0.98053714  0.86682723  1
  O  O314  1  0.00706124  0.01304770  0.13511605  1
  O  O315  1  0.01018338  -0.00615358  0.61350027  1
  O  O316  1  0.01061326  0.49740195  0.12822747  1
  O  O317  1  0.01296530  0.50855099  0.61841786  1
  O  O318  1  0.48868633  -0.04251559  0.07426132  1
  O  O319  1  0.51210814  0.00088076  0.62575061  1
  O  O320  1  0.51373131  0.51106465  0.13193677  1
  O  O321  1  0.49776077  0.51001335  0.61464293  1
  O  O322  1  0.23944188  0.38012133  0.24411527  1
  O  O323  1  0.24238210  0.38770266  0.74326992  1
  O  O324  1  0.23358407  0.88470009  0.25027094  1
  O  O325  1  0.24752339  0.90684667  0.78465871  1
  O  O326  1  0.74082685  0.38471034  0.24224256  1
  O  O327  1  0.73640600  0.36905307  0.73375013  1
  O  O328  1  0.74375636  0.87823069  0.24989674  1
  O  O329  1  0.74901248  0.88526293  0.74330688  1
  O  O330  1  0.24726030  0.10648879  0.24721277  1
  O  O331  1  0.24211060  0.16504838  0.78572175  1
  O  O332  1  0.26061752  0.61343751  0.24404194  1
  O  O333  1  0.25710606  0.61234899  0.74818606  1
  O  O334  1  0.76440906  0.12418814  0.26612891  1
  O  O335  1  0.76390908  0.11823787  0.74919297  1
  O  O336  1  0.74668442  0.61635325  0.25796203  1
  O  O337  1  0.75122881  0.61853829  0.75350244  1
  O  O338  1  0.37443820  0.10056070  0.34887605  1
  O  O339  1  0.38561031  0.12922272  0.88534476  1
  O  O340  1  0.37841492  0.62065613  0.36300083  1
  O  O341  1  0.37976742  0.63756291  0.85926796  1
  O  O342  1  0.87545060  0.12111962  0.36739466  1
  O  O343  1  0.86747715  0.13318005  0.85583202  1
  O  O344  1  0.86034414  0.61895822  0.38429551  1
  O  O345  1  0.87657136  0.63362560  0.85856011  1
  O  O346  1  0.13525825  0.38079397  0.13570612  1
  O  O347  1  0.13275188  0.38728567  0.63319968  1
  O  O348  1  0.10549479  0.88518686  0.13222239  1
  O  O349  1  0.12978561  0.88981940  0.62761542  1
  O  O350  1  0.62812749  0.39245695  0.14202848  1
  O  O351  1  0.61740037  0.39320024  0.63067131  1
  O  O352  1  0.62828460  0.86555713  0.13826798  1
  O  O353  1  0.63625160  0.87856957  0.63642788  1
  O  O354  1  0.12178604  0.25807257  0.25151062  1
  O  O355  1  0.11499449  0.26752194  0.74182920  1
  O  O356  1  0.13085194  0.75774420  0.26053382  1
  O  O357  1  0.12654916  0.74488955  0.75767341  1
  O  O358  1  0.62499942  0.26396700  0.24489975  1
  O  O359  1  0.61863618  0.26321885  0.73347357  1
  O  O360  1  0.61404423  0.75372478  0.25069362  1
  O  O361  1  0.63120846  0.76390355  0.76270725  1
  O  O362  1  0.38114981  0.22395087  0.23839241  1
  O  O363  1  0.39195702  0.25468585  0.73599285  1
  O  O364  1  0.38090799  0.74399631  0.24419798  1
  O  O365  1  0.35618224  0.73676998  0.73686740  1
  O  O366  1  0.88795412  0.25746363  0.26145575  1
  O  O367  1  0.88153790  0.26143710  0.74862980  1
  O  O368  1  0.86635675  0.75816867  0.23793973  1
  O  O369  1  0.86474270  0.73295963  0.73113590  1
  O  O370  1  0.37995209  0.50696218  0.48804101  1
  O  O371  1  0.39200894  0.49550668  1.01964917  1
  O  O372  1  0.37743966  0.99991511  0.48234099  1
  O  O373  1  0.36106185  0.98824821  0.97053697  1
  O  O374  1  0.88229462  0.49575294  0.49512186  1
  O  O375  1  0.89004753  0.50287961  1.00819037  1
  O  O376  1  0.89231770  1.00826329  0.50969211  1
  O  O377  1  0.86182175  0.98498680  1.00678554  1
  O  O378  1  0.12446264  -0.00176289  0.01329905  1
  O  O379  1  0.12229603  0.00818937  0.51143506  1
  O  O380  1  0.11940742  0.50657464  0.00962034  1
  O  O381  1  0.12165481  0.50729128  0.50573566  1
  O  O382  1  0.63858386  0.01440738  0.01846669  1
  O  O383  1  0.61356368  -0.01155633  0.51105364  1
  O  O384  1  0.63912897  0.49821424  0.01520777  1
  O  O385  1  0.61191753  0.49574378  0.51238073  1
  O  O386  1  0.35684223  0.37359052  0.13904135  1
  O  O387  1  0.36337053  0.37164006  0.63414144  1
  O  O388  1  0.36784645  0.85895951  0.12905133  1
  O  O389  1  0.37810764  0.86123723  0.64125269  1
  O  O390  1  0.85765532  0.37698561  0.12647836  1
  O  O391  1  0.87476447  0.38525921  0.60654047  1
  O  O392  1  0.87884047  0.86218163  0.10955551  1
  O  O393  1  0.86422395  0.86226377  0.62848336  1
  O  O394  1  0.13243287  0.11494118  0.38984585  1
  O  O395  1  0.08422563  0.11638515  0.90470877  1
  O  O396  1  0.11967101  0.63837781  0.38629236  1
  O  O397  1  0.11826407  0.63478322  0.89024430  1
  O  O398  1  0.63550444  0.12558128  0.36408012  1
  O  O399  1  0.64423512  0.13853488  0.85607838  1
  O  O400  1  0.63530649  0.63645169  0.37434634  1
  O  O401  1  0.61594002  0.64310901  0.87079149  1
