# generated using pymatgen
data_V73Zn73O256
_symmetry_space_group_name_H-M   'P 1'
_cell_length_a   16.86325580
_cell_length_b   16.87822865
_cell_length_c   16.85183184
_cell_angle_alpha   90.09999541
_cell_angle_beta   89.93316322
_cell_angle_gamma   90.02081656
_symmetry_Int_Tables_number   1
_chemical_formula_structural   V73Zn73O256
_chemical_formula_sum   'V73 Zn73 O256'
_cell_volume   4796.38930173
_cell_formula_units_Z   1
loop_
 _symmetry_equiv_pos_site_id
 _symmetry_equiv_pos_as_xyz
  1  'x, y, z'
loop_
 _atom_site_type_symbol
 _atom_site_label
 _atom_site_symmetry_multiplicity
 _atom_site_fract_x
 _atom_site_fract_y
 _atom_site_fract_z
 _atom_site_occupancy
  V  V0  1  0.51183638  0.62364651  0.62677831  1
  V  V1  1  0.62577369  0.77001630  0.87172030  1
  V  V2  1  0.12137895  0.61318051  0.49366931  1
  V  V3  1  0.12883144  0.00135211  0.63868439  1
  V  V4  1  0.50397297  0.62573859  0.13186764  1
  V  V5  1  0.86972963  -0.02247189  0.87703075  1
  V  V6  1  0.88668944  0.63432841  0.75769310  1
  V  V7  1  0.75081411  0.24438751  0.49736915  1
  V  V8  1  0.86258828  0.25021902  0.11990417  1
  V  V9  1  0.51622350  0.00582024  0.49609388  1
  V  V10  1  0.37205369  0.37292412  -0.00476866  1
  V  V11  1  0.37350021  0.88877979  0.50042028  1
  V  V12  1  0.74741072  0.37608173  0.62909402  1
  V  V13  1  0.64112739  0.24141677  0.87215729  1
  V  V14  1  0.73599295  -0.00851204  0.73910242  1
  V  V15  1  0.74294950  0.61250006  0.87252462  1
  V  V16  1  0.12707046  0.37905584  0.24946544  1
  V  V17  1  0.10274892  0.35992086  0.74880861  1
  V  V18  1  0.25208057  0.88206176  0.63358414  1
  V  V19  1  0.12035178  0.61781428  -0.00302292  1
  V  V20  1  0.63323468  0.49037216  0.12252145  1
  V  V21  1  0.60976459  -0.01147288  0.12119409  1
  V  V22  1  -0.00671384  0.24690761  0.24854048  1
  V  V23  1  -0.00712342  0.37734499  0.38866337  1
  V  V24  1  0.10637936  0.50238347  0.12271880  1
  V  V25  1  -0.00255213  -0.00661986  0.50281191  1
  V  V26  1  0.25087407  0.11820222  0.37375214  1
  V  V27  1  0.36436280  0.60931226  0.25777829  1
  V  V28  1  0.24830973  0.75241215  0.00109253  1
  V  V29  1  0.12467644  0.12328572  0.50155932  1
  V  V30  1  0.87334085  0.50334006  0.39315453  1
  V  V31  1  0.38466026  0.87459301  -0.00871358  1
  V  V32  1  0.37326687  0.74002937  0.62644137  1
  V  V33  1  0.62849183  0.74399161  0.37852132  1
  V  V34  1  0.85440384  0.37848564  0.00268779  1
  V  V35  1  0.49341580  0.37527747  0.38163606  1
  V  V36  1  0.89342443  0.49519444  0.87641759  1
  V  V37  1  0.37508249  0.50202625  0.86792627  1
  V  V38  1  0.12757475  0.24902173  0.37448727  1
  V  V39  1  0.42349087  -0.05197139  0.32042802  1
  V  V40  1  0.50786610  0.37138346  0.86813497  1
  V  V41  1  0.23981983  0.74669488  0.49270916  1
  V  V42  1  0.62778516  0.24134912  0.38189927  1
  V  V43  1  0.86940777  0.76525643  0.12542865  1
  V  V44  1  0.37525710  0.74916779  0.13403447  1
  V  V45  1  0.37493594  0.13346210  0.24738005  1
  V  V46  1  -0.00229329  0.86330625  0.38069515  1
  V  V47  1  0.74898663  0.00614097  0.23638640  1
  V  V48  1  0.86442992  0.13079724  0.75616424  1
  V  V49  1  -0.00317384  0.12598425  0.63168138  1
  V  V50  1  0.49142624  0.50250936  0.49513051  1
  V  V51  1  0.50439616  0.12049863  0.62852831  1
  V  V52  1  0.87234750  0.76531292  0.60922592  1
  V  V53  1  -0.00370006  0.11959855  0.12523013  1
  V  V54  1  0.50569754  0.76125614  0.75050394  1
  V  V55  1  0.00728040  0.62010123  0.62711531  1
  V  V56  1  0.24077587  -0.00105898  0.24562736  1
  V  V57  1  0.38077943  0.00461591  0.84669127  1
  V  V58  1  0.11382347  0.86058093  0.75909784  1
  V  V59  1  0.87890412  0.62462073  0.24151455  1
  V  V60  1  0.75369507  0.49434501  0.25634124  1
  V  V61  1  0.50196749  0.25085124  0.24216366  1
  V  V62  1  0.26130528  0.25353689  0.51174307  1
  V  V63  1  0.88271439  0.25981928  0.62171283  1
  V  V64  1  0.25368871  0.62466167  0.86827392  1
  V  V65  1  0.25121841  0.38323548  0.12251539  1
  V  V66  1  0.36919391  0.25105719  0.12288095  1
  V  V67  1  0.87421022  0.01481329  0.37473924  1
  V  V68  1  0.12915160  0.13764688  -0.00594971  1
  V  V69  1  0.63514650  0.49534279  0.62636722  1
  V  V70  1  0.12585669  0.86487902  0.24981614  1
  V  V71  1  0.62573483  0.13172160  0.01308273  1
  V  V72  1  0.49249261  0.24994764  0.74053564  1
  Zn  Zn73  1  0.24587292  0.47614110  0.74466915  1
  Zn  Zn74  1  0.12608263  -0.00895573  0.11547518  1
  Zn  Zn75  1  0.00895417  0.73733279  0.25108013  1
  Zn  Zn76  1  0.63297924  0.36958725  0.25111050  1
  Zn  Zn77  1  0.25688050  0.12251543  0.87719574  1
  Zn  Zn78  1  0.75068475  0.76165338  0.00328723  1
  Zn  Zn79  1  0.62582891  0.62842975  -0.00015010  1
  Zn  Zn80  1  -0.00240223  0.00190089  -0.01706090  1
  Zn  Zn81  1  0.50133562  0.50151957  -0.00185398  1
  Zn  Zn82  1  0.18524815  0.18866121  0.18199175  1
  Zn  Zn83  1  0.17766198  0.19532185  0.69371978  1
  Zn  Zn84  1  0.19049023  0.67954333  0.18561147  1
  Zn  Zn85  1  0.18785373  0.68729357  0.68792842  1
  Zn  Zn86  1  0.69047244  0.17779083  0.19802113  1
  Zn  Zn87  1  0.67949853  0.18855449  0.68803417  1
  Zn  Zn88  1  0.69845242  0.67728569  0.19162789  1
  Zn  Zn89  1  0.69560120  0.68620921  0.69164410  1
  Zn  Zn90  1  0.30836741  0.43078495  0.31363512  1
  Zn  Zn91  1  0.28912362  0.27244560  0.79846851  1
  Zn  Zn92  1  0.30647078  0.80553508  0.30921676  1
  Zn  Zn93  1  0.31344486  0.81239686  0.81341183  1
  Zn  Zn94  1  0.81242564  0.31362932  0.31276429  1
  Zn  Zn95  1  0.82169760  0.31688827  0.80828466  1
  Zn  Zn96  1  0.81833995  0.83001929  0.30026027  1
  Zn  Zn97  1  0.80152073  0.81060897  0.79826242  1
  Zn  Zn98  1  0.18087615  0.43315635  0.44828791  1
  Zn  Zn99  1  0.18769528  0.43408184  0.93548326  1
  Zn  Zn100  1  0.18381195  0.93177965  0.43829564  1
  Zn  Zn101  1  0.19010220  0.94742698  0.93350036  1
  Zn  Zn102  1  0.68301949  0.42882274  0.44617880  1
  Zn  Zn103  1  0.68735119  0.43712344  0.93671614  1
  Zn  Zn104  1  0.69319950  0.93838120  0.40626350  1
  Zn  Zn105  1  0.69201422  0.95052219  0.93808771  1
  Zn  Zn106  1  0.30986006  0.06196754  0.06046844  1
  Zn  Zn107  1  0.31526528  0.07212003  0.57296739  1
  Zn  Zn108  1  0.31303778  0.56171684  0.05966143  1
  Zn  Zn109  1  0.30511915  0.56620369  0.43769562  1
  Zn  Zn110  1  0.80699619  0.06230591  0.05062552  1
  Zn  Zn111  1  0.80646422  0.06115072  0.55929006  1
  Zn  Zn112  1  0.81208653  0.56691932  0.05733379  1
  Zn  Zn113  1  0.81184227  0.57628526  0.56937810  1
  Zn  Zn114  1  0.44550198  0.43469563  0.18605127  1
  Zn  Zn115  1  0.44291926  0.44345709  0.69255207  1
  Zn  Zn116  1  0.41812157  0.95571295  0.14650226  1
  Zn  Zn117  1  0.44605813  0.94019618  0.67963475  1
  Zn  Zn118  1  0.93492430  0.43187043  0.18937678  1
  Zn  Zn119  1  0.93687736  0.44321959  0.68881952  1
  Zn  Zn120  1  0.93804295  0.93802001  0.19803269  1
  Zn  Zn121  1  0.93378526  0.94014423  0.69408214  1
  Zn  Zn122  1  0.05896399  0.05837455  0.31221383  1
  Zn  Zn123  1  0.05688769  0.06453577  0.81655937  1
  Zn  Zn124  1  0.06210898  0.55773268  0.31579645  1
  Zn  Zn125  1  0.06906307  0.55165547  0.80979917  1
  Zn  Zn126  1  0.56733904  0.06653386  0.30216528  1
  Zn  Zn127  1  0.55811576  0.06285197  0.82241790  1
  Zn  Zn128  1  0.55940230  0.55770042  0.30655807  1
  Zn  Zn129  1  0.55983629  0.56357576  0.80359512  1
  Zn  Zn130  1  0.43623733  0.18672256  0.43630033  1
  Zn  Zn131  1  0.43784669  0.18418295  0.93643583  1
  Zn  Zn132  1  0.43455676  0.68631665  0.44296042  1
  Zn  Zn133  1  0.44147518  0.68760483  0.93975401  1
  Zn  Zn134  1  0.94088641  0.19043415  0.44422536  1
  Zn  Zn135  1  0.93682626  0.19471629  0.94466872  1
  Zn  Zn136  1  0.93572860  0.68201909  0.44133189  1
  Zn  Zn137  1  0.93074003  0.69001594  0.94593544  1
  Zn  Zn138  1  0.06191485  0.31015378  0.06517200  1
  Zn  Zn139  1  0.07289834  0.31685025  0.56754760  1
  Zn  Zn140  1  0.06221229  0.79535469  0.07479286  1
  Zn  Zn141  1  0.05652848  0.80828596  0.57655342  1
  Zn  Zn142  1  0.56268506  0.31052830  0.05373676  1
  Zn  Zn143  1  0.56402112  0.31490291  0.56101563  1
  Zn  Zn144  1  0.56188398  0.80782624  0.05943180  1
  Zn  Zn145  1  0.55395319  0.81452965  0.55385110  1
  O  O146  1  0.11118356  0.12203663  0.11757475  1
  O  O147  1  0.11799577  0.11962518  0.61961948  1
  O  O148  1  0.12694964  0.60905537  0.11714479  1
  O  O149  1  0.11257101  0.62890023  0.62351250  1
  O  O150  1  0.62411869  0.13100328  0.11764995  1
  O  O151  1  0.60535834  0.14195311  0.61474812  1
  O  O152  1  0.61499964  0.62301320  0.12953770  1
  O  O153  1  0.61794270  0.61936696  0.62682770  1
  O  O154  1  0.39478863  0.37476436  0.36793808  1
  O  O155  1  0.38605372  0.38674139  0.88267272  1
  O  O156  1  0.36944939  0.87880279  0.37946031  1
  O  O157  1  0.36798704  0.88439922  0.88731126  1
  O  O158  1  0.88698913  0.37989499  0.37504236  1
  O  O159  1  0.86755099  0.38688442  0.88730207  1
  O  O160  1  0.89369756  0.88583958  0.37338528  1
  O  O161  1  0.86927993  0.87841917  0.86801184  1
  O  O162  1  0.24113050  0.01101105  0.36683172  1
  O  O163  1  0.27454061  0.00608288  0.88441974  1
  O  O164  1  0.24352690  0.49418266  0.37860078  1
  O  O165  1  0.26441321  0.50812614  0.87945555  1
  O  O166  1  0.77962702  0.00903715  0.41376166  1
  O  O167  1  0.76485555  0.00271026  0.86138147  1
  O  O168  1  0.76267859  0.48769569  0.36756521  1
  O  O169  1  0.75606641  0.51068200  0.88023671  1
  O  O170  1  0.24557358  0.48721738  0.12333187  1
  O  O171  1  0.28924397  0.44203735  0.62465575  1
  O  O172  1  0.24603729  1.00216016  0.14213699  1
  O  O173  1  0.24061357  0.99315020  0.61744872  1
  O  O174  1  0.73842401  0.50784880  0.13356721  1
  O  O175  1  0.74351018  0.49040582  0.61678684  1
  O  O176  1  0.75217823  0.99916643  0.13422224  1
  O  O177  1  0.74999697  1.00692321  0.63815440  1
  O  O178  1  0.00872494  0.36576089  0.25480720  1
  O  O179  1  0.00208744  0.38181732  0.75551551  1
  O  O180  1  0.01016950  0.87271858  0.26449886  1
  O  O181  1  0.01515745  0.87910583  0.74739374  1
  O  O182  1  0.50682899  0.36744155  0.26071234  1
  O  O183  1  0.50115876  0.37086053  0.76041153  1
  O  O184  1  0.47207183  0.89510443  0.25458073  1
  O  O185  1  0.51082489  0.85921954  0.73204492  1
  O  O186  1  0.48626532  0.13892971  0.25848232  1
  O  O187  1  0.50337022  0.13627057  0.73801523  1
  O  O188  1  0.48906732  0.61921879  0.23842594  1
  O  O189  1  0.49726951  0.63362195  0.73172874  1
  O  O190  1  1.00583867  0.13434796  0.23731065  1
  O  O191  1  0.99009725  0.12113244  0.73559101  1
  O  O192  1  0.98528006  0.62212941  0.25739608  1
  O  O193  1  0.99520514  0.62067674  0.74702760  1
  O  O194  1  0.39012276  0.25936275  0.01637168  1
  O  O195  1  0.36060605  0.24920774  0.49325482  1
  O  O196  1  0.36828562  0.75518540  0.00480609  1
  O  O197  1  0.37151997  0.75961925  0.50967746  1
  O  O198  1  0.86592235  0.26068507  0.01063409  1
  O  O199  1  0.86368586  0.24725672  0.50961588  1
  O  O200  1  0.87392391  0.75444005  0.01979353  1
  O  O201  1  0.86841675  0.74517124  0.50958165  1
  O  O202  1  0.12122071  0.23494691  0.49346338  1
  O  O203  1  0.12807121  0.23757040  1.00725889  1
  O  O204  1  0.13822483  0.74948225  0.51076952  1
  O  O205  1  0.14154814  0.73276468  1.01400083  1
  O  O206  1  0.63273489  0.25423118  0.48913801  1
  O  O207  1  0.62677418  0.24694713  0.98519431  1
  O  O208  1  0.62075365  0.73764570  0.48216869  1
  O  O209  1  0.61942589  0.74572829  0.98011259  1
  O  O210  1  0.49462488  0.26186714  0.13741768  1
  O  O211  1  0.50313512  0.25452574  0.63600877  1
  O  O212  1  0.48947491  0.73443951  0.12196557  1
  O  O213  1  0.49901826  0.74188660  0.62549025  1
  O  O214  1  0.99328744  0.24224108  0.13195436  1
  O  O215  1  0.98711830  0.24214117  0.61089961  1
  O  O216  1  0.97899211  0.75119396  0.13802743  1
  O  O217  1  0.98199430  0.73589819  0.62673618  1
  O  O218  1  0.00527813  0.25666158  0.36911648  1
  O  O219  1  -0.00236758  0.29835911  0.91833677  1
  O  O220  1  -0.00667969  0.76041041  0.37465353  1
  O  O221  1  -0.00002235  0.79398337  0.91304930  1
  O  O222  1  0.50919182  0.25943365  0.37356817  1
  O  O223  1  0.50238683  0.26358336  0.86753882  1
  O  O224  1  0.52290034  0.73785153  0.37278439  1
  O  O225  1  0.50643927  0.74523283  0.85833946  1
  O  O226  1  0.24156443  0.12774537  0.49202081  1
  O  O227  1  0.23131738  0.11670870  1.00364453  1
  O  O228  1  0.23833443  0.63740122  0.50370943  1
  O  O229  1  0.24605342  0.62953635  0.99148109  1
  O  O230  1  0.74670459  0.14503605  0.50764297  1
  O  O231  1  0.73112596  0.12682074  0.99804783  1
  O  O232  1  0.73839760  0.63525798  0.51237761  1
  O  O233  1  0.75071830  0.63633029  0.98374775  1
  O  O234  1  0.26274717  0.37689281  0.00670592  1
  O  O235  1  0.23296267  0.35010239  0.50133254  1
  O  O236  1  0.25088719  0.85466493  -0.00293121  1
  O  O237  1  0.25381997  0.86666877  0.50968175  1
  O  O238  1  0.75545944  0.37597938  0.00682475  1
  O  O239  1  0.74984213  0.36177704  0.51378435  1
  O  O240  1  0.74385851  0.87335952  0.00011263  1
  O  O241  1  0.71414350  0.86438696  0.51471598  1
  O  O242  1  0.11517152  0.49146346  0.23528728  1
  O  O243  1  0.13375930  0.48540983  0.74887281  1
  O  O244  1  0.12731842  0.99144625  0.24581330  1
  O  O245  1  0.12467504  1.00306479  0.74000239  1
  O  O246  1  0.63893845  0.50079431  0.24364603  1
  O  O247  1  0.61958805  0.50232594  0.72664310  1
  O  O248  1  0.63398405  1.00706585  0.23133511  1
  O  O249  1  0.63855193  1.01305288  0.75707256  1
  O  O250  1  0.36530916  0.00866566  0.24966149  1
  O  O251  1  0.37184315  -0.00431137  0.74553401  1
  O  O252  1  0.37718426  0.50447986  0.25040332  1
  O  O253  1  0.36580266  0.49359182  0.76337119  1
  O  O254  1  0.86388852  -0.00045189  0.26718047  1
  O  O255  1  0.86660041  0.01465936  0.75648390  1
  O  O256  1  0.86766165  0.50361597  0.25150481  1
  O  O257  1  0.87927350  0.50919938  0.77103251  1
  O  O258  1  0.11275110  0.36780404  0.36757857  1
  O  O259  1  0.13409483  0.37522814  0.85866077  1
  O  O260  1  0.11279759  0.87826781  0.36361469  1
  O  O261  1  0.13715382  0.88269383  0.85540722  1
  O  O262  1  0.61671507  0.36465349  0.37241145  1
  O  O263  1  0.61145806  0.37215742  0.88128142  1
  O  O264  1  0.61811367  0.84761557  0.38262648  1
  O  O265  1  0.62479545  0.86755046  0.87389491  1
  O  O266  1  0.36422681  0.13531524  0.13713353  1
  O  O267  1  0.40087770  0.12945489  0.61578116  1
  O  O268  1  0.38485361  0.62433373  0.13337049  1
  O  O269  1  0.38467020  0.64146920  0.62079946  1
  O  O270  1  0.88642451  0.13949833  0.11329615  1
  O  O271  1  0.88121229  0.13358900  0.63016612  1
  O  O272  1  0.87559521  0.62291462  0.13835189  1
  O  O273  1  0.87996100  0.63206018  0.64695963  1
  O  O274  1  0.25995307  0.26416527  0.13069491  1
  O  O275  1  0.24756481  0.23370626  0.60989828  1
  O  O276  1  0.26644427  0.73411966  0.11150193  1
  O  O277  1  0.26312851  0.75524914  0.62053009  1
  O  O278  1  0.76581304  0.24630492  0.14043070  1
  O  O279  1  0.75512388  0.25898160  0.61724105  1
  O  O280  1  0.76313284  0.74026912  0.12592704  1
  O  O281  1  0.77716877  0.75150356  0.64940851  1
  O  O282  1  0.23215911  0.23795796  0.38230065  1
  O  O283  1  0.29592578  0.23030499  0.90221587  1
  O  O284  1  0.25178170  0.75256719  0.39378504  1
  O  O285  1  0.26206681  0.73405006  0.88682628  1
  O  O286  1  0.74099597  0.25663248  0.38489136  1
  O  O287  1  0.73899538  0.25973556  0.86518906  1
  O  O288  1  0.73221421  0.75118731  0.38394642  1
  O  O289  1  0.73173136  0.74420512  0.86868021  1
  O  O290  1  0.00704063  0.12744403  0.01066752  1
  O  O291  1  0.00887321  0.11666002  0.50910067  1
  O  O292  1  0.02239101  0.63440012  -0.01103953  1
  O  O293  1  0.01220010  0.63204014  0.51323683  1
  O  O294  1  0.52253084  0.13013403  -0.00814760  1
  O  O295  1  0.49837747  0.10995342  0.49700086  1
  O  O296  1  0.50231319  0.61999681  0.01368400  1
  O  O297  1  0.49926506  0.61488233  0.51154298  1
  O  O298  1  0.49983741  0.38377767  0.49110302  1
  O  O299  1  0.49247245  0.37972787  0.98784267  1
  O  O300  1  0.48897436  0.89276479  0.50365766  1
  O  O301  1  0.48300573  0.86259263  0.99570515  1
  O  O302  1  1.00597187  0.36779214  0.48666223  1
  O  O303  1  0.99088480  0.35093893  0.97788046  1
  O  O304  1  1.01523379  0.88105013  0.48946821  1
  O  O305  1  1.01306029  0.84223421  0.97105956  1
  O  O306  1  0.51262627  0.48994375  0.38599584  1
  O  O307  1  0.49174070  0.49401014  0.87006621  1
  O  O308  1  0.49263180  1.00415862  0.37565416  1
  O  O309  1  0.48229458  0.98900221  0.86349834  1
  O  O310  1  0.98904964  0.48470892  0.37512849  1
  O  O311  1  0.99180298  0.50233108  0.88456263  1
  O  O312  1  0.99441758  0.99368095  0.38440936  1
  O  O313  1  0.97609970  1.00192451  0.86668901  1
  O  O314  1  -0.01051614  0.01503081  0.12774777  1
  O  O315  1  0.00944620  0.00627760  0.62032485  1
  O  O316  1  0.00787118  0.49290057  0.11826403  1
  O  O317  1  -0.01392745  0.52138417  0.62166655  1
  O  O318  1  0.51265292  0.01244634  0.13064987  1
  O  O319  1  0.51136393  0.00996879  0.61054602  1
  O  O320  1  0.51567725  0.50829252  0.12700687  1
  O  O321  1  0.50338623  0.50851589  0.61767736  1
  O  O322  1  0.23357465  0.37445843  0.24191723  1
  O  O323  1  0.23032267  0.36147971  0.76648103  1
  O  O324  1  0.23445964  0.88301667  0.25955051  1
  O  O325  1  0.24555674  0.86756312  0.73627340  1
  O  O326  1  0.75245140  0.38842037  0.24626601  1
  O  O327  1  0.75903702  0.37378829  0.72875336  1
  O  O328  1  0.73796560  0.91195398  0.29408654  1
  O  O329  1  0.74362344  0.89013695  0.74416677  1
  O  O330  1  0.25083787  0.12038204  0.25575058  1
  O  O331  1  0.25262358  0.16360369  0.77034895  1
  O  O332  1  0.26494116  0.61821381  0.24694819  1
  O  O333  1  0.24718301  0.62475735  0.76641651  1
  O  O334  1  0.74874678  0.10426275  0.26445834  1
  O  O335  1  0.76231712  0.12729187  0.74507623  1
  O  O336  1  0.76477766  0.60657725  0.25584553  1
  O  O337  1  0.76714625  0.62603683  0.76741345  1
  O  O338  1  0.36024633  0.13223799  0.36113208  1
  O  O339  1  0.38649270  0.10697667  0.87116570  1
  O  O340  1  0.37831034  0.62640938  0.36282137  1
  O  O341  1  0.37010075  0.61132520  0.88146317  1
  O  O342  1  0.89197692  0.11405774  0.37546429  1
  O  O343  1  0.88428872  0.14784104  0.85446150  1
  O  O344  1  0.88080634  0.60588112  0.36984041  1
  O  O345  1  0.87331478  0.61393200  0.87758080  1
  O  O346  1  0.12854332  0.38364256  0.12728589  1
  O  O347  1  0.12416732  0.37398406  0.64542711  1
  O  O348  1  0.11151969  0.87631532  0.14308642  1
  O  O349  1  0.13186676  0.88304645  0.63460541  1
  O  O350  1  0.62103963  0.38851871  0.12604910  1
  O  O351  1  0.63632818  0.38260677  0.62560993  1
  O  O352  1  0.61360765  0.88786823  0.11941795  1
  O  O353  1  0.66451658  0.86592474  0.57123701  1
  O  O354  1  0.11633437  0.25644146  0.25620599  1
  O  O355  1  0.10052272  0.25647238  0.74924897  1
  O  O356  1  0.12901351  0.75882599  0.24526051  1
  O  O357  1  0.12428695  0.76029679  0.74866544  1
  O  O358  1  0.61931713  0.24936717  0.26026695  1
  O  O359  1  0.61289050  0.24977852  0.76521791  1
  O  O360  1  0.63495915  0.74880304  0.27328455  1
  O  O361  1  0.61508644  0.74307408  0.75781591  1
  O  O362  1  0.38420553  0.24650698  0.23913620  1
  O  O363  1  0.39456141  0.25827788  0.75013682  1
  O  O364  1  0.36790684  0.73698670  0.23827432  1
  O  O365  1  0.38873507  0.75840458  0.73483108  1
  O  O366  1  0.88604840  0.26002093  0.23869591  1
  O  O367  1  0.87188202  0.24348591  0.73016781  1
  O  O368  1  0.86567488  0.73375178  0.25112563  1
  O  O369  1  0.88638871  0.73334475  0.77615038  1
  O  O370  1  0.39153921  0.50493587  0.49254067  1
  O  O371  1  0.37896563  0.49006772  0.99213630  1
  O  O372  1  0.37415900  0.99180072  0.50010432  1
  O  O373  1  0.37343078  0.97220123  1.03083845  1
  O  O374  1  0.86785304  0.50691238  0.49167993  1
  O  O375  1  0.87232194  0.48681635  0.99577650  1
  O  O376  1  0.89492637  1.00525910  0.50301285  1
  O  O377  1  0.87668074  0.99988485  0.98300822  1
  O  O378  1  0.11197200  0.00179716  0.00145904  1
  O  O379  1  0.11946522  0.00894662  0.50666643  1
  O  O380  1  0.12895118  0.50650639  0.01093507  1
  O  O381  1  0.12763129  0.51473825  0.50865118  1
  O  O382  1  0.62873117  0.01263922  0.01501477  1
  O  O383  1  0.61217555  -0.00578694  0.47460939  1
  O  O384  1  0.62784794  0.50519344  0.01442817  1
  O  O385  1  0.61215918  0.49476082  0.51634476  1
  O  O386  1  0.36994056  0.37268052  0.11866005  1
  O  O387  1  0.35085568  0.39846274  0.62270704  1
  O  O388  1  0.37677482  0.85076770  0.12195416  1
  O  O389  1  0.36896662  0.87193072  0.61597538  1
  O  O390  1  0.88300761  0.36459505  0.11033359  1
  O  O391  1  0.87200185  0.36466634  0.62378819  1
  O  O392  1  0.86420657  0.86345829  0.15136912  1
  O  O393  1  0.88753383  0.86540949  0.62081615  1
  O  O394  1  0.12592468  0.12917358  0.38137643  1
  O  O395  1  0.11987973  0.12337140  0.89084268  1
  O  O396  1  0.11445611  0.62319298  0.39312946  1
  O  O397  1  0.14234140  0.61189338  0.88766434  1
  O  O398  1  0.61949038  0.14215005  0.37320468  1
  O  O399  1  0.62845444  0.13866197  0.87762388  1
  O  O400  1  0.63164723  0.63974378  0.36960403  1
  O  O401  1  0.63642256  0.61752875  0.87210135  1
