# generated using pymatgen
data_V73Zn73O256
_symmetry_space_group_name_H-M   'P 1'
_cell_length_a   16.92008649
_cell_length_b   16.90382275
_cell_length_c   16.86493570
_cell_angle_alpha   90.13311498
_cell_angle_beta   90.06952000
_cell_angle_gamma   90.04342179
_symmetry_Int_Tables_number   1
_chemical_formula_structural   V73Zn73O256
_chemical_formula_sum   'V73 Zn73 O256'
_cell_volume   4823.59216275
_cell_formula_units_Z   1
loop_
 _symmetry_equiv_pos_site_id
 _symmetry_equiv_pos_as_xyz
  1  'x, y, z'
loop_
 _atom_site_type_symbol
 _atom_site_label
 _atom_site_symmetry_multiplicity
 _atom_site_fract_x
 _atom_site_fract_y
 _atom_site_fract_z
 _atom_site_occupancy
  V  V0  1  0.86210527  0.63141364  0.24549841  1
  V  V1  1  0.12080903  -0.00539164  0.63792215  1
  V  V2  1  0.00049672  0.50077513  0.49609391  1
  V  V3  1  0.74525237  0.38500118  0.13314022  1
  V  V4  1  0.36834411  0.50563478  0.87777210  1
  V  V5  1  0.63123494  0.38044103  0.74496833  1
  V  V6  1  0.62373286  0.38349049  0.25212870  1
  V  V7  1  0.86289203  0.84698109  -0.00202104  1
  V  V8  1  0.24736029  0.51050658  0.75367282  1
  V  V9  1  0.36511274  0.87134131  -0.00029171  1
  V  V10  1  0.11278308  0.36901148  0.75217786  1
  V  V11  1  0.26058598  0.23199694  0.00381875  1
  V  V12  1  0.14209785  0.74824611  0.88448395  1
  V  V13  1  0.49113128  0.13195177  0.12299191  1
  V  V14  1  0.51732992  0.62431708  0.12326953  1
  V  V15  1  0.75105089  0.86888011  0.13878670  1
  V  V16  1  -0.00132247  0.62777705  0.62256804  1
  V  V17  1  0.61846101  0.74495451  0.88148350  1
  V  V18  1  0.36470052  0.37700530  0.01526889  1
  V  V19  1  0.75287076  0.74568978  0.49829696  1
  V  V20  1  0.49287733  0.16590432  0.63052181  1
  V  V21  1  0.13215029  0.61012997  -0.00232112  1
  V  V22  1  0.63260136  0.74366637  0.38108210  1
  V  V23  1  0.12594503  0.38108155  0.22508401  1
  V  V24  1  0.87407006  0.61882951  0.75393188  1
  V  V25  1  0.25572692  0.76080147  0.49971581  1
  V  V26  1  0.51229966  0.75883504  0.25242248  1
  V  V27  1  0.37002867  0.12319181  0.26346404  1
  V  V28  1  0.49452296  0.25318814  0.26092861  1
  V  V29  1  0.24751259  0.49590108  0.23798977  1
  V  V30  1  0.61339233  0.87094013  0.75174750  1
  V  V31  1  0.00593651  0.14157746  0.61092457  1
  V  V32  1  0.38484047  0.74113744  0.62611611  1
  V  V33  1  0.49041842  0.88074516  0.39119441  1
  V  V34  1  0.74582191  0.25828534  0.00554244  1
  V  V35  1  0.61779936  0.25311026  0.87527586  1
  V  V36  1  0.87737013  0.76644250  0.62020455  1
  V  V37  1  0.12506253  0.75433476  0.37024228  1
  V  V38  1  0.62822563  -0.00181783  0.14055809  1
  V  V39  1  0.63809680  0.24736063  0.38294956  1
  V  V40  1  0.38237915  0.49405690  0.38184064  1
  V  V41  1  0.00078053  0.89018387  0.38205647  1
  V  V42  1  0.13124059  0.86940502  0.23161969  1
  V  V43  1  0.25023328  0.87299789  0.65238821  1
  V  V44  1  0.36850209  0.14845580  0.75339000  1
  V  V45  1  0.25231944  0.35925901  0.62100394  1
  V  V46  1  0.87731910  0.25098330  0.12619936  1
  V  V47  1  0.86832013  0.36490588  0.49168895  1
  V  V48  1  0.50346317  -0.01061325  -0.00677706  1
  V  V49  1  0.00608369  0.61560833  0.12331549  1
  V  V50  1  0.49822926  0.37511547  0.87359251  1
  V  V51  1  0.13249616  0.01807510  0.12307328  1
  V  V52  1  0.12712057  0.62765408  0.49612093  1
  V  V53  1  0.00287995  0.75610441  0.76239667  1
  V  V54  1  0.13315327  0.50160569  0.62394359  1
  V  V55  1  0.37162186  0.35721987  0.49464516  1
  V  V56  1  0.39330901  0.62511633  0.75326340  1
  V  V57  1  0.86901337  0.50760427  0.36438004  1
  V  V58  1  0.25653532  -0.00727713  0.25812459  1
  V  V59  1  0.01374952  0.37543122  0.37123252  1
  V  V60  1  0.25114065  0.62456486  0.37677196  1
  V  V61  1  0.00874528  0.23954569  0.25205587  1
  V  V62  1  0.36470373  0.00018950  0.86747950  1
  V  V63  1  0.61828177  0.11177970  0.50900936  1
  V  V64  1  0.84993220  0.25929600  0.64084306  1
  V  V65  1  0.36666324  0.75529409  0.12319946  1
  V  V66  1  0.85163340  0.11829689  0.25424597  1
  V  V67  1  0.74689762  0.00631455  0.75344850  1
  V  V68  1  0.37616015  0.62330182  0.24661079  1
  V  V69  1  0.62458472  0.12636288  -0.00447049  1
  V  V70  1  0.51253813  0.50228981  0.00609176  1
  V  V71  1  0.09483720  0.12083204  -0.01498520  1
  V  V72  1  0.88514791  0.48021541  0.89447563  1
  Zn  Zn73  1  0.74775031  0.62339915  0.89085308  1
  Zn  Zn74  1  0.12431633  0.24850439  0.87143936  1
  Zn  Zn75  1  0.07248052  0.92347333  0.81702969  1
  Zn  Zn76  1  0.88221935  -0.00459300  0.88934712  1
  Zn  Zn77  1  0.57610118  0.54874589  0.56321582  1
  Zn  Zn78  1  0.77426411  0.13126450  0.86571718  1
  Zn  Zn79  1  -0.01631478  0.75967339  0.23697337  1
  Zn  Zn80  1  0.74210199  0.89094066  0.62149291  1
  Zn  Zn81  1  0.74795878  0.50087519  0.74809299  1
  Zn  Zn82  1  0.19695891  0.19424494  0.18741291  1
  Zn  Zn83  1  0.18138679  0.17987949  0.69118488  1
  Zn  Zn84  1  0.18568082  0.68270600  0.17999058  1
  Zn  Zn85  1  0.18537047  0.69246264  0.68979389  1
  Zn  Zn86  1  0.68126635  0.18848638  0.18784539  1
  Zn  Zn87  1  0.67617484  0.18933434  0.68934795  1
  Zn  Zn88  1  0.70611968  0.69730181  0.05253812  1
  Zn  Zn89  1  0.69096312  0.69384036  0.69382295  1
  Zn  Zn90  1  0.30199463  0.30802062  0.31244528  1
  Zn  Zn91  1  0.29898765  0.32341132  0.82299720  1
  Zn  Zn92  1  0.31672440  0.81184449  0.31125521  1
  Zn  Zn93  1  0.32104828  0.80560011  0.82077839  1
  Zn  Zn94  1  0.81643340  0.31117393  0.31276995  1
  Zn  Zn95  1  0.80728047  0.31326776  0.81691945  1
  Zn  Zn96  1  0.81341185  0.82278536  0.31204493  1
  Zn  Zn97  1  0.78962713  0.82061079  0.82209499  1
  Zn  Zn98  1  0.19614807  0.44319089  0.43681462  1
  Zn  Zn99  1  0.18405222  0.43374121  0.93895450  1
  Zn  Zn100  1  0.18889279  0.94060538  0.43493422  1
  Zn  Zn101  1  0.18937444  0.93705313  0.94506961  1
  Zn  Zn102  1  0.69009663  0.44266558  0.42327094  1
  Zn  Zn103  1  0.69812171  0.44489825  0.93423399  1
  Zn  Zn104  1  0.65842195  0.91610307  0.45821992  1
  Zn  Zn105  1  0.69444785  0.93216188  0.93423290  1
  Zn  Zn106  1  0.31565663  0.05403866  0.06821531  1
  Zn  Zn107  1  0.31146118  0.06583766  0.58799733  1
  Zn  Zn108  1  0.31595010  0.56783849  0.05869106  1
  Zn  Zn109  1  0.41690521  0.55260360  0.57150200  1
  Zn  Zn110  1  0.80618285  0.06643336  0.06524349  1
  Zn  Zn111  1  0.79792359  0.08781118  0.58398473  1
  Zn  Zn112  1  0.82266093  0.55908053  0.06712317  1
  Zn  Zn113  1  0.81211464  0.56476190  0.55670806  1
  Zn  Zn114  1  0.44087430  0.44051527  0.19083768  1
  Zn  Zn115  1  0.46557195  0.38554510  0.65908086  1
  Zn  Zn116  1  0.44220957  0.93999609  0.18704817  1
  Zn  Zn117  1  0.43201537  0.92405455  0.69010560  1
  Zn  Zn118  1  0.93694933  0.43632167  0.18247965  1
  Zn  Zn119  1  0.93576518  0.43378697  0.67986894  1
  Zn  Zn120  1  0.93858532  0.96081075  0.09019341  1
  Zn  Zn121  1  0.94910234  0.96755724  0.71081432  1
  Zn  Zn122  1  -0.00162686  0.01939124  0.25642114  1
  Zn  Zn123  1  -0.01119447  0.10456490  0.81139556  1
  Zn  Zn124  1  0.06062028  0.56345958  0.30460649  1
  Zn  Zn125  1  0.06063030  0.56115048  0.81704713  1
  Zn  Zn126  1  0.55796927  0.06479113  0.32303267  1
  Zn  Zn127  1  0.55632525  0.06097479  0.80407370  1
  Zn  Zn128  1  0.56337257  0.56540137  0.31836609  1
  Zn  Zn129  1  0.56306570  0.56061078  0.81720347  1
  Zn  Zn130  1  0.43783975  0.18481931  0.44052561  1
  Zn  Zn131  1  0.43282331  0.18678375  0.93476312  1
  Zn  Zn132  1  0.44555064  0.68354889  0.44221711  1
  Zn  Zn133  1  0.44327330  0.68893018  0.93869171  1
  Zn  Zn134  1  0.94202414  0.17511769  0.43190670  1
  Zn  Zn135  1  0.93158584  0.19825956  0.94666808  1
  Zn  Zn136  1  0.93670329  0.69499461  0.43221736  1
  Zn  Zn137  1  0.94044059  0.67985534  0.94249014  1
  Zn  Zn138  1  0.06917619  0.29894362  0.06253509  1
  Zn  Zn139  1  0.07408492  0.31369507  0.54873806  1
  Zn  Zn140  1  0.05017737  0.80117456  0.05426037  1
  Zn  Zn141  1  0.06638919  0.81820507  0.56279186  1
  Zn  Zn142  1  0.55896682  0.31672344  0.06568238  1
  Zn  Zn143  1  0.58519223  0.36429209  0.53263287  1
  Zn  Zn144  1  0.56613602  0.81380814  0.06591437  1
  Zn  Zn145  1  0.56533730  0.80586988  0.56601795  1
  O  O146  1  0.13030013  0.11852414  0.12501989  1
  O  O147  1  0.11250976  0.10957153  0.63123467  1
  O  O148  1  0.11901820  0.62169511  0.11272007  1
  O  O149  1  0.11655148  0.62116706  0.61809431  1
  O  O150  1  0.61408164  0.11770620  0.11458460  1
  O  O151  1  0.60005192  0.13686683  0.62154011  1
  O  O152  1  0.61335146  0.62914402  0.12557648  1
  O  O153  1  0.66400295  0.59618982  0.62781104  1
  O  O154  1  0.35862819  0.38529539  0.38134804  1
  O  O155  1  0.38186960  0.38750700  0.88446952  1
  O  O156  1  0.39044169  0.86494981  0.37611079  1
  O  O157  1  0.37474112  0.88083765  0.89177897  1
  O  O158  1  0.88933467  0.38847479  0.37451634  1
  O  O159  1  0.87049942  0.38054600  0.88045410  1
  O  O160  1  0.90267142  0.87082171  0.36540172  1
  O  O161  1  0.86173657  0.87341739  0.89486785  1
  O  O162  1  0.24620396  0.00376465  0.35666442  1
  O  O163  1  0.26627465  -0.00066110  0.88423377  1
  O  O164  1  0.25603907  0.51009781  0.36247153  1
  O  O165  1  0.26081186  0.49120391  0.86673139  1
  O  O166  1  0.79641797  -0.00357599  0.42092171  1
  O  O167  1  0.75176417  0.01077229  0.87139388  1
  O  O168  1  0.77019315  0.50200053  0.37202038  1
  O  O169  1  0.77078790  0.50530201  0.86926934  1
  O  O170  1  0.25930543  0.50614972  0.13985101  1
  O  O171  1  0.23607846  0.49909225  0.63182765  1
  O  O172  1  0.23973081  1.00038969  0.13307842  1
  O  O173  1  0.26256964  0.97500015  0.64038784  1
  O  O174  1  0.75429108  0.48239133  0.12779818  1
  O  O175  1  0.72584935  0.53568266  0.63064153  1
  O  O176  1  0.73035766  1.00123988  0.12379187  1
  O  O177  1  0.74825439  1.00628448  0.64134362  1
  O  O178  1  0.01420722  0.37430986  0.25245979  1
  O  O179  1  0.01465167  0.37645061  0.73715538  1
  O  O180  1  0.02778929  0.86962247  0.25817262  1
  O  O181  1  0.00343892  0.85523761  0.74134047  1
  O  O182  1  0.50810941  0.35886234  0.23945532  1
  O  O183  1  0.50664030  0.37812420  0.77035600  1
  O  O184  1  0.49552885  0.86009171  0.25272584  1
  O  O185  1  0.51268031  0.88013400  0.75350069  1
  O  O186  1  0.49012882  0.13219667  0.24283855  1
  O  O187  1  0.48765992  0.12540083  0.73604578  1
  O  O188  1  0.49326428  0.62796975  0.23963271  1
  O  O189  1  0.49109428  0.62013616  0.74838391  1
  O  O190  1  1.01604100  0.14178951  0.25117902  1
  O  O191  1  0.96916545  0.09711856  0.69882168  1
  O  O192  1  1.00209645  0.63204298  0.23894165  1
  O  O193  1  0.99533914  0.63077441  0.73807480  1
  O  O194  1  0.36758819  0.26614278  -0.00660147  1
  O  O195  1  0.35985207  0.25865685  0.48174437  1
  O  O196  1  0.38418996  0.76032156  0.01114347  1
  O  O197  1  0.36556170  0.73354651  0.51802109  1
  O  O198  1  0.86117117  0.25341569  0.01829271  1
  O  O199  1  0.88125560  0.26679690  0.47580060  1
  O  O200  1  0.86262197  0.74640653  -0.00296989  1
  O  O201  1  0.87140686  0.75360367  0.50955218  1
  O  O202  1  0.14930489  0.23834879  0.48541032  1
  O  O203  1  0.13525317  0.21942960  1.00529480  1
  O  O204  1  0.13585565  0.74525823  0.48990997  1
  O  O205  1  0.12297083  0.74090665  0.98804196  1
  O  O206  1  0.62089078  0.26690953  0.48183489  1
  O  O207  1  0.62714563  0.24529970  0.99861596  1
  O  O208  1  0.63735711  0.74385724  0.49358972  1
  O  O209  1  0.62248063  0.75002704  0.99137266  1
  O  O210  1  0.50435043  0.23563927  0.13274314  1
  O  O211  1  0.48983492  0.26368569  0.63882754  1
  O  O212  1  0.49817168  0.74021103  0.13495261  1
  O  O213  1  0.48273028  0.74859481  0.62611183  1
  O  O214  1  0.98457410  0.26065824  0.13544359  1
  O  O215  1  1.01644023  0.24252832  0.61692415  1
  O  O216  1  1.00375521  0.73107062  0.12903348  1
  O  O217  1  0.99586708  0.74366595  0.62269708  1
  O  O218  1  -0.00032865  0.26012577  0.35772459  1
  O  O219  1  0.01087787  0.28064337  0.91201157  1
  O  O220  1  0.01895242  0.75243212  0.37113345  1
  O  O221  1  -0.00631541  0.74994237  0.86277227  1
  O  O222  1  0.50107607  0.25064927  0.36246079  1
  O  O223  1  0.50780428  0.26398636  0.89174355  1
  O  O224  1  0.50315327  0.74865998  0.36452073  1
  O  O225  1  0.51554664  0.74762342  0.87605277  1
  O  O226  1  0.22292221  0.07796877  0.51374788  1
  O  O227  1  0.27199193  0.13226831  0.99591885  1
  O  O228  1  0.24399401  0.63136873  0.48420552  1
  O  O229  1  0.23330707  0.62037900  1.00300226  1
  O  O230  1  0.71633614  0.13220659  0.51609800  1
  O  O231  1  0.73553807  0.13886147  1.00191753  1
  O  O232  1  0.76046145  0.64520885  0.49358862  1
  O  O233  1  0.74670224  0.60887036  1.00418742  1
  O  O234  1  0.26378268  0.38422422  0.00615795  1
  O  O235  1  0.25060239  0.37877590  0.51334958  1
  O  O236  1  0.26725898  0.87819050  0.00970730  1
  O  O237  1  0.25593224  0.86093489  0.49232184  1
  O  O238  1  0.73597036  0.36650762  0.01719867  1
  O  O239  1  0.77095670  0.37948703  0.48604412  1
  O  O240  1  0.75629760  0.87690877  0.01409450  1
  O  O241  1  0.74227862  0.85982876  0.51038713  1
  O  O242  1  0.13231302  0.48807334  0.24971357  1
  O  O243  1  0.12762663  0.49408863  0.74138993  1
  O  O244  1  0.14235158  0.98580122  0.23787490  1
  O  O245  1  0.12971924  0.99052998  0.73748502  1
  O  O246  1  0.61429294  0.48218337  0.25782186  1
  O  O247  1  0.62655404  0.48402598  0.76235131  1
  O  O248  1  0.61581585  1.01167103  0.23834606  1
  O  O249  1  0.63146813  0.98482989  0.76375879  1
  O  O250  1  0.36559190  0.00888431  0.24191984  1
  O  O251  1  0.37733124  -0.01036542  0.76775062  1
  O  O252  1  0.36921458  0.50545956  0.25664747  1
  O  O253  1  0.36548028  0.51475872  0.76054827  1
  O  O254  1  0.88517572  0.02552221  0.22538428  1
  O  O255  1  0.84860184  -0.00653494  0.75753239  1
  O  O256  1  0.88385174  0.50730804  0.26094894  1
  O  O257  1  0.87190578  0.51261064  0.73383678  1
  O  O258  1  0.11561853  0.38289797  0.37533445  1
  O  O259  1  0.12757905  0.38219659  0.85320045  1
  O  O260  1  0.12831048  0.86667419  0.36879393  1
  O  O261  1  0.12992873  0.85828289  0.88667730  1
  O  O262  1  0.62844377  0.36049876  0.35730990  1
  O  O263  1  0.61813920  0.36957626  0.87745511  1
  O  O264  1  0.60739308  0.85391670  0.37675304  1
  O  O265  1  0.63232831  0.86000515  0.86669625  1
  O  O266  1  0.38906838  0.12085627  0.13192200  1
  O  O267  1  0.38354398  0.13851748  0.63735860  1
  O  O268  1  0.38225635  0.63587392  0.13079917  1
  O  O269  1  0.36771245  0.63083770  0.64398732  1
  O  O270  1  0.86331692  0.14682510  0.13529233  1
  O  O271  1  0.87788242  0.16548693  0.60078951  1
  O  O272  1  0.88706036  0.62080391  0.13952425  1
  O  O273  1  0.88899858  0.62779601  0.62552177  1
  O  O274  1  0.24862500  0.25178044  0.10347391  1
  O  O275  1  0.23927424  0.26167550  0.62668643  1
  O  O276  1  0.26868178  0.74723739  0.12801190  1
  O  O277  1  0.24779474  0.75724220  0.61748375  1
  O  O278  1  0.75248280  0.25737961  0.12219588  1
  O  O279  1  0.75076254  0.25640645  0.63244101  1
  O  O280  1  0.73351981  0.76960629  0.13358397  1
  O  O281  1  0.76780166  0.74789383  0.61744721  1
  O  O282  1  0.23671356  0.23017684  0.38321799  1
  O  O283  1  0.23619162  0.26508001  0.90032975  1
  O  O284  1  0.24848734  0.74162934  0.37838127  1
  O  O285  1  0.24051404  0.74178812  0.87611537  1
  O  O286  1  0.73681939  0.24631152  0.36842283  1
  O  O287  1  0.73908907  0.24803610  0.88923131  1
  O  O288  1  0.74065469  0.76170318  0.38525668  1
  O  O289  1  0.73597655  0.73927640  0.87632859  1
  O  O290  1  0.00213108  0.12919559  0.01592342  1
  O  O291  1  -0.00554607  0.11469318  0.51243766  1
  O  O292  1  0.00796516  0.62523655  0.01424459  1
  O  O293  1  0.00586829  0.61983046  0.50239558  1
  O  O294  1  0.50011426  0.12047406  0.01087804  1
  O  O295  1  0.50014983  0.14107733  0.52260067  1
  O  O296  1  0.49548375  0.61365794  0.01301488  1
  O  O297  1  0.49684545  0.61749054  0.51488122  1
  O  O298  1  0.47026009  0.36616682  0.50366547  1
  O  O299  1  0.49171926  0.38792451  0.99944452  1
  O  O300  1  0.50231527  0.86558691  0.49170603  1
  O  O301  1  0.49633608  0.88797599  1.00600988  1
  O  O302  1  0.99896932  0.38421639  0.49033110  1
  O  O303  1  1.01585509  0.34094975  0.96758488  1
  O  O304  1  1.01499577  0.87785034  0.48202510  1
  O  O305  1  0.96840508  0.86962566  1.01485731  1
  O  O306  1  0.48062571  0.50046772  0.36849524  1
  O  O307  1  0.49105514  0.49613898  0.89027632  1
  O  O308  1  0.50357907  0.97976978  0.37304202  1
  O  O309  1  0.49019101  1.00422008  0.89136127  1
  O  O310  1  0.99909419  0.49619521  0.38280913  1
  O  O311  1  0.98085153  0.49643047  0.86262422  1
  O  O312  1  1.01574747  0.98943304  0.36473049  1
  O  O313  1  0.98478541  0.99056637  0.83050402  1
  O  O314  1  0.03024891  -0.00209903  0.14320536  1
  O  O315  1  0.02426332  -0.02517085  0.61890299  1
  O  O316  1  -0.00004546  0.51310460  0.13009271  1
  O  O317  1  0.00894668  0.50663954  0.61297681  1
  O  O318  1  0.50758091  0.00982729  0.11677127  1
  O  O319  1  0.46373437  -0.00988910  0.59420164  1
  O  O320  1  0.49941154  0.51153103  0.11754589  1
  O  O321  1  0.49337823  0.49060748  0.62799583  1
  O  O322  1  0.23265230  0.37818825  0.25097900  1
  O  O323  1  0.24487948  0.38657440  0.73523059  1
  O  O324  1  0.24868303  0.88442463  0.25074149  1
  O  O325  1  0.24362726  0.85959564  0.75065021  1
  O  O326  1  0.73561079  0.36853275  0.24392939  1
  O  O327  1  0.73554307  0.37812965  0.75136273  1
  O  O328  1  0.75302105  0.88451186  0.23956881  1
  O  O329  1  0.73826792  0.88636609  0.74435509  1
  O  O330  1  0.26500451  0.12054113  0.24625322  1
  O  O331  1  0.27062633  0.12506121  0.73939042  1
  O  O332  1  0.25871409  0.62001587  0.25523277  1
  O  O333  1  0.24289442  0.61208260  0.75012109  1
  O  O334  1  0.75126459  0.12310465  0.25102527  1
  O  O335  1  0.73246781  0.11417748  0.75532309  1
  O  O336  1  0.76731605  0.62127663  0.24384205  1
  O  O337  1  0.77179609  0.63085747  0.75109726  1
  O  O338  1  0.38300516  0.11814122  0.36216191  1
  O  O339  1  0.38257847  0.11243081  0.86123911  1
  O  O340  1  0.36989653  0.61720139  0.36513788  1
  O  O341  1  0.38200583  0.61656991  0.86876765  1
  O  O342  1  0.88042142  0.12542396  0.35203500  1
  O  O343  1  0.89009200  0.12836711  0.87070846  1
  O  O344  1  0.88611955  0.61329934  0.36643962  1
  O  O345  1  0.88386209  0.61741805  0.85808635  1
  O  O346  1  0.12088378  0.38100875  0.12603230  1
  O  O347  1  0.13344663  0.38296759  0.62725593  1
  O  O348  1  0.12714637  0.86629485  0.13118580  1
  O  O349  1  0.14637607  0.88163609  0.61660345  1
  O  O350  1  0.63293373  0.36799423  0.13977711  1
  O  O351  1  0.61137120  0.36638574  0.64781216  1
  O  O352  1  0.62836889  0.89248750  0.12487093  1
  O  O353  1  0.62523883  0.86499765  0.64269708  1
  O  O354  1  0.11614095  0.26560403  0.23640420  1
  O  O355  1  0.12857893  0.26313686  0.75302064  1
  O  O356  1  0.14392299  0.76105868  0.25644392  1
  O  O357  1  0.11130473  0.73887898  0.76675485  1
  O  O358  1  0.60924815  0.24533950  0.26055033  1
  O  O359  1  0.62706587  0.26123737  0.76968772  1
  O  O360  1  0.61166938  0.74958131  0.25998336  1
  O  O361  1  0.62714521  0.76004449  0.75911186  1
  O  O362  1  0.38209730  0.23902005  0.25683935  1
  O  O363  1  0.37011460  0.24672182  0.76986200  1
  O  O364  1  0.38275682  0.74066260  0.24008249  1
  O  O365  1  0.36979767  0.73108082  0.74722326  1
  O  O366  1  0.88564197  0.24121200  0.24522425  1
  O  O367  1  0.87145192  0.25843978  0.73917411  1
  O  O368  1  0.87430992  0.73556575  0.26501403  1
  O  O369  1  0.88920696  0.73677817  0.73419743  1
  O  O370  1  0.36539879  0.49513435  0.48362988  1
  O  O371  1  0.38045100  0.49394089  0.99589382  1
  O  O372  1  0.40965744  0.99797342  0.54058531  1
  O  O373  1  0.38556724  0.98832253  0.99986599  1
  O  O374  1  0.88624025  0.49492258  0.49216119  1
  O  O375  1  0.88377509  0.49429025  0.99412638  1
  O  O376  1  0.84339607  1.00594604  0.47675734  1
  O  O377  1  0.87674811  1.00518616  1.00556984  1
  O  O378  1  0.13013674  0.01677237  0.00901561  1
  O  O379  1  0.16855430  0.01652348  0.52166548  1
  O  O380  1  0.11905820  0.51087006  -0.01149144  1
  O  O381  1  0.11953985  0.50736741  0.50415275  1
  O  O382  1  0.61199410  0.00796260  0.00018003  1
  O  O383  1  0.61548973  0.01215861  0.50140609  1
  O  O384  1  0.61008772  0.49545765  -0.00372401  1
  O  O385  1  0.61377203  0.46670402  0.49606465  1
  O  O386  1  0.38116740  0.37874174  0.11373131  1
  O  O387  1  0.35823077  0.37074356  0.61166498  1
  O  O388  1  0.38442081  0.86209463  0.11866013  1
  O  O389  1  0.36071205  0.84939934  0.63885041  1
  O  O390  1  0.85682102  0.36189289  0.14266080  1
  O  O391  1  0.88226228  0.36092687  0.60448559  1
  O  O392  1  0.85608358  0.87488060  0.11820703  1
  O  O393  1  0.87848103  0.86382034  0.63290346  1
  O  O394  1  0.16224717  0.24524180  0.40680263  1
  O  O395  1  0.08639569  0.13046349  0.88100419  1
  O  O396  1  0.13401351  0.63183203  0.37378494  1
  O  O397  1  0.11517684  0.63517053  0.88749272  1
  O  O398  1  0.60814629  0.13823594  0.39713737  1
  O  O399  1  0.60871538  0.13629249  0.88803135  1
  O  O400  1  0.62362161  0.64288509  0.37166539  1
  O  O401  1  0.62880796  0.63655948  0.86742373  1
