# generated using pymatgen
data_V73Zn73O256
_symmetry_space_group_name_H-M   'P 1'
_cell_length_a   16.85535603
_cell_length_b   16.87007418
_cell_length_c   16.85384946
_cell_angle_alpha   89.82789710
_cell_angle_beta   89.91684156
_cell_angle_gamma   90.02532502
_symmetry_Int_Tables_number   1
_chemical_formula_structural   V73Zn73O256
_chemical_formula_sum   'V73 Zn73 O256'
_cell_volume   4792.38359987
_cell_formula_units_Z   1
loop_
 _symmetry_equiv_pos_site_id
 _symmetry_equiv_pos_as_xyz
  1  'x, y, z'
loop_
 _atom_site_type_symbol
 _atom_site_label
 _atom_site_symmetry_multiplicity
 _atom_site_fract_x
 _atom_site_fract_y
 _atom_site_fract_z
 _atom_site_occupancy
  V  V0  1  0.62171260  0.62052012  0.01439839  1
  V  V1  1  0.25460656  0.85364372  0.62267851  1
  V  V2  1  -0.00120564  0.62230321  0.63062945  1
  V  V3  1  0.62648076  0.24911904  0.38495808  1
  V  V4  1  0.13395855  0.62530315  0.50313798  1
  V  V5  1  0.73972485  0.25340110  -0.00309929  1
  V  V6  1  0.50232901  0.23260823  0.24746035  1
  V  V7  1  0.00067511  0.49336133  0.49881864  1
  V  V8  1  0.25467015  0.35644829  0.62807658  1
  V  V9  1  -0.01827425  0.37857213  0.87895707  1
  V  V10  1  0.11173983  0.75286060  0.38570561  1
  V  V11  1  0.76030490  0.74972728  0.00684091  1
  V  V12  1  0.50306054  0.75274485  0.74423166  1
  V  V13  1  0.61770332  0.11413944  0.00959090  1
  V  V14  1  0.74701171  0.49732295  0.75045665  1
  V  V15  1  0.13431415  -0.00206516  0.12686577  1
  V  V16  1  0.51534000  0.10853465  0.61932580  1
  V  V17  1  0.37997142  0.87456237  0.49362909  1
  V  V18  1  0.74047395  -0.00225397  0.24545013  1
  V  V19  1  0.88194342  0.49381962  0.37335823  1
  V  V20  1  0.36930139  0.25559810  0.12285544  1
  V  V21  1  0.13489823  0.50171124  0.64136394  1
  V  V22  1  0.50138147  0.49856582  0.01073580  1
  V  V23  1  0.50665696  0.61567188  0.62440637  1
  V  V24  1  0.49630070  0.76031323  0.24395407  1
  V  V25  1  0.87286095  0.75115581  0.62344148  1
  V  V26  1  0.00137153  0.26178443  0.26664055  1
  V  V27  1  0.74064216  0.12402988  0.38513478  1
  V  V28  1  0.73338172  0.37768436  0.12821212  1
  V  V29  1  0.87465759  0.61741603  0.75460779  1
  V  V30  1  -0.00952673  0.50889617  0.00958513  1
  V  V31  1  0.00525452  0.12512618  0.12065999  1
  V  V32  1  0.25032534  0.10151849  0.38187808  1
  V  V33  1  0.74898368  -0.01731719  0.76507762  1
  V  V34  1  0.87813437  0.88981505  -0.00733744  1
  V  V35  1  0.23541635  0.37343497  0.11503293  1
  V  V36  1  0.50827604  -0.00121411  0.46966990  1
  V  V37  1  0.00787848  -0.00183693  0.52492823  1
  V  V38  1  0.74567464  0.87644827  0.12832673  1
  V  V39  1  0.00173942  0.00944853  -0.01649774  1
  V  V40  1  0.62640884  0.75223987  0.87465235  1
  V  V41  1  0.37057459  0.00136210  0.88632683  1
  V  V42  1  0.88435313  0.62589613  0.23709787  1
  V  V43  1  0.14120531  0.26464688  0.38239756  1
  V  V44  1  0.74372427  0.62141638  0.37657875  1
  V  V45  1  0.87597477  0.12415821  0.25126972  1
  V  V46  1  0.36836609  0.50218400  0.87766835  1
  V  V47  1  0.87639071  0.26179570  0.12066021  1
  V  V48  1  0.62422198  0.37157492  0.75105265  1
  V  V49  1  0.36646464  0.62255529  0.75115047  1
  V  V50  1  0.32717693  0.73966975  0.07620535  1
  V  V51  1  0.49262753  0.37661247  0.36941560  1
  V  V52  1  0.00306482  0.76556052  0.75800577  1
  V  V53  1  0.49975969  0.36845514  0.87999004  1
  V  V54  1  0.89558110  0.23471170  0.62857895  1
  V  V55  1  0.75730529  0.12618475  0.87306534  1
  V  V56  1  0.62434052  0.76539295  0.36724153  1
  V  V57  1  0.13102869  0.24369667  0.89438455  1
  V  V58  1  0.00173337  0.75721123  0.23476113  1
  V  V59  1  0.37750667  0.12573056  0.74890050  1
  V  V60  1  0.75052928  0.61772552  0.87673519  1
  V  V61  1  0.73661431  0.87741866  0.62048998  1
  V  V62  1  0.49860210  0.25150407  0.73773755  1
  V  V63  1  0.50760907  0.88444452  0.88289398  1
  V  V64  1  0.11999016  0.36116659  0.75706283  1
  V  V65  1  0.26155176  0.62754594  0.37414423  1
  V  V66  1  0.24233391  0.49467370  0.25030351  1
  V  V67  1  0.75359790  0.36591460  0.61310641  1
  V  V68  1  0.36401905  0.10884216  0.25042714  1
  V  V69  1  0.74270157  0.74168331  0.49900372  1
  V  V70  1  0.73948164  0.49798720  0.24532719  1
  V  V71  1  0.89014230  -0.00703306  0.37381385  1
  V  V72  1  0.24922584  -0.00497248  0.74085402  1
  Zn  Zn73  1  0.49800297  0.50209545  0.48660094  1
  Zn  Zn74  1  0.14001939  0.89280207  0.26493290  1
  Zn  Zn75  1  0.38640989  0.62929807  0.23562030  1
  Zn  Zn76  1  0.37364982  0.36834666  0.50247191  1
  Zn  Zn77  1  0.12525681  0.12264058  0.50348528  1
  Zn  Zn78  1  0.88433928  0.86634741  0.49111208  1
  Zn  Zn79  1  0.87814169  0.36367140  0.49163576  1
  Zn  Zn80  1  0.50353787  -0.00243840  0.03945200  1
  Zn  Zn81  1  0.63085838  0.50199636  0.60437175  1
  Zn  Zn82  1  0.18667902  0.19178319  0.19633586  1
  Zn  Zn83  1  0.19662878  0.18928325  0.70811172  1
  Zn  Zn84  1  0.20758185  0.72774581  0.21078461  1
  Zn  Zn85  1  0.18459410  0.69305640  0.69283789  1
  Zn  Zn86  1  0.68672432  0.18337463  0.18884742  1
  Zn  Zn87  1  0.68782474  0.18789793  0.68643646  1
  Zn  Zn88  1  0.68882260  0.68950728  0.19209151  1
  Zn  Zn89  1  0.68481604  0.68748523  0.68810917  1
  Zn  Zn90  1  0.31601106  0.30904851  0.30823860  1
  Zn  Zn91  1  0.31028454  0.31840458  0.81538178  1
  Zn  Zn92  1  0.31141597  0.81292204  0.32053416  1
  Zn  Zn93  1  0.33875402  0.82776442  0.79691613  1
  Zn  Zn94  1  0.80941766  0.31106079  0.31097619  1
  Zn  Zn95  1  0.81105657  0.30321154  0.80430785  1
  Zn  Zn96  1  0.81635233  0.80912286  0.30984860  1
  Zn  Zn97  1  0.81629478  0.80776157  0.81379356  1
  Zn  Zn98  1  0.19524421  0.44483440  0.44323213  1
  Zn  Zn99  1  0.17720034  0.44343976  0.94639567  1
  Zn  Zn100  1  0.18561947  0.93192657  0.45313698  1
  Zn  Zn101  1  0.18919090  1.07354339  0.94213565  1
  Zn  Zn102  1  0.67766673  0.43592879  0.43070833  1
  Zn  Zn103  1  0.68510025  0.43495931  0.93871895  1
  Zn  Zn104  1  0.69346422  0.94076460  0.44018961  1
  Zn  Zn105  1  0.68610739  0.93953965  0.94194852  1
  Zn  Zn106  1  0.32015158  0.06998642  0.06226661  1
  Zn  Zn107  1  0.32550715  0.05984387  0.55994016  1
  Zn  Zn108  1  0.33820627  0.54027835  0.09534176  1
  Zn  Zn109  1  0.32292155  0.55686735  0.56275991  1
  Zn  Zn110  1  0.81329589  0.06804944  0.06331239  1
  Zn  Zn111  1  0.81843019  0.06051210  0.56424543  1
  Zn  Zn112  1  0.81779683  0.55621161  0.05699010  1
  Zn  Zn113  1  0.81303562  0.55700551  0.56243226  1
  Zn  Zn114  1  0.43224333  0.42938164  0.20032635  1
  Zn  Zn115  1  0.43230026  0.44070008  0.69055214  1
  Zn  Zn116  1  0.40242826  0.90859612  0.17746010  1
  Zn  Zn117  1  0.43784980  0.93809128  0.68489776  1
  Zn  Zn118  1  0.94361735  0.44269613  0.18440107  1
  Zn  Zn119  1  0.93793092  0.43130829  0.68909657  1
  Zn  Zn120  1  0.93436148  0.93381360  0.18191228  1
  Zn  Zn121  1  0.91992732  0.94274632  0.69617978  1
  Zn  Zn122  1  0.06938219  0.07338375  0.31007952  1
  Zn  Zn123  1  0.06517451  0.06694497  0.80076426  1
  Zn  Zn124  1  0.06617303  0.56525552  0.31083385  1
  Zn  Zn125  1  0.07220722  0.54532497  0.84291051  1
  Zn  Zn126  1  0.52591781  -0.01619631  0.25685088  1
  Zn  Zn127  1  0.57937485  0.07306228  0.81186860  1
  Zn  Zn128  1  0.55885396  0.56786430  0.30792356  1
  Zn  Zn129  1  0.56031681  0.56036225  0.81569820  1
  Zn  Zn130  1  0.43298022  0.18368033  0.43822854  1
  Zn  Zn131  1  0.42986069  0.18141216  0.94182202  1
  Zn  Zn132  1  0.44251302  0.69591318  0.44134545  1
  Zn  Zn133  1  0.43815581  0.68654563  0.93585354  1
  Zn  Zn134  1  0.93459839  0.18077374  0.45046608  1
  Zn  Zn135  1  0.93864113  0.19960627  0.93272751  1
  Zn  Zn136  1  0.93403010  0.67639220  0.43783190  1
  Zn  Zn137  1  0.93884059  0.68787381  0.93801886  1
  Zn  Zn138  1  0.06057820  0.31900856  0.05951716  1
  Zn  Zn139  1  0.06915977  0.31036305  0.56119043  1
  Zn  Zn140  1  0.06173731  0.82366699  0.05908301  1
  Zn  Zn141  1  0.06408626  0.81858345  0.57080919  1
  Zn  Zn142  1  0.55688940  0.30818495  0.06727447  1
  Zn  Zn143  1  0.56568934  0.31325055  0.55954611  1
  Zn  Zn144  1  0.56595157  0.81438877  0.06443041  1
  Zn  Zn145  1  0.55559780  0.81237211  0.55461016  1
  O  O146  1  0.10901594  0.12675484  0.13031845  1
  O  O147  1  0.11174994  0.12334560  0.65111451  1
  O  O148  1  0.12702488  0.67140891  0.01103571  1
  O  O149  1  0.11870588  0.61753907  0.62475353  1
  O  O150  1  0.63157968  0.12476165  0.11032517  1
  O  O151  1  0.61242911  0.13600409  0.62049958  1
  O  O152  1  0.63243484  0.62641420  0.11289865  1
  O  O153  1  0.61252012  0.62220061  0.62949975  1
  O  O154  1  0.38910646  0.36830188  0.37621656  1
  O  O155  1  0.39024005  0.38741784  0.86700548  1
  O  O156  1  0.36448998  0.87934982  0.39311850  1
  O  O157  1  0.39446501  0.89096490  0.87492190  1
  O  O158  1  0.86719940  0.38893192  0.37486949  1
  O  O159  1  0.88416212  0.35623008  0.87559947  1
  O  O160  1  0.87115796  0.88949345  0.37217875  1
  O  O161  1  0.86396445  0.87625293  0.89261955  1
  O  O162  1  0.23856448  0.00265942  0.37348878  1
  O  O163  1  0.26923924  -0.00238525  0.87428007  1
  O  O164  1  0.24832720  0.51368440  0.36471232  1
  O  O165  1  0.27034841  0.49136059  0.88970935  1
  O  O166  1  0.75986920  0.00739685  0.36364297  1
  O  O167  1  0.75168811  0.00789434  0.87029898  1
  O  O168  1  0.75616077  0.50257637  0.36115032  1
  O  O169  1  0.74444241  0.50836554  0.86761312  1
  O  O170  1  0.24430597  0.48392996  0.13122866  1
  O  O171  1  0.23481876  0.50580873  0.63075986  1
  O  O172  1  0.23201754  1.01238519  0.11312364  1
  O  O173  1  0.25299464  1.00890575  0.64040372  1
  O  O174  1  0.75441337  0.48750790  0.13291211  1
  O  O175  1  0.74733703  0.49225627  0.63420277  1
  O  O176  1  0.75761810  0.99432481  0.13750546  1
  O  O177  1  0.75045579  0.97711014  0.61001858  1
  O  O178  1  -0.00661224  0.35974798  0.24917321  1
  O  O179  1  0.01160427  0.37993147  0.76046950  1
  O  O180  1  0.00188415  0.86047315  0.24545402  1
  O  O181  1  -0.01655726  0.86449456  0.74865409  1
  O  O182  1  0.49663151  0.35460135  0.26169414  1
  O  O183  1  0.50515516  0.37027637  0.75653216  1
  O  O184  1  0.49173951  0.86407018  0.25945099  1
  O  O185  1  0.49514639  0.85749388  0.75761483  1
  O  O186  1  0.47981763  0.13031210  0.25529503  1
  O  O187  1  0.50414475  0.13428375  0.74191372  1
  O  O188  1  0.50002100  0.64502623  0.25641809  1
  O  O189  1  0.49740928  0.63294391  0.74645235  1
  O  O190  1  0.99217461  0.13709885  0.23996329  1
  O  O191  1  1.04601122  0.11681303  0.69306685  1
  O  O192  1  0.98848359  0.62738519  0.24871471  1
  O  O193  1  0.99005963  0.62608523  0.74165817  1
  O  O194  1  0.38408169  0.24549772  0.02354110  1
  O  O195  1  0.38087292  0.25549289  0.50615542  1
  O  O196  1  0.34611964  0.73892004  -0.02531988  1
  O  O197  1  0.39512517  0.77401808  0.50849175  1
  O  O198  1  0.86178421  0.24645259  0.01787113  1
  O  O199  1  0.87769238  0.25307384  0.51590918  1
  O  O200  1  0.86400676  0.75910730  -0.00300821  1
  O  O201  1  0.86727803  0.74603691  0.50761928  1
  O  O202  1  0.11606554  0.23998786  0.48474762  1
  O  O203  1  0.12664032  0.24748324  0.99462078  1
  O  O204  1  0.11624936  0.73686606  0.49673682  1
  O  O205  1  0.09274123  0.73127582  0.98403450  1
  O  O206  1  0.62344889  0.24502109  0.48451674  1
  O  O207  1  0.63634519  0.24447565  1.00808033  1
  O  O208  1  0.63689550  0.75110983  0.48853791  1
  O  O209  1  0.63430726  0.73827555  0.99516898  1
  O  O210  1  0.48839001  0.25307570  0.14053006  1
  O  O211  1  0.49792333  0.25013620  0.63498849  1
  O  O212  1  0.50950327  0.75732338  0.14274041  1
  O  O213  1  0.50805739  0.74259261  0.64037393  1
  O  O214  1  0.98864636  0.24476876  0.12677416  1
  O  O215  1  0.99612684  0.25231962  0.62542371  1
  O  O216  1  1.01219500  0.74930527  0.13563813  1
  O  O217  1  0.98942507  0.74167357  0.63021482  1
  O  O218  1  -0.00916495  0.24824099  0.36677749  1
  O  O219  1  0.01572916  0.26528287  0.88186919  1
  O  O220  1  0.00773546  0.74436679  0.37914354  1
  O  O221  1  -0.00858445  0.74556476  0.85689750  1
  O  O222  1  0.51037837  0.24691948  0.36731395  1
  O  O223  1  0.49288236  0.26593290  0.87355334  1
  O  O224  1  0.52220494  0.75039507  0.37709007  1
  O  O225  1  0.51040793  0.75924836  0.87427890  1
  O  O226  1  0.24960927  0.11322374  0.48862480  1
  O  O227  1  0.27925765  0.12734602  0.97588821  1
  O  O228  1  0.24065672  0.61315736  0.49504912  1
  O  O229  1  0.20153828  0.65076235  0.89754763  1
  O  O230  1  0.75537251  0.11604023  0.48309495  1
  O  O231  1  0.74436494  0.13744632  1.00021535  1
  O  O232  1  0.75720795  0.63094892  0.49060094  1
  O  O233  1  0.74461966  0.62822421  0.99599512  1
  O  O234  1  0.24124138  0.37794197  0.01475888  1
  O  O235  1  0.24915756  0.38357593  0.52565472  1
  O  O236  1  0.21801148  0.85731166  -0.01268981  1
  O  O237  1  0.26611933  0.87986899  0.51475776  1
  O  O238  1  0.74247631  0.36523893  0.01414909  1
  O  O239  1  0.74860486  0.38246597  0.51149259  1
  O  O240  1  0.75751020  0.87164446  0.00794809  1
  O  O241  1  0.75702587  0.86071919  0.50727536  1
  O  O242  1  0.14233779  0.51167429  0.24637440  1
  O  O243  1  0.12026604  0.50179209  0.74358987  1
  O  O244  1  0.12020214  1.00266410  0.23399862  1
  O  O245  1  0.15245823  1.00166523  0.76658896  1
  O  O246  1  0.64167502  0.50627065  0.24836059  1
  O  O247  1  0.63504895  0.49226622  0.74991322  1
  O  O248  1  0.64276555  0.99910176  0.25295681  1
  O  O249  1  0.65821864  1.02005551  0.74023767  1
  O  O250  1  0.36580889  0.00932012  0.24325576  1
  O  O251  1  0.37180205  0.00549239  0.76067435  1
  O  O252  1  0.35993606  0.51635161  0.22316954  1
  O  O253  1  0.37619206  0.51051913  0.76506473  1
  O  O254  1  0.87227488  0.00680594  0.25608893  1
  O  O255  1  0.84066185  0.01552169  0.73316694  1
  O  O256  1  0.87537924  0.50919205  0.25455161  1
  O  O257  1  0.86213371  0.50912635  0.74287169  1
  O  O258  1  0.13198256  0.36470905  0.38608207  1
  O  O259  1  0.12158552  0.37086659  0.86444377  1
  O  O260  1  0.12870115  0.85567891  0.38180554  1
  O  O261  1  0.13649274  0.85027822  0.88414028  1
  O  O262  1  0.62333458  0.35382610  0.36744276  1
  O  O263  1  0.61227173  0.38097473  0.86356431  1
  O  O264  1  0.64013471  0.86375476  0.37143283  1
  O  O265  1  0.62239233  0.86341835  0.87779495  1
  O  O266  1  0.36295660  0.13807366  0.14362929  1
  O  O267  1  0.39393072  0.11687334  0.64387671  1
  O  O268  1  0.36962038  0.65012429  0.11500433  1
  O  O269  1  0.38794416  0.61625620  0.64470162  1
  O  O270  1  0.88041087  0.13423818  0.13561051  1
  O  O271  1  0.87726090  0.13461564  0.62247962  1
  O  O272  1  0.86725682  0.62273644  0.13927051  1
  O  O273  1  0.87944627  0.62979343  0.63214504  1
  O  O274  1  0.25830763  0.26068387  0.13708782  1
  O  O275  1  0.23910319  0.25678039  0.62605237  1
  O  O276  1  0.22666480  0.72831861  0.09895828  1
  O  O277  1  0.25960474  0.75345935  0.62912286  1
  O  O278  1  0.75729325  0.26147969  0.12721337  1
  O  O279  1  0.74971397  0.26469735  0.62486512  1
  O  O280  1  0.74812315  0.76282870  0.11945008  1
  O  O281  1  0.75430834  0.74928722  0.61821340  1
  O  O282  1  0.24172158  0.24998344  0.37534496  1
  O  O283  1  0.23021967  0.25861725  0.87064951  1
  O  O284  1  0.23148879  0.73141395  0.37724563  1
  O  O285  1  0.20784457  0.84406932  0.91174049  1
  O  O286  1  0.74041793  0.23595188  0.36450229  1
  O  O287  1  0.75148529  0.25026706  0.89385517  1
  O  O288  1  0.74742632  0.74186408  0.37898992  1
  O  O289  1  0.74376165  0.74142774  0.88339495  1
  O  O290  1  -0.01318637  0.12051905  0.01290339  1
  O  O291  1  0.00382803  0.10257932  0.49602435  1
  O  O292  1  -0.01980260  0.61203890  0.00627080  1
  O  O293  1  0.00585874  0.61635866  0.51453518  1
  O  O294  1  0.51501543  0.12336248  -0.00162494  1
  O  O295  1  0.49362720  0.10871355  0.51161592  1
  O  O296  1  0.51449447  0.61656875  -0.00155809  1
  O  O297  1  0.48968310  0.62568771  0.52262118  1
  O  O298  1  0.50525275  0.36921129  0.47911649  1
  O  O299  1  0.51285077  0.38454080  0.98854497  1
  O  O300  1  0.49584917  0.88946247  0.49723757  1
  O  O301  1  0.51010611  0.88090443  0.98672106  1
  O  O302  1  1.00097768  0.39112924  0.50788782  1
  O  O303  1  1.00745544  0.38644115  0.98404836  1
  O  O304  1  0.99777064  0.88926058  0.50697999  1
  O  O305  1  0.98915714  0.89467909  0.99961539  1
  O  O306  1  0.50701399  0.48002890  0.36128841  1
  O  O307  1  0.49520952  0.49064061  0.88468052  1
  O  O308  1  0.50304217  1.00468774  0.37040009  1
  O  O309  1  0.51560448  0.98417026  0.86153254  1
  O  O310  1  0.99289176  0.50965243  0.38524909  1
  O  O311  1  0.97786639  0.48399529  0.86950017  1
  O  O312  1  0.98995236  1.00271092  0.36313546  1
  O  O313  1  1.00133508  1.01819349  0.88431328  1
  O  O314  1  0.00089961  0.01639290  0.12196140  1
  O  O315  1  -0.01015164  -0.00179120  0.62366577  1
  O  O316  1  0.01211534  0.48899633  0.10805138  1
  O  O317  1  0.00566879  0.50734133  0.62220650  1
  O  O318  1  0.48767346  -0.02178466  0.14791371  1
  O  O319  1  0.51542496  0.00933821  0.63778134  1
  O  O320  1  0.49505039  0.48562923  0.10933837  1
  O  O321  1  0.50724297  0.51011943  0.63561886  1
  O  O322  1  0.25349692  0.39215883  0.25407821  1
  O  O323  1  0.23127253  0.37292963  0.74156756  1
  O  O324  1  0.23499852  0.83651644  0.24250023  1
  O  O325  1  0.26185697  0.88458978  0.73815969  1
  O  O326  1  0.75367097  0.38749085  0.24038920  1
  O  O327  1  0.74258080  0.38043076  0.74581935  1
  O  O328  1  0.76056471  0.88434515  0.23796970  1
  O  O329  1  0.75110169  0.87689235  0.74002557  1
  O  O330  1  0.25582298  0.12745378  0.26450422  1
  O  O331  1  0.27126527  0.11638342  0.75441420  1
  O  O332  1  0.25668794  0.62603247  0.26435463  1
  O  O333  1  0.26781133  0.63528668  0.74805023  1
  O  O334  1  0.75873281  0.11302308  0.25173240  1
  O  O335  1  0.74776645  0.14666504  0.77457999  1
  O  O336  1  0.76036060  0.61485013  0.25374529  1
  O  O337  1  0.75342633  0.61772354  0.75637786  1
  O  O338  1  0.35950357  0.12349435  0.36656630  1
  O  O339  1  0.40157740  0.10569359  0.85980609  1
  O  O340  1  0.36114721  0.63317701  0.38855768  1
  O  O341  1  0.38314385  0.61075893  0.86591853  1
  O  O342  1  0.86895367  0.11656067  0.36500012  1
  O  O343  1  0.85779533  0.13238966  0.88877081  1
  O  O344  1  0.86470511  0.61324444  0.36578748  1
  O  O345  1  0.86036092  0.63098774  0.86501444  1
  O  O346  1  0.13687037  0.35976571  0.13404049  1
  O  O347  1  0.12774017  0.38709603  0.63649645  1
  O  O348  1  0.12083816  0.89646962  0.12166037  1
  O  O349  1  0.15262196  0.87025743  0.61964447  1
  O  O350  1  0.63501489  0.37090467  0.13104890  1
  O  O351  1  0.63488557  0.37784893  0.63273063  1
  O  O352  1  0.64609393  0.88104354  0.11714844  1
  O  O353  1  0.63826289  0.86196955  0.62115126  1
  O  O354  1  0.10970927  0.24598766  0.26987815  1
  O  O355  1  0.11695062  0.25965864  0.75485829  1
  O  O356  1  0.10493078  0.73590259  0.26928296  1
  O  O357  1  0.10231026  0.75330166  0.74060503  1
  O  O358  1  0.60811219  0.23367780  0.25461486  1
  O  O359  1  0.61427172  0.26303998  0.74840432  1
  O  O360  1  0.62188760  0.75160220  0.26106447  1
  O  O361  1  0.61485196  0.74270647  0.76364783  1
  O  O362  1  0.38324086  0.24057756  0.24561578  1
  O  O363  1  0.38381952  0.23313461  0.76298052  1
  O  O364  1  0.39131358  0.74715913  0.26463432  1
  O  O365  1  0.39328406  0.73441918  0.76531445  1
  O  O366  1  0.88069063  0.24346647  0.24310726  1
  O  O367  1  0.87411528  0.25452271  0.72760468  1
  O  O368  1  0.88905573  0.73698555  0.25544904  1
  O  O369  1  0.87692476  0.73720220  0.74119318  1
  O  O370  1  0.38894436  0.48215279  0.51238882  1
  O  O371  1  0.39325942  0.50960114  0.99255344  1
  O  O372  1  0.39677629  0.99101175  0.50385068  1
  O  O373  1  0.39286526  1.00643120  0.98809941  1
  O  O374  1  0.88416177  0.50008131  0.49088786  1
  O  O375  1  0.88740754  0.48750838  1.00385320  1
  O  O376  1  0.88713787  0.99906494  0.48418994  1
  O  O377  1  0.88286207  0.99771087  0.99922725  1
  O  O378  1  0.10681823  0.01306376  0.00746853  1
  O  O379  1  0.11307066  -0.00014280  0.51041676  1
  O  O380  1  0.09722421  0.52082342  -0.04373638  1
  O  O381  1  0.11823585  0.50808799  0.51353050  1
  O  O382  1  0.62176047  0.00818312  0.00541488  1
  O  O383  1  0.60868761  -0.00402638  0.49113470  1
  O  O384  1  0.61864691  0.51209599  -0.00164345  1
  O  O385  1  0.61263327  0.50280598  0.49246695  1
  O  O386  1  0.36275862  0.36204140  0.13190206  1
  O  O387  1  0.35548404  0.37030172  0.64508812  1
  O  O388  1  0.35829453  0.82786555  0.11567739  1
  O  O389  1  0.36518881  0.88104112  0.62006462  1
  O  O390  1  0.87015568  0.36293371  0.13019716  1
  O  O391  1  0.86136926  0.37514039  0.62208194  1
  O  O392  1  0.86411628  0.87955199  0.10670467  1
  O  O393  1  0.86327199  0.85842028  0.62570375  1
  O  O394  1  0.14118709  0.13192853  0.37635002  1
  O  O395  1  0.12121772  0.13865089  0.87253884  1
  O  O396  1  0.12749463  0.62869767  0.38992868  1
  O  O397  1  0.14428942  0.64938850  0.85039807  1
  O  O398  1  0.63967058  0.12950525  0.37440960  1
  O  O399  1  0.64327786  0.12411979  0.89479753  1
  O  O400  1  0.64143133  0.63102276  0.36831730  1
  O  O401  1  0.63437080  0.63175529  0.88314742  1
