# generated using pymatgen
data_V73Zn73O256
_symmetry_space_group_name_H-M   'P 1'
_cell_length_a   16.88851670
_cell_length_b   16.90134238
_cell_length_c   16.84267818
_cell_angle_alpha   90.03011173
_cell_angle_beta   90.01987314
_cell_angle_gamma   89.91057182
_symmetry_Int_Tables_number   1
_chemical_formula_structural   V73Zn73O256
_chemical_formula_sum   'V73 Zn73 O256'
_cell_volume   4807.54372294
_cell_formula_units_Z   1
loop_
 _symmetry_equiv_pos_site_id
 _symmetry_equiv_pos_as_xyz
  1  'x, y, z'
loop_
 _atom_site_type_symbol
 _atom_site_label
 _atom_site_symmetry_multiplicity
 _atom_site_fract_x
 _atom_site_fract_y
 _atom_site_fract_z
 _atom_site_occupancy
  V  V0  1  0.00562508  0.51103581  -0.00130661  1
  V  V1  1  0.37482570  0.35315947  0.50892321  1
  V  V2  1  0.24674802  0.36711767  0.12196562  1
  V  V3  1  0.88599904  0.23074544  0.62014403  1
  V  V4  1  0.38961385  0.49521644  0.38176682  1
  V  V5  1  0.74069108  0.24843079  0.50504841  1
  V  V6  1  0.74819362  -0.00004314  0.25124576  1
  V  V7  1  0.24956930  0.86883482  0.12626640  1
  V  V8  1  0.24990580  0.14133467  0.37963408  1
  V  V9  1  -0.00220668  0.75012480  0.76790904  1
  V  V10  1  0.74288260  0.13086392  0.38561067  1
  V  V11  1  0.87828873  0.37548171  0.50065061  1
  V  V12  1  0.50433317  0.75317531  0.26896476  1
  V  V13  1  0.88238547  0.86738344  0.49453485  1
  V  V14  1  0.49011541  0.51266333  0.00269028  1
  V  V15  1  0.76461166  0.14269389  0.88437715  1
  V  V16  1  0.38009281  0.62601280  0.24948361  1
  V  V17  1  0.62164307  0.87512067  0.27297570  1
  V  V18  1  0.11291534  0.87593344  0.25619919  1
  V  V19  1  0.82819305  0.44530392  0.92195839  1
  V  V20  1  0.11876548  0.00224094  0.62199127  1
  V  V21  1  0.37771607  0.88751697  0.49007582  1
  V  V22  1  0.11370200  0.87467942  0.76079129  1
  V  V23  1  0.73002597  0.86728622  0.61987205  1
  V  V24  1  0.74364192  0.74046274  0.48492523  1
  V  V25  1  0.74757951  0.02402370  0.76520932  1
  V  V26  1  0.88030443  0.61191344  0.24447191  1
  V  V27  1  0.25778129  -0.00511655  0.25997623  1
  V  V28  1  0.12407408  0.13964872  -0.00559320  1
  V  V29  1  0.12636714  0.51748537  0.62179532  1
  V  V30  1  0.88237637  0.62229608  0.74995134  1
  V  V31  1  0.24578324  0.73995274  0.49801632  1
  V  V32  1  0.51326946  0.11499455  0.61245314  1
  V  V33  1  0.88087930  -0.00346827  0.37713726  1
  V  V34  1  0.25691671  0.13194019  0.87470121  1
  V  V35  1  0.00218823  0.24138281  0.74832639  1
  V  V36  1  0.61554434  0.00187851  0.12737691  1
  V  V37  1  0.75661548  0.60385353  0.36786986  1
  V  V38  1  0.74787485  0.63166485  0.87467938  1
  V  V39  1  0.11512065  -0.00054110  0.11803009  1
  V  V40  1  0.01881071  0.36935535  0.37476618  1
  V  V41  1  0.14395955  0.65167257  -0.00469204  1
  V  V42  1  0.63839406  0.49031496  0.12652500  1
  V  V43  1  0.24854884  0.87564470  0.62377018  1
  V  V44  1  0.37717659  0.74206023  0.63313400  1
  V  V45  1  0.12450966  0.13673402  0.49575076  1
  V  V46  1  0.87881555  0.12796500  0.24352598  1
  V  V47  1  0.01173597  0.37737205  0.87790075  1
  V  V48  1  0.61314662  0.61669906  0.49469315  1
  V  V49  1  0.37470426  0.23620623  0.65345052  1
  V  V50  1  0.86896903  0.88769065  -0.01380882  1
  V  V51  1  0.88570344  0.74471499  0.61939540  1
  V  V52  1  0.00464631  -0.00441628  0.49848186  1
  V  V53  1  0.24392999  0.49913971  0.24592399  1
  V  V54  1  0.25543201  0.51251554  0.75725747  1
  V  V55  1  0.37395739  0.87987301  -0.00939884  1
  V  V56  1  0.87065677  0.75336284  0.11977252  1
  V  V57  1  0.37002958  0.35475269  0.00206628  1
  V  V58  1  0.51942153  0.26825538  0.25533707  1
  V  V59  1  0.11544091  0.74489337  0.37633534  1
  V  V60  1  0.37370224  0.13452109  0.24786375  1
  V  V61  1  0.86439291  0.26517319  0.11740531  1
  V  V62  1  0.00625184  0.50683246  0.50026096  1
  V  V63  1  0.13198163  0.37162992  0.73749414  1
  V  V64  1  0.49605636  -0.00305608  -0.01747705  1
  V  V65  1  0.38628292  0.75280926  0.12276499  1
  V  V66  1  0.63330268  0.63314901  0.00601320  1
  V  V67  1  0.61520957  0.48907691  0.62483301  1
  V  V68  1  0.62068426  0.13905416  -0.00847604  1
  V  V69  1  0.76029796  0.48985498  0.73723056  1
  V  V70  1  0.01450370  0.24976139  0.24996836  1
  V  V71  1  0.49989805  0.36879194  0.87302646  1
  V  V72  1  0.26214898  -0.00399050  0.75776609  1
  Zn  Zn73  1  0.48429781  0.12791845  0.12131454  1
  Zn  Zn74  1  -0.00109306  0.74284585  0.24383572  1
  Zn  Zn75  1  0.49931424  0.63093632  0.63879358  1
  Zn  Zn76  1  -0.00559338  -0.00215851  -0.02617495  1
  Zn  Zn77  1  0.24683018  0.61923087  0.37550380  1
  Zn  Zn78  1  0.63008936  0.36790872  0.75894562  1
  Zn  Zn79  1  0.57397873  0.81839351  0.81037503  1
  Zn  Zn80  1  0.11845660  0.50912924  0.12468640  1
  Zn  Zn81  1  0.74110584  0.86756490  0.11794991  1
  Zn  Zn82  1  0.19320717  0.17933681  0.18026910  1
  Zn  Zn83  1  0.19116961  0.18304359  0.68698841  1
  Zn  Zn84  1  0.18584912  0.68493611  0.18090558  1
  Zn  Zn85  1  0.18348626  0.69075818  0.69156440  1
  Zn  Zn86  1  0.68585047  0.18998529  0.18309288  1
  Zn  Zn87  1  0.68770600  0.18954587  0.67994769  1
  Zn  Zn88  1  0.68855032  0.68648023  0.19094308  1
  Zn  Zn89  1  0.69455883  0.67767446  0.67747428  1
  Zn  Zn90  1  0.31593332  0.31861742  0.31346633  1
  Zn  Zn91  1  0.31146047  0.31861070  0.81724399  1
  Zn  Zn92  1  0.31116119  0.81168617  0.31522817  1
  Zn  Zn93  1  0.41155177  0.83400819  0.79172444  1
  Zn  Zn94  1  0.82309397  0.31084504  0.32236287  1
  Zn  Zn95  1  0.81918833  0.30435728  0.80570658  1
  Zn  Zn96  1  0.81112073  0.80758393  0.30827272  1
  Zn  Zn97  1  0.76370119  0.83794975  0.83118096  1
  Zn  Zn98  1  0.19763041  0.43468812  0.44187558  1
  Zn  Zn99  1  0.18886282  0.43980229  0.93620562  1
  Zn  Zn100  1  0.19043698  0.93356813  0.43781613  1
  Zn  Zn101  1  0.19045356  0.93037720  0.93840946  1
  Zn  Zn102  1  0.69375106  0.43618337  0.44549305  1
  Zn  Zn103  1  0.65624485  0.40210364  0.98218444  1
  Zn  Zn104  1  0.70116346  0.95087335  0.46242246  1
  Zn  Zn105  1  0.68189553  0.94424638  0.93841749  1
  Zn  Zn106  1  0.30358662  0.05839046  0.06289335  1
  Zn  Zn107  1  0.31579218  0.06792379  0.56722476  1
  Zn  Zn108  1  0.30770294  0.57167116  0.06433611  1
  Zn  Zn109  1  0.31217413  0.55637339  0.56774641  1
  Zn  Zn110  1  0.80653728  0.06503770  0.06191159  1
  Zn  Zn111  1  0.84217900  0.02210393  0.60638962  1
  Zn  Zn112  1  0.81354798  0.56343565  0.06643083  1
  Zn  Zn113  1  0.81719383  0.55959215  0.56281900  1
  Zn  Zn114  1  0.43799274  0.44003756  0.18213984  1
  Zn  Zn115  1  0.43254239  0.43107302  0.68476048  1
  Zn  Zn116  1  0.44024395  0.93593241  0.19076449  1
  Zn  Zn117  1  0.49255544  1.00409107  0.75427524  1
  Zn  Zn118  1  0.93985834  0.43019069  0.18540612  1
  Zn  Zn119  1  0.94356846  0.42966487  0.68075818  1
  Zn  Zn120  1  0.93266211  0.93572408  0.18256421  1
  Zn  Zn121  1  0.92111053  0.94401614  0.79395518  1
  Zn  Zn122  1  0.06522413  0.06391328  0.31295924  1
  Zn  Zn123  1  0.06988477  0.06315796  0.81620038  1
  Zn  Zn124  1  0.05909638  0.55932585  0.31645736  1
  Zn  Zn125  1  0.07151556  0.56405996  0.81870000  1
  Zn  Zn126  1  0.56101256  0.07004436  0.31707140  1
  Zn  Zn127  1  0.55424576  0.19441500  0.79779705  1
  Zn  Zn128  1  0.56637083  0.56253857  0.30577159  1
  Zn  Zn129  1  0.57075359  0.55007978  0.82107096  1
  Zn  Zn130  1  0.43982418  0.18397615  0.43236494  1
  Zn  Zn131  1  0.43228776  0.18351316  0.93384960  1
  Zn  Zn132  1  0.43061632  0.68917517  0.44106325  1
  Zn  Zn133  1  0.46516634  0.70588064  0.94141099  1
  Zn  Zn134  1  0.94067017  0.18398751  0.43317865  1
  Zn  Zn135  1  0.94908143  0.19074691  0.94109473  1
  Zn  Zn136  1  0.93466310  0.68264549  0.42805495  1
  Zn  Zn137  1  0.92725746  0.68981777  0.93981917  1
  Zn  Zn138  1  0.05957640  0.31792668  0.07131321  1
  Zn  Zn139  1  0.06322176  0.31552610  0.56533336  1
  Zn  Zn140  1  0.04962635  0.81255294  0.05702668  1
  Zn  Zn141  1  0.06319770  0.81366612  0.56092965  1
  Zn  Zn142  1  0.54250137  0.31311921  0.07993441  1
  Zn  Zn143  1  0.54441411  0.30763738  0.56327975  1
  Zn  Zn144  1  0.56297938  0.81755499  0.06434122  1
  Zn  Zn145  1  0.51904122  0.89115740  0.62362986  1
  O  O146  1  0.13719946  0.10562226  0.10943611  1
  O  O147  1  0.13552119  0.11180543  0.60726001  1
  O  O148  1  0.12568783  0.62500207  0.10477074  1
  O  O149  1  0.11654235  0.61603268  0.62714530  1
  O  O150  1  0.62435042  0.11092269  0.11883271  1
  O  O151  1  0.61469500  0.13086685  0.61527166  1
  O  O152  1  0.63785754  0.61721053  0.11118818  1
  O  O153  1  0.62546910  0.61279371  0.60725784  1
  O  O154  1  0.37329179  0.39060128  0.38192752  1
  O  O155  1  0.37989341  0.37360592  0.89354798  1
  O  O156  1  0.37285312  0.87055651  0.38876867  1
  O  O157  1  0.36246144  0.87439522  0.89305779  1
  O  O158  1  0.89221963  0.36917873  0.39149236  1
  O  O159  1  0.88879185  0.38137461  0.86525260  1
  O  O160  1  0.86452390  0.88514133  0.38264322  1
  O  O161  1  0.86161771  0.87919876  0.88003164  1
  O  O162  1  0.24277876  0.00148140  0.36099906  1
  O  O163  1  0.24204816  -0.00311946  0.86058594  1
  O  O164  1  0.25803774  0.50110176  0.35908894  1
  O  O165  1  0.24566103  0.49855858  0.85779813  1
  O  O166  1  0.75858603  0.01044598  0.37419589  1
  O  O167  1  0.74476025  0.01795476  0.86980593  1
  O  O168  1  0.76153956  0.50549742  0.38083613  1
  O  O169  1  0.76549172  0.50488837  0.86000466  1
  O  O170  1  0.25201470  0.49973188  0.13631857  1
  O  O171  1  0.23168972  0.50503826  0.63129147  1
  O  O172  1  0.23915000  0.98751049  0.13751065  1
  O  O173  1  0.23974041  0.99382834  0.63455207  1
  O  O174  1  0.73904865  0.49689412  0.11999551  1
  O  O175  1  0.74015487  0.50148198  0.63296827  1
  O  O176  1  0.74048032  1.00348145  0.14231898  1
  O  O177  1  0.74213732  0.96752197  0.57883099  1
  O  O178  1  0.00156092  0.36586937  0.26486615  1
  O  O179  1  0.01210660  0.37128062  0.75496354  1
  O  O180  1  0.01200347  0.87711014  0.25002877  1
  O  O181  1  0.00355665  0.86376450  0.74893154  1
  O  O182  1  0.50069809  0.36772342  0.24455573  1
  O  O183  1  0.49687826  0.38554089  0.77153972  1
  O  O184  1  0.51165298  0.86993963  0.25696198  1
  O  O185  1  0.50235584  0.88937229  0.74203767  1
  O  O186  1  0.47730977  0.11211296  0.25548138  1
  O  O187  1  0.50507594  0.11459045  0.73868562  1
  O  O188  1  0.49553570  0.64403180  0.25280584  1
  O  O189  1  0.54584795  0.64873624  0.75046687  1
  O  O190  1  0.98775680  0.13604699  0.26027166  1
  O  O191  1  1.01323100  0.14390803  0.75378587  1
  O  O192  1  0.98554274  0.62318534  0.25437341  1
  O  O193  1  0.99572102  0.63712356  0.75805139  1
  O  O194  1  0.37463892  0.25590551  0.00749524  1
  O  O195  1  0.36622906  0.25439201  0.48973066  1
  O  O196  1  0.38805777  0.76490920  0.01493360  1
  O  O197  1  0.35679116  0.75399458  0.50629256  1
  O  O198  1  0.89250554  0.24888477  0.02119135  1
  O  O199  1  0.88111233  0.25239630  0.50746946  1
  O  O200  1  0.87098155  0.76058607  0.01175830  1
  O  O201  1  0.87198384  0.74865721  0.49871041  1
  O  O202  1  0.12013710  0.23476610  0.50519393  1
  O  O203  1  0.12103712  0.23769280  1.00995209  1
  O  O204  1  0.13154150  0.75639492  0.48487933  1
  O  O205  1  0.12916284  0.75284625  1.00440359  1
  O  O206  1  0.64367564  0.26554377  0.50884854  1
  O  O207  1  0.60978768  0.23448086  1.01563959  1
  O  O208  1  0.64194983  0.72468394  0.49734950  1
  O  O209  1  0.61669579  0.73386824  1.00584910  1
  O  O210  1  0.49633902  0.23787255  0.15062308  1
  O  O211  1  0.48848621  0.23232587  0.62736889  1
  O  O212  1  0.48856451  0.76139741  0.13858536  1
  O  O213  1  0.47722824  0.75439057  0.62939543  1
  O  O214  1  0.98771873  0.26258568  0.14650946  1
  O  O215  1  0.99499769  0.24815264  0.63244574  1
  O  O216  1  0.97966560  0.75507435  0.12809912  1
  O  O217  1  0.98838594  0.75009839  0.61928334  1
  O  O218  1  0.00109524  0.25768977  0.36406200  1
  O  O219  1  -0.00749068  0.26426396  0.85819941  1
  O  O220  1  0.01273526  0.74900674  0.37260603  1
  O  O221  1  -0.00775868  0.75427069  0.86622034  1
  O  O222  1  0.49386412  0.24165763  0.35152450  1
  O  O223  1  0.49318303  0.26128869  0.87601438  1
  O  O224  1  0.49850320  0.75177075  0.36782856  1
  O  O225  1  0.48322576  0.76720374  0.85444140  1
  O  O226  1  0.24072039  0.12192233  0.48623839  1
  O  O227  1  0.23623760  0.11197103  0.98728557  1
  O  O228  1  0.24754567  0.63762592  0.49937258  1
  O  O229  1  0.24501001  0.63733298  0.99758583  1
  O  O230  1  0.74996137  0.13533617  0.49069419  1
  O  O231  1  0.73194034  0.12020916  0.99156313  1
  O  O232  1  0.75847473  0.62641279  0.48675978  1
  O  O233  1  0.74721803  0.62201860  0.98627829  1
  O  O234  1  0.26056635  0.38013862  0.00688153  1
  O  O235  1  0.27964044  0.39725686  0.50766624  1
  O  O236  1  0.26493972  0.88317324  0.01397493  1
  O  O237  1  0.25029243  0.86379835  0.50574776  1
  O  O238  1  0.76820991  0.38585007  -0.02628527  1
  O  O239  1  0.76892416  0.36025261  0.49183801  1
  O  O240  1  0.76165775  0.88672750  0.00385768  1
  O  O241  1  0.75462715  0.84871390  0.49275137  1
  O  O242  1  0.14026559  0.50805916  0.24808710  1
  O  O243  1  0.12530437  0.49341449  0.73857622  1
  O  O244  1  0.13038891  0.99032429  0.24437740  1
  O  O245  1  0.11534695  0.98735844  0.73654800  1
  O  O246  1  0.61660543  0.50285747  0.22512063  1
  O  O247  1  0.64011723  0.49214673  0.74156540  1
  O  O248  1  0.62630592  0.99219919  0.25041394  1
  O  O249  1  0.66353301  1.00051088  0.72370988  1
  O  O250  1  0.35953618  -0.00266417  0.25056278  1
  O  O251  1  0.35916557  -0.01285331  0.75155907  1
  O  O252  1  0.37251343  0.51133910  0.25334485  1
  O  O253  1  0.35308229  0.49602336  0.73453388  1
  O  O254  1  0.86858352  0.00536690  0.25732723  1
  O  O255  1  0.84316586  -0.00484490  0.72278983  1
  O  O256  1  0.87672415  0.51281712  0.23646125  1
  O  O257  1  0.86877172  0.50654170  0.73099991  1
  O  O258  1  0.11864240  0.36948559  0.38505136  1
  O  O259  1  0.11599115  0.37662233  0.86157613  1
  O  O260  1  0.12944922  0.86570620  0.36126354  1
  O  O261  1  0.12525687  0.87565154  0.85895006  1
  O  O262  1  0.66595434  0.37984387  0.33727481  1
  O  O263  1  0.60512072  0.37172097  0.88443256  1
  O  O264  1  0.63113540  0.87972321  0.36995558  1
  O  O265  1  0.65806019  0.86975352  0.85903913  1
  O  O266  1  0.36412704  0.11591428  0.14276206  1
  O  O267  1  0.38431186  0.12954544  0.63204352  1
  O  O268  1  0.37240933  0.64604951  0.13409392  1
  O  O269  1  0.37794697  0.63609511  0.62131070  1
  O  O270  1  0.87543502  0.11967850  0.14239404  1
  O  O271  1  0.88229786  0.13143640  0.61523253  1
  O  O272  1  0.86623796  0.63818851  0.13641107  1
  O  O273  1  0.86826043  0.63441534  0.63597430  1
  O  O274  1  0.24612825  0.26816262  0.13256109  1
  O  O275  1  0.27277999  0.23767455  0.63214851  1
  O  O276  1  0.26449664  0.76337888  0.13827481  1
  O  O277  1  0.23986445  0.75461489  0.61071006  1
  O  O278  1  0.76673498  0.23683042  0.12211615  1
  O  O279  1  0.76922681  0.24247791  0.61052767  1
  O  O280  1  0.76154942  0.75403051  0.13478553  1
  O  O281  1  0.75874082  0.74878843  0.60756040  1
  O  O282  1  0.24567608  0.23957210  0.36585681  1
  O  O283  1  0.25083055  0.23154827  0.86620432  1
  O  O284  1  0.24133322  0.74790436  0.38503246  1
  O  O285  1  0.31014128  0.67589737  0.86427398  1
  O  O286  1  0.76042835  0.23809666  0.38856740  1
  O  O287  1  0.75641418  0.24271650  0.87821047  1
  O  O288  1  0.75293258  0.73539106  0.38129796  1
  O  O289  1  0.75056147  0.72901612  0.86367108  1
  O  O290  1  0.02085299  0.11420821  -0.00709019  1
  O  O291  1  0.01763751  0.11291530  0.48790307  1
  O  O292  1  -0.00704641  0.61149680  -0.00340116  1
  O  O293  1  -0.00643334  0.60459397  0.48919522  1
  O  O294  1  0.50278125  0.11269751  0.00145756  1
  O  O295  1  0.49178670  0.12274722  0.51015973  1
  O  O296  1  0.51613263  0.61865615  -0.00890411  1
  O  O297  1  0.51333864  0.62849790  0.49635165  1
  O  O298  1  0.47652830  0.37715938  0.50091699  1
  O  O299  1  0.48193584  0.38178011  0.99859238  1
  O  O300  1  0.47415371  0.87442784  0.51707835  1
  O  O301  1  0.48963223  0.88748181  1.00232662  1
  O  O302  1  0.99817794  0.37652821  0.49085324  1
  O  O303  1  1.00867585  0.37542323  0.98164753  1
  O  O304  1  0.99280785  0.88098820  0.49496343  1
  O  O305  1  0.97610256  0.87911598  0.99969109  1
  O  O306  1  0.48810481  0.50454886  0.36519772  1
  O  O307  1  0.50299391  0.48864883  0.89297094  1
  O  O308  1  0.53762358  0.99846539  0.41777275  1
  O  O309  1  0.49826480  0.99937774  0.88490250  1
  O  O310  1  1.00966983  0.48302081  0.38769453  1
  O  O311  1  1.00190569  0.48826142  0.88297982  1
  O  O312  1  0.98917763  1.00233612  0.37954104  1
  O  O313  1  0.99139630  0.99957974  0.86059605  1
  O  O314  1  0.01557029  -0.00062894  0.13348177  1
  O  O315  1  0.00912094  0.00037735  0.60607923  1
  O  O316  1  0.00086585  0.48334263  0.10237868  1
  O  O317  1  0.01168577  0.49429631  0.61028366  1
  O  O318  1  0.50525236  0.00467889  0.12381326  1
  O  O319  1  0.50210024  0.01055547  0.62779061  1
  O  O320  1  0.50722614  0.49809705  0.10763102  1
  O  O321  1  0.51335751  0.51001407  0.64210289  1
  O  O322  1  0.26069331  0.39095626  0.23686200  1
  O  O323  1  0.23362068  0.38094602  0.75465104  1
  O  O324  1  0.24283812  0.88285493  0.24723180  1
  O  O325  1  0.22896172  0.88480529  0.73964716  1
  O  O326  1  0.72282584  0.37645862  0.28686885  1
  O  O327  1  0.75753153  0.38802224  0.75130108  1
  O  O328  1  0.73688559  0.88541913  0.25427091  1
  O  O329  1  0.75337099  0.86184311  0.71804794  1
  O  O330  1  0.25187419  0.11237953  0.25761821  1
  O  O331  1  0.23859948  0.10530468  0.76155591  1
  O  O332  1  0.26123798  0.61692903  0.24686744  1
  O  O333  1  0.24030174  0.61337436  0.74946897  1
  O  O334  1  0.76121661  0.11737395  0.26075941  1
  O  O335  1  0.74966420  0.13081125  0.76750736  1
  O  O336  1  0.75332076  0.62151870  0.26277964  1
  O  O337  1  0.75759882  0.61082796  0.75614127  1
  O  O338  1  0.35569777  0.12253999  0.36393373  1
  O  O339  1  0.35656610  0.11512290  0.88436523  1
  O  O340  1  0.37112628  0.62254615  0.36169948  1
  O  O341  1  0.37037995  0.63524034  0.87057884  1
  O  O342  1  0.86867796  0.11462714  0.36859581  1
  O  O343  1  0.86308603  0.12848920  0.89236243  1
  O  O344  1  0.86548709  0.62334418  0.35827669  1
  O  O345  1  0.86662683  0.62660789  0.85972859  1
  O  O346  1  0.14294055  0.38730507  0.11578664  1
  O  O347  1  0.12441463  0.38397351  0.63419001  1
  O  O348  1  0.13009643  0.87927669  0.13746686  1
  O  O349  1  0.12991701  0.88400575  0.62386940  1
  O  O350  1  0.62794031  0.38716540  0.09705070  1
  O  O351  1  0.61318474  0.38802893  0.62343282  1
  O  O352  1  0.62555802  0.88934957  0.13073373  1
  O  O353  1  0.63152068  0.85573367  0.61201676  1
  O  O354  1  0.11201748  0.23652050  0.24230385  1
  O  O355  1  0.11580241  0.26224384  0.73633026  1
  O  O356  1  0.12446808  0.76141444  0.25503140  1
  O  O357  1  0.10781456  0.76323515  0.74168744  1
  O  O358  1  0.62015175  0.24848854  0.25189737  1
  O  O359  1  0.63228091  0.25820706  0.74810671  1
  O  O360  1  0.61522973  0.76333828  0.24973698  1
  O  O361  1  0.60520343  0.70862793  0.75000541  1
  O  O362  1  0.36909921  0.23514500  0.25039524  1
  O  O363  1  0.37881084  0.24988496  0.75318587  1
  O  O364  1  0.38672336  0.74964693  0.24769445  1
  O  O365  1  0.35029712  0.75890280  0.72973353  1
  O  O366  1  0.87452850  0.23732393  0.24589165  1
  O  O367  1  0.88918546  0.25165559  0.73128527  1
  O  O368  1  0.87830024  0.74373373  0.24292677  1
  O  O369  1  0.89023171  0.74257298  0.73887830  1
  O  O370  1  0.37781372  0.52073065  0.47989704  1
  O  O371  1  0.38890833  0.51861744  1.00309567  1
  O  O372  1  0.35668482  0.98584618  0.50044489  1
  O  O373  1  0.38609958  0.99049028  1.00784574  1
  O  O374  1  0.88927404  0.48342864  0.50999257  1
  O  O375  1  0.88312760  0.50025460  0.99276615  1
  O  O376  1  0.88589372  0.98972329  0.49536961  1
  O  O377  1  0.87628936  0.99167580  1.00740297  1
  O  O378  1  0.11813822  -0.01741567  0.01389820  1
  O  O379  1  0.12015658  -0.00152990  0.50277589  1
  O  O380  1  0.11310019  0.50743492  -0.00363414  1
  O  O381  1  0.11869067  0.49744332  0.50960954  1
  O  O382  1  0.60864831  0.00453506  0.00645917  1
  O  O383  1  0.58890918  0.00006224  0.47348006  1
  O  O384  1  0.61734802  0.51390286  0.00876897  1
  O  O385  1  0.62889045  0.50290340  0.51200536  1
  O  O386  1  0.36350818  0.38317133  0.10962348  1
  O  O387  1  0.38388632  0.34848044  0.62072405  1
  O  O388  1  0.36873950  0.86814837  0.12578593  1
  O  O389  1  0.35361454  0.86178828  0.61453294  1
  O  O390  1  0.86190501  0.36433190  0.13524758  1
  O  O391  1  0.88562260  0.35925140  0.60739408  1
  O  O392  1  0.86502462  0.86750074  0.12277470  1
  O  O393  1  0.86472178  0.86022032  0.60085772  1
  O  O394  1  0.13682831  0.12110297  0.38369612  1
  O  O395  1  0.13506855  0.12440442  0.88740549  1
  O  O396  1  0.12844952  0.64184550  0.36410794  1
  O  O397  1  0.11848863  0.63156295  0.89654972  1
  O  O398  1  0.64442150  0.12518923  0.37006890  1
  O  O399  1  0.62147153  0.13721480  0.88991813  1
  O  O400  1  0.63966555  0.60765707  0.38726147  1
  O  O401  1  0.64276803  0.61414771  0.88629790  1
