# generated using pymatgen
data_V73Zn73O256
_symmetry_space_group_name_H-M   'P 1'
_cell_length_a   16.85424086
_cell_length_b   16.87117026
_cell_length_c   16.83116134
_cell_angle_alpha   89.75552139
_cell_angle_beta   89.91227022
_cell_angle_gamma   90.32593673
_symmetry_Int_Tables_number   1
_chemical_formula_structural   V73Zn73O256
_chemical_formula_sum   'V73 Zn73 O256'
_cell_volume   4785.82684208
_cell_formula_units_Z   1
loop_
 _symmetry_equiv_pos_site_id
 _symmetry_equiv_pos_as_xyz
  1  'x, y, z'
loop_
 _atom_site_type_symbol
 _atom_site_label
 _atom_site_symmetry_multiplicity
 _atom_site_fract_x
 _atom_site_fract_y
 _atom_site_fract_z
 _atom_site_occupancy
  V  V0  1  -0.01540969  0.75513903  0.24216212  1
  V  V1  1  0.63675925  0.36988866  0.73206125  1
  V  V2  1  0.11540677  0.00110434  0.13468060  1
  V  V3  1  0.74557407  0.74738065  0.49815567  1
  V  V4  1  0.85762951  0.37630677  0.49832829  1
  V  V5  1  0.88375012  0.88430564  0.49430052  1
  V  V6  1  0.62122408  0.25602860  0.88079346  1
  V  V7  1  -0.00982334  0.49355085  0.01251869  1
  V  V8  1  0.75357436  -0.00185728  0.74958528  1
  V  V9  1  0.86723781  0.73921252  0.10746435  1
  V  V10  1  0.87377004  -0.00104568  0.89855456  1
  V  V11  1  0.37885375  0.74031007  0.63232040  1
  V  V12  1  0.86397208  0.24784042  0.61683557  1
  V  V13  1  -0.01545758  0.25080986  0.25037594  1
  V  V14  1  0.50099757  0.23749209  0.25237324  1
  V  V15  1  0.74214169  0.63331148  0.88030441  1
  V  V16  1  0.62474235  0.37167823  0.24912173  1
  V  V17  1  0.63795240  0.25149431  0.37614333  1
  V  V18  1  0.11337112  0.49249105  0.65471070  1
  V  V19  1  0.75479784  0.86895597  0.62226566  1
  V  V20  1  0.00003919  0.39034479  0.38004730  1
  V  V21  1  -0.00133066  0.76630184  0.75048831  1
  V  V22  1  0.63431123  0.88132470  0.24237908  1
  V  V23  1  0.62063960  0.63330304  -0.00625657  1
  V  V24  1  0.00620552  0.25724167  0.75096892  1
  V  V25  1  0.37828094  -0.01667768  0.86869024  1
  V  V26  1  0.62276147  -0.00374741  0.61959974  1
  V  V27  1  0.24915527  0.88354629  0.64033300  1
  V  V28  1  0.74318580  0.12400648  0.88016201  1
  V  V29  1  0.00589559  0.12430780  0.60911610  1
  V  V30  1  0.76089614  0.50528837  0.25263659  1
  V  V31  1  0.37466168  0.37927364  -0.00637543  1
  V  V32  1  0.25669086  0.12460976  0.85981681  1
  V  V33  1  0.88885876  -0.00019857  0.36159252  1
  V  V34  1  0.76344948  0.62359648  0.37369068  1
  V  V35  1  0.38641260  0.01124963  0.37719730  1
  V  V36  1  0.37410095  0.75822032  0.13280245  1
  V  V37  1  0.25387313  0.62321680  0.36725523  1
  V  V38  1  0.23966452  0.74922973  0.50046926  1
  V  V39  1  0.24858384  0.87600182  0.11041702  1
  V  V40  1  0.76778061  0.25156025  0.00193490  1
  V  V41  1  0.49756200  0.24845967  0.74201932  1
  V  V42  1  0.25227293  0.60650887  0.87234296  1
  V  V43  1  0.63280555  0.11866344  0.49792124  1
  V  V44  1  0.13152244  0.50181261  0.13130957  1
  V  V45  1  0.62492255  0.49740486  0.12301273  1
  V  V46  1  0.12106231  0.76676043  0.35980422  1
  V  V47  1  -0.01048050  0.13822630  0.12337597  1
  V  V48  1  0.25022802  0.25193832  0.00665839  1
  V  V49  1  0.75342658  0.87685067  0.10395218  1
  V  V50  1  0.49895195  0.49436496  -0.01922689  1
  V  V51  1  0.49814412  0.86844901  0.36562747  1
  V  V52  1  0.49289776  0.12215592  0.62178207  1
  V  V53  1  0.12873374  0.76062821  0.87957340  1
  V  V54  1  0.49047429  0.61804726  0.14284205  1
  V  V55  1  0.76500751  0.37331387  0.11946425  1
  V  V56  1  0.88156876  0.63235681  0.75375390  1
  V  V57  1  0.37682109  0.24627111  0.13187754  1
  V  V58  1  0.26316655  -0.00235909  0.24857339  1
  V  V59  1  0.50182376  -0.00579087  -0.00011404  1
  V  V60  1  0.52178776  0.62017202  0.62263263  1
  V  V61  1  0.23537137  0.13196225  0.37641823  1
  V  V62  1  0.12844091  0.11861710  -0.00200225  1
  V  V63  1  0.37997294  0.87486399  0.49848088  1
  V  V64  1  0.87735116  0.48851693  0.88181232  1
  V  V65  1  -0.00622507  0.88310021  0.89559239  1
  V  V66  1  0.61660718  0.73835238  0.36832635  1
  V  V67  1  0.75546599  0.11094179  0.35920676  1
  V  V68  1  0.61983942  0.86136203  0.75657273  1
  V  V69  1  0.13313715  0.37075458  0.24916017  1
  V  V70  1  0.12523147  0.00564660  0.62835010  1
  V  V71  1  0.75061034  0.49597237  0.73992497  1
  V  V72  1  0.11699288  0.63556666  0.00842995  1
  Zn  Zn73  1  0.88005668  0.12247155  0.74955341  1
  Zn  Zn74  1  0.43864426  0.39269932  0.44409531  1
  Zn  Zn75  1  0.49392850  0.74436703  0.78808567  1
  Zn  Zn76  1  0.91496180  0.72093214  0.58782994  1
  Zn  Zn77  1  0.51473739  0.12335906  0.11473582  1
  Zn  Zn78  1  0.27630238  0.28323265  0.52560775  1
  Zn  Zn79  1  0.27413775  0.50267144  0.25034854  1
  Zn  Zn80  1  0.03900359  0.57875371  0.53564832  1
  Zn  Zn81  1  0.12329972  0.27514080  0.86156707  1
  Zn  Zn82  1  0.19265455  0.18569382  0.19353010  1
  Zn  Zn83  1  0.18869781  0.20538170  0.66866014  1
  Zn  Zn84  1  0.18769734  0.68938654  0.19101441  1
  Zn  Zn85  1  0.18315447  0.68144602  0.69027697  1
  Zn  Zn86  1  0.69843093  0.18837546  0.18655178  1
  Zn  Zn87  1  0.68611071  0.17984099  0.69088953  1
  Zn  Zn88  1  0.68653509  0.69029823  0.18473413  1
  Zn  Zn89  1  0.68943569  0.67979631  0.68559096  1
  Zn  Zn90  1  0.29607432  0.32990972  0.35808851  1
  Zn  Zn91  1  0.32409257  0.29219397  0.82613371  1
  Zn  Zn92  1  0.30948238  0.81289321  0.30804766  1
  Zn  Zn93  1  0.31660238  0.80433445  0.81636874  1
  Zn  Zn94  1  0.81395909  0.31529831  0.31348423  1
  Zn  Zn95  1  0.81902190  0.30762006  0.80796311  1
  Zn  Zn96  1  0.81062523  0.81672100  0.31202246  1
  Zn  Zn97  1  0.81048823  0.81666458  0.81984688  1
  Zn  Zn98  1  0.17264965  0.44783394  0.44640946  1
  Zn  Zn99  1  0.18129798  0.43892474  0.94185176  1
  Zn  Zn100  1  0.19087207  0.94409064  0.44244176  1
  Zn  Zn101  1  0.18956191  0.94432839  0.93220018  1
  Zn  Zn102  1  0.68382876  0.44179010  0.43926474  1
  Zn  Zn103  1  0.68978253  0.43520381  0.93175273  1
  Zn  Zn104  1  0.68577940  0.93318447  0.43379765  1
  Zn  Zn105  1  0.67971250  0.93056523  0.93761408  1
  Zn  Zn106  1  0.32202807  0.06374577  0.05728676  1
  Zn  Zn107  1  0.30596078  0.06414696  0.55643495  1
  Zn  Zn108  1  0.31181502  0.57812539  0.05631764  1
  Zn  Zn109  1  0.29014431  0.56706198  0.56953777  1
  Zn  Zn110  1  0.68320817  0.05901811  0.06304782  1
  Zn  Zn111  1  0.81382500  0.06329557  0.55788719  1
  Zn  Zn112  1  0.80890469  0.56677657  0.06396307  1
  Zn  Zn113  1  0.84293935  0.57148647  0.55085889  1
  Zn  Zn114  1  0.43739318  0.42659215  0.18656789  1
  Zn  Zn115  1  0.47521285  0.42076455  0.63318268  1
  Zn  Zn116  1  0.44251819  0.93711857  0.18514748  1
  Zn  Zn117  1  0.43788756  0.93419661  0.69175021  1
  Zn  Zn118  1  0.94583437  0.44368226  0.19064678  1
  Zn  Zn119  1  0.93514028  0.43577113  0.68060822  1
  Zn  Zn120  1  0.93227279  0.92982061  0.18107342  1
  Zn  Zn121  1  0.93988270  0.94025865  0.68406190  1
  Zn  Zn122  1  0.06337980  0.06503362  0.30717473  1
  Zn  Zn123  1  0.06283893  0.06385183  0.80357752  1
  Zn  Zn124  1  0.06564324  0.57777891  0.31560642  1
  Zn  Zn125  1  0.06028392  0.56693057  0.82352674  1
  Zn  Zn126  1  0.56669568  0.06002570  0.30806137  1
  Zn  Zn127  1  0.55925753  0.05992978  0.81216405  1
  Zn  Zn128  1  0.56772275  0.55409497  0.31616379  1
  Zn  Zn129  1  0.54311442  0.54805755  0.78011293  1
  Zn  Zn130  1  0.44282520  0.19827525  0.44354468  1
  Zn  Zn131  1  0.43968820  0.18034866  0.93887790  1
  Zn  Zn132  1  0.43424639  0.67964744  0.44791489  1
  Zn  Zn133  1  0.41955269  0.69273439  0.95560720  1
  Zn  Zn134  1  0.93683169  0.19081540  0.43213315  1
  Zn  Zn135  1  0.94172869  0.18084526  0.93527540  1
  Zn  Zn136  1  0.93825643  0.69650383  0.41859014  1
  Zn  Zn137  1  0.93817126  0.68463150  0.93481233  1
  Zn  Zn138  1  0.06831008  0.31898495  0.04851370  1
  Zn  Zn139  1  0.07396640  0.31478599  0.56546103  1
  Zn  Zn140  1  0.05654536  0.81731672  0.07296954  1
  Zn  Zn141  1  0.07004663  0.82684833  0.56327893  1
  Zn  Zn142  1  0.56322766  0.31368831  0.06366471  1
  Zn  Zn143  1  0.57771839  0.30285445  0.55942058  1
  Zn  Zn144  1  0.55540391  0.81066957  0.06248710  1
  Zn  Zn145  1  0.56208953  0.81024865  0.55947937  1
  O  O146  1  0.12855994  0.11176605  0.12141916  1
  O  O147  1  0.11690177  0.11478616  0.62697224  1
  O  O148  1  0.12700855  0.62409326  0.11438407  1
  O  O149  1  0.11080990  0.61695729  0.63315537  1
  O  O150  1  0.62738491  0.12404648  0.13209030  1
  O  O151  1  0.62696162  0.11341644  0.61600228  1
  O  O152  1  0.62151815  0.61484000  0.11496342  1
  O  O153  1  0.62233145  0.62649116  0.60948178  1
  O  O154  1  0.38512257  0.40634160  0.34069389  1
  O  O155  1  0.38054819  0.36728883  0.89335944  1
  O  O156  1  0.38233810  0.87385337  0.37870163  1
  O  O157  1  0.36624489  0.88473453  0.87965669  1
  O  O158  1  0.88596642  0.36745307  0.38817010  1
  O  O159  1  0.86914991  0.38989820  0.87458785  1
  O  O160  1  0.86906161  0.88795910  0.38469837  1
  O  O161  1  0.88009642  0.88776967  0.87977384  1
  O  O162  1  0.26340112  0.00597239  0.36592081  1
  O  O163  1  0.26289693  0.01585463  0.87696282  1
  O  O164  1  0.23801965  0.52220692  0.37920165  1
  O  O165  1  0.23923085  0.50506271  0.87117331  1
  O  O166  1  0.75225534  0.00753497  0.37296713  1
  O  O167  1  0.75823270  0.00274617  0.87254547  1
  O  O168  1  0.74418163  0.51180068  0.36469995  1
  O  O169  1  0.76058932  0.50779773  0.87227566  1
  O  O170  1  0.23575843  0.51094700  0.12861592  1
  O  O171  1  0.21592027  0.53780909  0.64786743  1
  O  O172  1  0.25710586  0.99487116  0.13360060  1
  O  O173  1  0.24669147  0.99204543  0.62605483  1
  O  O174  1  0.74235124  0.49565543  0.13254840  1
  O  O175  1  0.76380337  0.50819595  0.64316242  1
  O  O176  1  0.74561419  0.97680813  0.11370839  1
  O  O177  1  0.74350098  0.99199261  0.62987984  1
  O  O178  1  0.00285043  0.36714570  0.25556068  1
  O  O179  1  -0.01299606  0.35593266  0.74543098  1
  O  O180  1  0.00493415  0.85869414  0.23605884  1
  O  O181  1  -0.00988290  0.86853333  0.76235402  1
  O  O182  1  0.52050783  0.36277132  0.24411981  1
  O  O183  1  0.52365589  0.36013693  0.72929323  1
  O  O184  1  0.50432804  0.86813445  0.25893055  1
  O  O185  1  0.51664720  0.86418487  0.74080137  1
  O  O186  1  0.50498033  0.13565242  0.24558369  1
  O  O187  1  0.51146047  0.13615936  0.73541599  1
  O  O188  1  0.51377821  0.61940581  0.24022778  1
  O  O189  1  0.52037505  0.64998105  0.73403774  1
  O  O190  1  1.00781475  0.14188559  0.23660119  1
  O  O191  1  0.99695289  0.13267381  0.73696647  1
  O  O192  1  1.01328846  0.65469592  0.24954554  1
  O  O193  1  0.98491115  0.63873364  0.76367988  1
  O  O194  1  0.37217113  0.25683173  0.00689013  1
  O  O195  1  0.37797862  0.28863272  0.45681340  1
  O  O196  1  0.34959838  0.69826700  0.04832377  1
  O  O197  1  0.36539149  0.75898667  0.51078554  1
  O  O198  1  0.86611353  0.24984482  -0.00869858  1
  O  O199  1  0.87764316  0.25603306  0.50869593  1
  O  O200  1  0.87130913  0.74252107  0.00669710  1
  O  O201  1  0.86054926  0.76620783  0.49125747  1
  O  O202  1  0.16715708  0.24916991  0.55788583  1
  O  O203  1  0.14318985  0.22922716  1.02455680  1
  O  O204  1  0.13670243  0.75735485  0.50024313  1
  O  O205  1  0.11225694  0.74395371  0.99566667  1
  O  O206  1  0.62900180  0.23878637  0.48099479  1
  O  O207  1  0.62513103  0.25520376  0.98341481  1
  O  O208  1  0.63738258  0.75840624  0.48342787  1
  O  O209  1  0.61503327  0.73075227  1.00352570  1
  O  O210  1  0.50011587  0.24760707  0.13481440  1
  O  O211  1  0.51138713  0.23415933  0.63163203  1
  O  O212  1  0.48286161  0.73052319  0.12218637  1
  O  O213  1  0.48630085  0.74059498  0.61525384  1
  O  O214  1  1.00486973  0.24551000  0.12874470  1
  O  O215  1  0.99814270  0.23853323  0.62977000  1
  O  O216  1  0.97915143  0.75306836  0.12819294  1
  O  O217  1  1.00439588  0.76419005  0.64508648  1
  O  O218  1  -0.00065098  0.25171560  0.35455237  1
  O  O219  1  0.00082167  0.23838940  0.85596377  1
  O  O220  1  0.01264447  0.76036599  0.36344633  1
  O  O221  1  0.00011770  0.76812391  0.87434240  1
  O  O222  1  0.52083609  0.24294717  0.36023235  1
  O  O223  1  0.51588548  0.24077011  0.85779545  1
  O  O224  1  0.51123276  0.74960655  0.38290245  1
  O  O225  1  0.48353175  0.75856081  0.89720660  1
  O  O226  1  0.26510094  0.13286646  0.47616080  1
  O  O227  1  0.24650375  0.13276408  0.99405394  1
  O  O228  1  0.25080920  0.64561787  0.49464763  1
  O  O229  1  0.22302810  0.61517590  0.98766951  1
  O  O230  1  0.73810928  0.12044279  0.48979154  1
  O  O231  1  0.74566443  0.14048640  0.99096778  1
  O  O232  1  0.76134410  0.63151075  0.48476123  1
  O  O233  1  0.73251058  0.61765819  0.99141726  1
  O  O234  1  0.26617581  0.36684742  0.00241939  1
  O  O235  1  0.24517411  0.36589115  0.45554963  1
  O  O236  1  0.25280959  0.88503278  0.01135770  1
  O  O237  1  0.26204912  0.86679547  0.50551550  1
  O  O238  1  0.74798656  0.36142755  0.00410228  1
  O  O239  1  0.75718922  0.37449064  0.49236528  1
  O  O240  1  0.73975357  0.86183826  0.00487895  1
  O  O241  1  0.75416079  0.86860851  0.50503244  1
  O  O242  1  0.11480996  0.50008136  0.23617432  1
  O  O243  1  0.10788586  0.49201108  0.75751090  1
  O  O244  1  0.13702759  1.00087916  0.23769841  1
  O  O245  1  0.12123318  0.99544975  0.73322798  1
  O  O246  1  0.63390943  0.48919680  0.24254489  1
  O  O247  1  0.64027865  0.48250392  0.75263443  1
  O  O248  1  0.61622656  0.98022241  0.24506024  1
  O  O249  1  0.63646790  0.99012348  0.74188596  1
  O  O250  1  0.37110739  -0.00377930  0.26124620  1
  O  O251  1  0.38309141  -0.00072125  0.76699228  1
  O  O252  1  0.38655171  0.47145865  0.28208705  1
  O  O253  1  0.28444522  0.42550875  0.72348109  1
  O  O254  1  0.87811498  -0.00754503  0.26236727  1
  O  O255  1  0.86083334  -0.00192646  0.74813453  1
  O  O256  1  0.85933236  0.49854161  0.24796656  1
  O  O257  1  0.86988791  0.51068989  0.76276676  1
  O  O258  1  0.11014417  0.38398642  0.35562958  1
  O  O259  1  0.11197259  0.35255529  0.93988584  1
  O  O260  1  0.13525293  0.86507453  0.38106679  1
  O  O261  1  0.10880791  0.87184340  0.88631854  1
  O  O262  1  0.63958488  0.35761337  0.36597059  1
  O  O263  1  0.63153936  0.35996586  0.86230862  1
  O  O264  1  0.61742799  0.86641613  0.36497128  1
  O  O265  1  0.63021427  0.87347408  0.85533587  1
  O  O266  1  0.38414654  0.14360626  0.11822454  1
  O  O267  1  0.39470263  0.11313647  0.61485736  1
  O  O268  1  0.39390890  0.58841988  0.14514892  1
  O  O269  1  0.36246938  0.64176007  0.62870096  1
  O  O270  1  0.89482885  0.12635333  0.11670397  1
  O  O271  1  0.88667811  0.13115604  0.61932474  1
  O  O272  1  0.86355541  0.63973291  0.12953660  1
  O  O273  1  0.86158439  0.63468114  0.65108146  1
  O  O274  1  0.26776232  0.24564975  0.12311895  1
  O  O275  1  0.28930893  0.24319905  0.63008742  1
  O  O276  1  0.24646502  0.77315205  0.12985847  1
  O  O277  1  0.25518999  0.76050231  0.61887994  1
  O  O278  1  0.75235886  0.25729814  0.10973912  1
  O  O279  1  0.76513353  0.23635599  0.62563075  1
  O  O280  1  0.76005178  0.75825118  0.13054885  1
  O  O281  1  0.74769325  0.75738401  0.61297902  1
  O  O282  1  0.25069145  0.22668371  0.34397224  1
  O  O283  1  0.23924064  0.24234345  0.88744727  1
  O  O284  1  0.24435624  0.75144150  0.38558994  1
  O  O285  1  0.22852877  0.76645130  0.88088613  1
  O  O286  1  0.74278144  0.23447084  0.36549056  1
  O  O287  1  0.74616632  0.24431539  0.88211641  1
  O  O288  1  0.74257346  0.73855997  0.37629234  1
  O  O289  1  0.75134245  0.73210341  0.87289316  1
  O  O290  1  0.01929294  0.13335597  0.01036988  1
  O  O291  1  0.00298676  0.13338429  0.50957294  1
  O  O292  1  0.01189056  0.61711300  -0.00675293  1
  O  O293  1  -0.05271064  0.63463562  0.51332688  1
  O  O294  1  0.50577786  0.11434316  -0.00204816  1
  O  O295  1  0.51598854  0.13220944  0.51185471  1
  O  O296  1  0.50774039  0.60595816  0.01151114  1
  O  O297  1  0.48449140  0.61387657  0.52613431  1
  O  O298  1  0.50745914  0.38415459  0.53177601  1
  O  O299  1  0.49631334  0.38812982  1.00061518  1
  O  O300  1  0.48923454  0.86893426  0.48697852  1
  O  O301  1  0.50145077  0.89159322  1.00640855  1
  O  O302  1  1.01137935  0.36484293  0.47952381  1
  O  O303  1  0.98378662  0.39461899  1.01602126  1
  O  O304  1  0.98179287  0.86845348  0.50583577  1
  O  O305  1  0.99463544  0.88014454  0.99453176  1
  O  O306  1  0.53238929  0.48741592  0.40555168  1
  O  O307  1  0.50389471  0.50498088  0.88222230  1
  O  O308  1  0.49070702  0.98756930  0.36869653  1
  O  O309  1  0.48929862  1.00092331  0.88081182  1
  O  O310  1  0.99965075  0.49114658  0.36989145  1
  O  O311  1  0.98385556  0.50384157  0.88912720  1
  O  O312  1  0.98799193  1.00886716  0.37290646  1
  O  O313  1  0.98658696  0.99279347  0.87329714  1
  O  O314  1  0.01199090  0.01128166  0.13502562  1
  O  O315  1  0.00716918  0.01247838  0.62455129  1
  O  O316  1  0.00342293  0.51232603  0.11773863  1
  O  O317  1  0.00540398  0.50911222  0.63282528  1
  O  O318  1  0.48729259  0.00672532  0.10864140  1
  O  O319  1  0.51375098  0.01022724  0.63450512  1
  O  O320  1  0.51494244  0.50022708  0.12710505  1
  O  O321  1  0.50072532  0.52408794  0.66563543  1
  O  O322  1  0.23422029  0.38765700  0.25914762  1
  O  O323  1  0.24971729  0.36906564  0.75711091  1
  O  O324  1  0.25297561  0.89172513  0.24129467  1
  O  O325  1  0.25890353  0.87252145  0.73800072  1
  O  O326  1  0.74536431  0.38356816  0.24329220  1
  O  O327  1  0.75094216  0.38645477  0.75316043  1
  O  O328  1  0.73624925  0.87710436  0.25038637  1
  O  O329  1  0.74701655  0.87899885  0.74048952  1
  O  O330  1  0.25033894  0.10573132  0.25576488  1
  O  O331  1  0.23419323  0.13824274  0.76403976  1
  O  O332  1  0.24891082  0.61998623  0.25935636  1
  O  O333  1  0.24423360  0.64276563  0.77702140  1
  O  O334  1  0.75556402  0.12094608  0.26007768  1
  O  O335  1  0.75336392  0.11273851  0.75941718  1
  O  O336  1  0.74122492  0.61182167  0.25629997  1
  O  O337  1  0.75011701  0.61385928  0.76376548  1
  O  O338  1  0.39031118  0.11075031  0.37866455  1
  O  O339  1  0.35856340  0.14086365  0.86648968  1
  O  O340  1  0.35533808  0.63512138  0.37921414  1
  O  O341  1  0.35014081  0.62353634  0.89431553  1
  O  O342  1  0.86350415  0.11179132  0.38224471  1
  O  O343  1  0.86642193  0.11120186  0.87438398  1
  O  O344  1  0.86087675  0.62911488  0.36132329  1
  O  O345  1  0.86148988  0.61947449  0.86949314  1
  O  O346  1  0.11984349  0.39344337  0.13378168  1
  O  O347  1  0.12376279  0.39452772  0.63240247  1
  O  O348  1  0.13551849  0.89304343  0.11578560  1
  O  O349  1  0.14309588  0.88022328  0.63155633  1
  O  O350  1  0.63771383  0.38063893  0.12942500  1
  O  O351  1  0.64919386  0.36190828  0.63352608  1
  O  O352  1  0.63343783  0.85642245  0.13734777  1
  O  O353  1  0.63409832  0.87975511  0.62622954  1
  O  O354  1  0.12274604  0.26901383  0.23682880  1
  O  O355  1  0.11316622  0.25457908  0.74629060  1
  O  O356  1  0.13143501  0.76436679  0.25770954  1
  O  O357  1  0.10679293  0.74986885  0.76980653  1
  O  O358  1  0.62459817  0.25339206  0.25506437  1
  O  O359  1  0.63214744  0.25845408  0.75618102  1
  O  O360  1  0.62719615  0.75600768  0.26439071  1
  O  O361  1  0.63669045  0.76196499  0.74532541  1
  O  O362  1  0.39518378  0.25545477  0.24048447  1
  O  O363  1  0.39912632  0.26064140  0.74734706  1
  O  O364  1  0.36113209  0.74020383  0.23139933  1
  O  O365  1  0.38195704  0.75948721  0.73520609  1
  O  O366  1  0.88471792  0.25424619  0.24417703  1
  O  O367  1  0.88100216  0.24373630  0.73458793  1
  O  O368  1  0.88173286  0.75247027  0.25184361  1
  O  O369  1  0.88414972  0.74379424  0.76186744  1
  O  O370  1  0.35374992  0.47201633  0.53608655  1
  O  O371  1  0.38773250  0.48987317  1.00517879  1
  O  O372  1  0.36937999  0.98852384  0.48328240  1
  O  O373  1  0.38644240  1.00825006  0.98179031  1
  O  O374  1  0.87925601  0.47415767  0.50850363  1
  O  O375  1  0.87944009  0.51058095  0.99299849  1
  O  O376  1  0.87182080  0.98857748  0.49215076  1
  O  O377  1  0.87246292  1.00276229  0.99372616  1
  O  O378  1  0.13425655  0.01340671  0.01437061  1
  O  O379  1  0.12823886  -0.01000007  0.52394079  1
  O  O380  1  0.10945777  0.50764707  0.01415811  1
  O  O381  1  0.12181536  0.50767905  0.52283595  1
  O  O382  1  0.61236411  0.00445410  -0.01088565  1
  O  O383  1  0.62664678  0.00214161  0.50914374  1
  O  O384  1  0.61524097  0.49765507  0.00460841  1
  O  O385  1  0.58696604  0.49901854  0.46525454  1
  O  O386  1  0.38503494  0.35842863  0.11183384  1
  O  O387  1  0.35695749  0.42162586  0.59767780  1
  O  O388  1  0.36886833  0.86403167  0.12293847  1
  O  O389  1  0.36913923  0.87399440  0.61636311  1
  O  O390  1  0.86299183  0.38520836  0.12862309  1
  O  O391  1  0.87729614  0.35790819  0.61205660  1
  O  O392  1  0.85973628  0.86494624  0.12003848  1
  O  O393  1  0.86395254  0.87920249  0.61300374  1
  O  O394  1  0.13570164  0.11654293  0.37813217  1
  O  O395  1  0.13147238  0.11721230  0.89105169  1
  O  O396  1  0.13749990  0.65061136  0.37516282  1
  O  O397  1  0.12629378  0.64332230  0.88535415  1
  O  O398  1  0.63611431  0.12576754  0.37635795  1
  O  O399  1  0.63781687  0.13658814  0.86351805  1
  O  O400  1  0.63078165  0.63619818  0.37286298  1
  O  O401  1  0.63180803  0.61912687  0.88552467  1
