# generated using pymatgen
data_V73Zn73O256
_symmetry_space_group_name_H-M   'P 1'
_cell_length_a   16.94289488
_cell_length_b   16.84760756
_cell_length_c   16.89517481
_cell_angle_alpha   90.14016021
_cell_angle_beta   89.95004689
_cell_angle_gamma   89.80574256
_symmetry_Int_Tables_number   1
_chemical_formula_structural   V73Zn73O256
_chemical_formula_sum   'V73 Zn73 O256'
_cell_volume   4822.63706779
_cell_formula_units_Z   1
loop_
 _symmetry_equiv_pos_site_id
 _symmetry_equiv_pos_as_xyz
  1  'x, y, z'
loop_
 _atom_site_type_symbol
 _atom_site_label
 _atom_site_symmetry_multiplicity
 _atom_site_fract_x
 _atom_site_fract_y
 _atom_site_fract_z
 _atom_site_occupancy
  V  V0  1  0.89114008  0.87524401  0.00118457  1
  V  V1  1  0.25911490  0.62318385  0.87968456  1
  V  V2  1  0.60510383  0.00264436  0.13305067  1
  V  V3  1  0.13156369  -0.00528424  0.62223084  1
  V  V4  1  0.61907621  0.86993486  0.76868037  1
  V  V5  1  0.88484424  0.75659827  0.61328560  1
  V  V6  1  0.64309365  0.13450537  0.49901148  1
  V  V7  1  -0.00522461  0.37461628  0.38138234  1
  V  V8  1  0.37584941  0.25676905  0.61691183  1
  V  V9  1  0.36935513  0.72810535  0.13166108  1
  V  V10  1  0.11220395  0.39335586  0.24504664  1
  V  V11  1  0.10818637  0.11820046  -0.00161782  1
  V  V12  1  0.59750900  0.12346911  0.00367317  1
  V  V13  1  0.12611157  0.12630066  0.49652974  1
  V  V14  1  0.00155721  0.75702610  0.74861534  1
  V  V15  1  0.47735788  0.49991835  0.49083681  1
  V  V16  1  0.12255239  0.73890178  0.87187759  1
  V  V17  1  0.89544880  -0.00612554  0.87530102  1
  V  V18  1  0.36233129  0.01526418  0.37597979  1
  V  V19  1  0.63657086  0.25399375  0.36314537  1
  V  V20  1  0.13624230  0.87669825  0.24055534  1
  V  V21  1  0.75667229  0.11634649  0.90540451  1
  V  V22  1  0.49315767  0.74613976  0.24346669  1
  V  V23  1  0.86083561  0.12109740  0.24661878  1
  V  V24  1  -0.00348931  0.13095989  0.63898791  1
  V  V25  1  0.73545391  0.75520194  0.00206155  1
  V  V26  1  0.38542003  -0.01659041  0.87341798  1
  V  V27  1  0.87381599  0.35146134  0.50444838  1
  V  V28  1  0.23634078  0.25257508  -0.02710489  1
  V  V29  1  0.14449428  0.74960387  0.38257872  1
  V  V30  1  0.50110753  0.12530932  0.62038670  1
  V  V31  1  0.62449727  0.38307066  0.24109419  1
  V  V32  1  0.88087306  0.62742645  0.24741492  1
  V  V33  1  0.87682362  0.74321924  0.13062145  1
  V  V34  1  -0.00114218  0.24173847  0.23938956  1
  V  V35  1  0.86292908  0.00328133  0.37376525  1
  V  V36  1  0.88740888  0.62482644  0.74374394  1
  V  V37  1  0.62819410  -0.00559963  0.62526661  1
  V  V38  1  0.74564380  0.37139798  0.62515700  1
  V  V39  1  -0.00241859  -0.00349890  0.49644509  1
  V  V40  1  0.74646247  0.63682984  0.87770903  1
  V  V41  1  0.00997070  0.51741906  0.01753115  1
  V  V42  1  0.73017964  0.75171706  0.50424926  1
  V  V43  1  0.46382519  0.47376141  -0.00472546  1
  V  V44  1  0.38215780  0.70959256  0.65538169  1
  V  V45  1  0.75017897  0.49686660  0.23510021  1
  V  V46  1  0.37068467  0.87422643  0.01660425  1
  V  V47  1  0.13026340  0.87383770  0.74913625  1
  V  V48  1  0.25697967  0.50125128  0.75682989  1
  V  V49  1  0.74198435  0.50460771  0.74720372  1
  V  V50  1  0.74318630  0.89104119  0.13437038  1
  V  V51  1  0.86282925  0.25242792  0.11514875  1
  V  V52  1  0.25397135  -0.00442417  0.74856391  1
  V  V53  1  -0.00055835  0.87026989  0.36724285  1
  V  V54  1  0.24525125  0.37598849  0.62546952  1
  V  V55  1  0.25498437  0.36785456  0.12659273  1
  V  V56  1  0.50108721  -0.00158283  0.49602435  1
  V  V57  1  0.88340357  0.50300356  0.88088491  1
  V  V58  1  0.50890797  0.26097120  0.75457258  1
  V  V59  1  0.00332363  0.35841212  0.87719092  1
  V  V60  1  0.26303151  0.62073960  0.38643515  1
  V  V61  1  0.26740308  0.50868930  0.24867721  1
  V  V62  1  0.75459629  0.00510805  0.75404906  1
  V  V63  1  0.25008568  0.01412939  0.23701351  1
  V  V64  1  0.35771239  0.87040872  0.50552578  1
  V  V65  1  0.86711914  0.38194083  0.00951704  1
  V  V66  1  0.12456953  0.24628882  0.37329256  1
  V  V67  1  0.37261847  0.12434912  0.75494751  1
  V  V68  1  0.11220138  0.50926604  0.61915868  1
  V  V69  1  0.62142585  0.75252104  0.35908346  1
  V  V70  1  0.87029907  0.50748937  0.39110961  1
  V  V71  1  0.25068545  0.25358086  0.49719342  1
  V  V72  1  0.62253255  0.51660305  0.60981315  1
  Zn  Zn73  1  0.87348036  0.24308173  0.65117416  1
  Zn  Zn74  1  0.49916019  0.87998745  0.36779568  1
  Zn  Zn75  1  0.75662128  0.87529204  0.62524534  1
  Zn  Zn76  1  0.63203585  0.25162732  -0.11832059  1
  Zn  Zn77  1  0.49210413  0.37337385  0.37384877  1
  Zn  Zn78  1  0.22473279  0.74390302  0.03052340  1
  Zn  Zn79  1  0.73814547  0.61942170  0.38098430  1
  Zn  Zn80  1  0.12061564  0.36289698  0.75696247  1
  Zn  Zn81  1  0.52234477  0.60451818  0.11818756  1
  Zn  Zn82  1  0.18060596  0.18199683  0.18169814  1
  Zn  Zn83  1  0.18678543  0.18670761  0.68846486  1
  Zn  Zn84  1  0.18006601  0.68768567  0.19935601  1
  Zn  Zn85  1  0.19655935  0.68541579  0.67821117  1
  Zn  Zn86  1  0.68416785  0.18545994  0.17625474  1
  Zn  Zn87  1  0.69006061  0.18526844  0.68589840  1
  Zn  Zn88  1  0.69335017  0.68552873  0.19154455  1
  Zn  Zn89  1  0.69059805  0.69076304  0.68877704  1
  Zn  Zn90  1  0.29836849  0.32879959  0.31362343  1
  Zn  Zn91  1  0.31127962  0.31069141  0.80548293  1
  Zn  Zn92  1  0.31815003  0.82172167  0.31684493  1
  Zn  Zn93  1  0.30859757  0.80726056  0.80309761  1
  Zn  Zn94  1  0.80849141  0.31117310  0.31386234  1
  Zn  Zn95  1  0.79512865  0.31533537  0.82234246  1
  Zn  Zn96  1  0.80687139  0.81779225  0.31765393  1
  Zn  Zn97  1  0.81179664  0.81992428  0.81088245  1
  Zn  Zn98  1  0.18705527  0.44158501  0.43671796  1
  Zn  Zn99  1  0.18190916  0.43997615  0.94372707  1
  Zn  Zn100  1  0.18521609  0.93932507  0.43191403  1
  Zn  Zn101  1  0.19412288  0.92606967  0.93601582  1
  Zn  Zn102  1  0.68946771  0.43056335  0.43751552  1
  Zn  Zn103  1  0.68474655  0.42641587  0.92478590  1
  Zn  Zn104  1  0.68567115  0.92925429  0.44230082  1
  Zn  Zn105  1  0.68492343  0.94322440  0.94819949  1
  Zn  Zn106  1  0.26791726  0.05103714  0.03060307  1
  Zn  Zn107  1  0.31397037  0.06614443  0.56089367  1
  Zn  Zn108  1  0.29849412  0.55368511  0.06219871  1
  Zn  Zn109  1  0.31322370  0.56375397  0.56927905  1
  Zn  Zn110  1  0.93771029  0.06511296  0.06570904  1
  Zn  Zn111  1  0.81776533  0.05851570  0.56618309  1
  Zn  Zn112  1  0.69117686  0.55806470  0.05757300  1
  Zn  Zn113  1  0.80947102  0.57297770  0.56432109  1
  Zn  Zn114  1  0.44077636  0.43416497  0.18256153  1
  Zn  Zn115  1  0.44300945  0.44955088  0.68828614  1
  Zn  Zn116  1  0.43276667  0.93468650  0.19666401  1
  Zn  Zn117  1  0.44164091  0.92931869  0.68441655  1
  Zn  Zn118  1  0.93487768  0.44215112  0.18949607  1
  Zn  Zn119  1  0.93695797  0.43095596  0.69071809  1
  Zn  Zn120  1  0.93457613  0.93057480  0.19003093  1
  Zn  Zn121  1  0.94230746  0.93974911  0.68819715  1
  Zn  Zn122  1  0.06078843  0.05679768  0.30382805  1
  Zn  Zn123  1  0.07800312  0.06901925  0.81744118  1
  Zn  Zn124  1  0.05384938  0.57328935  0.34071236  1
  Zn  Zn125  1  0.06849477  0.55350901  0.80567010  1
  Zn  Zn126  1  0.57449780  0.06317251  0.32294860  1
  Zn  Zn127  1  0.56583209  0.06207090  0.81394738  1
  Zn  Zn128  1  0.55545880  0.56674126  0.31866632  1
  Zn  Zn129  1  0.57067418  0.56586713  0.91414676  1
  Zn  Zn130  1  0.42611703  0.21660677  0.40582185  1
  Zn  Zn131  1  0.43191020  0.19508984  0.93319179  1
  Zn  Zn132  1  0.44196557  0.68597069  0.44367322  1
  Zn  Zn133  1  0.42025192  0.67098006  0.95918560  1
  Zn  Zn134  1  0.93932385  0.17977885  0.43355736  1
  Zn  Zn135  1  0.93036432  0.18384224  0.82336578  1
  Zn  Zn136  1  0.94665214  0.68261531  0.43886101  1
  Zn  Zn137  1  0.93536664  0.69031299  0.93774589  1
  Zn  Zn138  1  0.06143665  0.31480273  0.05520426  1
  Zn  Zn139  1  0.06189783  0.31480787  0.56629992  1
  Zn  Zn140  1  0.06690151  0.78522870  0.07617781  1
  Zn  Zn141  1  0.06331342  0.81129460  0.55921321  1
  Zn  Zn142  1  0.57600520  0.32345179  0.05272204  1
  Zn  Zn143  1  0.56035570  0.31842860  0.56069452  1
  Zn  Zn144  1  0.55327893  0.82188467  0.06243457  1
  Zn  Zn145  1  0.54847047  0.81004769  0.57407452  1
  O  O146  1  0.13037125  0.12545177  0.10103130  1
  O  O147  1  0.11377132  0.11565925  0.61775976  1
  O  O148  1  0.13724883  0.69655355  0.09776583  1
  O  O149  1  0.12550119  0.60975994  0.63110518  1
  O  O150  1  0.61661897  0.11931296  0.11367898  1
  O  O151  1  0.62097342  0.11368974  0.61938317  1
  O  O152  1  0.63148019  0.63151649  0.11742543  1
  O  O153  1  0.62838724  0.61500827  0.62964068  1
  O  O154  1  0.39816411  0.31107893  0.34536600  1
  O  O155  1  0.36868367  0.34257456  0.90269407  1
  O  O156  1  0.38040153  0.89366846  0.38671411  1
  O  O157  1  0.37808511  0.88322089  0.86061006  1
  O  O158  1  0.87392301  0.37779276  0.39209206  1
  O  O159  1  0.88105387  0.38482360  0.88930687  1
  O  O160  1  0.88863763  0.89141560  0.36056689  1
  O  O161  1  0.87499999  0.87971927  0.89123232  1
  O  O162  1  0.26007718  0.01050009  0.37865640  1
  O  O163  1  0.26349320  -0.00416744  0.85272364  1
  O  O164  1  0.24298444  0.50939787  0.36120083  1
  O  O165  1  0.23891019  0.50896541  0.86696495  1
  O  O166  1  0.76520972  -0.00918245  0.38153664  1
  O  O167  1  0.75379275  0.00501701  0.87199040  1
  O  O168  1  0.76390147  0.49784074  0.37481436  1
  O  O169  1  0.76455582  0.51274615  0.86087943  1
  O  O170  1  0.24414157  0.48922290  0.14283174  1
  O  O171  1  0.24524277  0.49020527  0.63591708  1
  O  O172  1  0.26454623  1.00891545  0.13882958  1
  O  O173  1  0.23780679  1.00845813  0.62908023  1
  O  O174  1  0.75593538  0.50208769  0.13677912  1
  O  O175  1  0.74611552  0.50300181  0.63116703  1
  O  O176  1  0.74734619  0.98895132  0.12565571  1
  O  O177  1  0.74587265  0.99572199  0.63170472  1
  O  O178  1  0.00169417  0.36553349  0.25805912  1
  O  O179  1  -0.00588710  0.37745866  0.77379608  1
  O  O180  1  0.01615204  0.88554196  0.26338823  1
  O  O181  1  0.01281365  0.86566614  0.74527339  1
  O  O182  1  0.52172620  0.38884614  0.25303188  1
  O  O183  1  0.49553734  0.35939933  0.74205962  1
  O  O184  1  0.49733507  0.85620344  0.25185547  1
  O  O185  1  0.51981924  0.88144676  0.74813950  1
  O  O186  1  0.49662932  0.15282569  0.25356571  1
  O  O187  1  0.49139758  0.12654659  0.73753130  1
  O  O188  1  0.50953662  0.63995606  0.23997684  1
  O  O189  1  0.51687425  0.70641773  0.82058929  1
  O  O190  1  0.99565205  0.13921144  0.25315212  1
  O  O191  1  1.00220158  0.12125994  0.74264302  1
  O  O192  1  0.97886432  0.62258334  0.26007272  1
  O  O193  1  0.99022659  0.63310074  0.75119223  1
  O  O194  1  0.35810421  0.28383076  -0.04146789  1
  O  O195  1  0.36183085  0.23950052  0.50730811  1
  O  O196  1  0.37206905  0.75273245  0.02408124  1
  O  O197  1  0.38008195  0.77300149  0.48621388  1
  O  O198  1  0.87628180  0.26539306  0.01360133  1
  O  O199  1  0.87285045  0.25135654  0.50092511  1
  O  O200  1  0.86856851  0.75679340  0.01193219  1
  O  O201  1  0.88676354  0.74664535  0.51266202  1
  O  O202  1  0.12726129  0.24508595  0.49317099  1
  O  O203  1  0.13332540  0.23897419  1.00132574  1
  O  O204  1  0.12342070  0.75529393  0.48173852  1
  O  O205  1  0.11981399  0.76787705  0.96806986  1
  O  O206  1  0.63040913  0.23436032  0.51655574  1
  O  O207  1  0.61855919  0.23111765  1.00024361  1
  O  O208  1  0.62994422  0.75045826  0.51044418  1
  O  O209  1  0.63717186  0.76160938  1.00167719  1
  O  O210  1  0.48200749  0.26228844  0.14405069  1
  O  O211  1  0.49296865  0.24448966  0.62818519  1
  O  O212  1  0.48974347  0.75076609  0.13364738  1
  O  O213  1  0.47066098  0.74508305  0.61524240  1
  O  O214  1  0.99563160  0.25514465  0.13788709  1
  O  O215  1  1.00006765  0.23342718  0.62287214  1
  O  O216  1  0.97339085  0.75860990  0.13800175  1
  O  O217  1  0.99217715  0.75122815  0.63176274  1
  O  O218  1  0.00296548  0.25799421  0.36794678  1
  O  O219  1  -0.00656912  0.25946221  0.88668237  1
  O  O220  1  -0.00333461  0.76913798  0.37576311  1
  O  O221  1  0.01011861  0.74515258  0.85890077  1
  O  O222  1  0.53422297  0.25472396  0.39321390  1
  O  O223  1  0.50680149  0.24442860  0.85775141  1
  O  O224  1  0.50867361  0.74651957  0.36292866  1
  O  O225  1  0.49865169  0.74811188  0.87814734  1
  O  O226  1  0.23385464  0.13727876  0.50820390  1
  O  O227  1  0.27813947  0.16418653  1.00524436  1
  O  O228  1  0.25131061  0.61275856  0.48525393  1
  O  O229  1  0.24974926  0.62893662  0.98445991  1
  O  O230  1  0.74105902  0.12191994  0.50991253  1
  O  O231  1  0.75497240  0.11628371  1.00218366  1
  O  O232  1  0.75887758  0.64798075  0.49500937  1
  O  O233  1  0.75095130  0.63874137  0.98537112  1
  O  O234  1  0.23243872  0.36158183  0.01884144  1
  O  O235  1  0.24422202  0.36187844  0.50797544  1
  O  O236  1  0.26617302  0.85072731  -0.01368763  1
  O  O237  1  0.25771835  0.88068348  0.49651024  1
  O  O238  1  0.76979073  0.38778385  0.00324420  1
  O  O239  1  0.76626139  0.37995674  0.51495630  1
  O  O240  1  0.75671727  0.86579523  0.00724707  1
  O  O241  1  0.75285887  0.85724692  0.50464180  1
  O  O242  1  0.10463002  0.49189843  0.26119144  1
  O  O243  1  0.13509572  0.48655693  0.73996517  1
  O  O244  1  0.14101084  0.99119245  0.25643123  1
  O  O245  1  0.13426000  0.99477234  0.74233457  1
  O  O246  1  0.64043895  0.49406799  0.25628734  1
  O  O247  1  0.64406752  0.50105321  0.74159846  1
  O  O248  1  0.62304910  1.01723019  0.23289562  1
  O  O249  1  0.63358259  0.99463251  0.74317867  1
  O  O250  1  0.36127700  -0.00468061  0.26632496  1
  O  O251  1  0.37404112  0.00729769  0.74966442  1
  O  O252  1  0.36500079  0.49399663  0.25313400  1
  O  O253  1  0.35633312  0.48552290  0.75375710  1
  O  O254  1  0.87522496  0.01366801  0.25816501  1
  O  O255  1  0.86809256  -0.01750275  0.76732336  1
  O  O256  1  0.86444664  0.50839288  0.25597208  1
  O  O257  1  0.87773883  0.51648045  0.75357437  1
  O  O258  1  0.11285174  0.36856124  0.36818049  1
  O  O259  1  0.10619879  0.37804295  0.88017957  1
  O  O260  1  0.11650432  0.86964596  0.37151137  1
  O  O261  1  0.13448953  0.86558903  0.85381244  1
  O  O262  1  0.63069317  0.36720830  0.36304882  1
  O  O263  1  0.68676085  0.34692024  0.85161906  1
  O  O264  1  0.61619590  0.85785977  0.38458436  1
  O  O265  1  0.62843095  0.88137923  0.86837955  1
  O  O266  1  0.42530701  0.22241983  0.12067739  1
  O  O267  1  0.38433321  0.13257594  0.62890124  1
  O  O268  1  0.37153173  0.62795338  0.12266723  1
  O  O269  1  0.38607964  0.60641535  0.64546614  1
  O  O270  1  0.88033685  0.14150717  0.13765644  1
  O  O271  1  0.89234016  0.12368407  0.62426007  1
  O  O272  1  0.87051462  0.63668735  0.13867066  1
  O  O273  1  0.87437377  0.63776990  0.63858143  1
  O  O274  1  0.24475478  0.26963827  0.14877480  1
  O  O275  1  0.25649146  0.25553957  0.61777821  1
  O  O276  1  0.27196548  0.75146103  0.14541639  1
  O  O277  1  0.28444506  0.73258615  0.62555575  1
  O  O278  1  0.76480341  0.25329693  0.12870299  1
  O  O279  1  0.75344621  0.26832569  0.63721811  1
  O  O280  1  0.75410791  0.75506651  0.11251586  1
  O  O281  1  0.76428403  0.74987813  0.61509358  1
  O  O282  1  0.23227987  0.25875193  0.38207101  1
  O  O283  1  0.23270071  0.25632686  0.87323740  1
  O  O284  1  0.24944636  0.74341501  0.37580115  1
  O  O285  1  0.23529335  0.73283679  0.85835221  1
  O  O286  1  0.73714903  0.25573055  0.38436085  1
  O  O287  1  0.75564713  0.21304507  0.87480106  1
  O  O288  1  0.73518165  0.75562539  0.38600059  1
  O  O289  1  0.76028992  0.74452857  0.88567778  1
  O  O290  1  0.00819177  0.11725952  -0.00627179  1
  O  O291  1  0.00943830  0.11716152  0.50603657  1
  O  O292  1  -0.00616766  0.61737137  0.00134950  1
  O  O293  1  0.01820067  0.59998124  0.44722367  1
  O  O294  1  0.49785804  0.12601685  -0.00373183  1
  O  O295  1  0.50936062  0.11669124  0.51208280  1
  O  O296  1  0.49682334  0.60283113  -0.00055472  1
  O  O297  1  0.49428838  0.60198348  0.49784836  1
  O  O298  1  0.50959439  0.39191019  0.49430785  1
  O  O299  1  0.48841990  0.37232412  1.00722769  1
  O  O300  1  0.49808341  0.89302599  0.50196233  1
  O  O301  1  0.47069353  0.86565403  0.99590484  1
  O  O302  1  0.98473359  0.36617981  0.49360454  1
  O  O303  1  0.99345893  0.38708665  0.99261477  1
  O  O304  1  1.00504543  0.88928964  0.48798260  1
  O  O305  1  0.98735542  0.85942662  1.01221797  1
  O  O306  1  0.49592775  0.49489524  0.38370154  1
  O  O307  1  0.49116187  0.48727742  0.89548807  1
  O  O308  1  0.49718145  1.00307207  0.38212458  1
  O  O309  1  0.48294417  1.00394940  0.87017219  1
  O  O310  1  0.97689455  0.48025889  0.36509223  1
  O  O311  1  0.99004566  0.50351881  0.87975769  1
  O  O312  1  0.99603750  0.99569843  0.38093361  1
  O  O313  1  0.99281808  0.99787537  0.86395161  1
  O  O314  1  -0.00300653  0.00307441  0.13579420  1
  O  O315  1  0.00645035  0.00814940  0.61725724  1
  O  O316  1  -0.00482732  0.50287357  0.11671283  1
  O  O317  1  0.01337889  0.49176421  0.63264010  1
  O  O318  1  0.50587025  -0.00531141  0.13048702  1
  O  O319  1  0.50895280  0.00803757  0.61861364  1
  O  O320  1  0.49166282  0.49488057  0.10406015  1
  O  O321  1  0.51872617  0.49244950  0.61359635  1
  O  O322  1  0.22884370  0.39130312  0.25050798  1
  O  O323  1  0.24581431  0.37905436  0.74176224  1
  O  O324  1  0.24183194  0.88742086  0.25682842  1
  O  O325  1  0.24282827  0.88277807  0.73957733  1
  O  O326  1  0.74852358  0.39016768  0.25291176  1
  O  O327  1  0.77311209  0.40080352  0.72953529  1
  O  O328  1  0.75010019  0.87133738  0.23304800  1
  O  O329  1  0.74040860  0.88673603  0.74760933  1
  O  O330  1  0.23984777  0.11385909  0.25332278  1
  O  O331  1  0.26799562  0.11651610  0.73760938  1
  O  O332  1  0.24859428  0.61128103  0.25164673  1
  O  O333  1  0.24518051  0.60638290  0.75745658  1
  O  O334  1  0.76306389  0.13125061  0.24655173  1
  O  O335  1  0.75045184  0.10716400  0.74540455  1
  O  O336  1  0.75638144  0.61138787  0.25873474  1
  O  O337  1  0.76348742  0.62151427  0.75494344  1
  O  O338  1  0.38229969  0.11401698  0.37925262  1
  O  O339  1  0.37673839  0.11993984  0.85695979  1
  O  O340  1  0.36113538  0.63154773  0.37462347  1
  O  O341  1  0.35778057  0.62931230  0.87231960  1
  O  O342  1  0.87705062  0.11522808  0.36096079  1
  O  O343  1  0.86971295  0.10063912  0.88102041  1
  O  O344  1  0.86900578  0.61525318  0.36925237  1
  O  O345  1  0.86965251  0.62350146  0.86407322  1
  O  O346  1  0.12031037  0.37601240  0.14387725  1
  O  O347  1  0.13588809  0.37538319  0.62848863  1
  O  O348  1  0.12364861  0.86803606  0.14268301  1
  O  O349  1  0.11817418  0.88759273  0.62941806  1
  O  O350  1  0.63063735  0.36591762  0.14228886  1
  O  O351  1  0.64447200  0.38623725  0.62102934  1
  O  O352  1  0.63113376  0.89164729  0.11669948  1
  O  O353  1  0.62372250  0.88920560  0.62350541  1
  O  O354  1  0.11057456  0.25408435  0.25714777  1
  O  O355  1  0.11948884  0.24928155  0.74789775  1
  O  O356  1  0.13104019  0.76927563  0.26820672  1
  O  O357  1  0.12000776  0.75492058  0.74595417  1
  O  O358  1  0.63469364  0.25844427  0.25745836  1
  O  O359  1  0.60880531  0.24078915  0.74343324  1
  O  O360  1  0.62182223  0.75581116  0.25616690  1
  O  O361  1  0.63757675  0.77143616  0.74580640  1
  O  O362  1  0.43597689  0.12967021  0.21882928  1
  O  O363  1  0.38283852  0.23768644  0.74139780  1
  O  O364  1  0.38578694  0.74828050  0.24623319  1
  O  O365  1  0.38294212  0.73923313  0.75358220  1
  O  O366  1  0.88441842  0.24581569  0.24877713  1
  O  O367  1  0.87070888  0.25615469  0.76220089  1
  O  O368  1  0.85760727  0.73759456  0.24478207  1
  O  O369  1  0.88311694  0.74449964  0.74659821  1
  O  O370  1  0.37858121  0.48969088  0.50507063  1
  O  O371  1  0.36248465  0.48466106  0.99734148  1
  O  O372  1  0.38112439  0.99979334  0.49184262  1
  O  O373  1  0.35714207  0.98478738  0.98058019  1
  O  O374  1  0.87306971  0.50456740  0.49183424  1
  O  O375  1  0.88630894  0.49299214  0.99371227  1
  O  O376  1  0.88571988  1.00992553  0.48390088  1
  O  O377  1  0.88532211  0.98498337  0.99142316  1
  O  O378  1  0.16044201  0.01742823  -0.00453002  1
  O  O379  1  0.11913230  0.00777308  0.50394803  1
  O  O380  1  0.10957638  0.50441473  0.00351824  1
  O  O381  1  0.12861527  0.49039150  0.51929065  1
  O  O382  1  0.62056706  0.01444368  0.01369781  1
  O  O383  1  0.62129819  0.00894169  0.50470627  1
  O  O384  1  0.63073831  0.49615676  -0.01262186  1
  O  O385  1  0.63929001  0.50652147  0.50987259  1
  O  O386  1  0.35381231  0.37292937  0.13531225  1
  O  O387  1  0.36553894  0.36170852  0.63014189  1
  O  O388  1  0.36776732  0.87968316  0.11741132  1
  O  O389  1  0.37374134  0.88711731  0.60609875  1
  O  O390  1  0.88111894  0.36670891  0.11916106  1
  O  O391  1  0.87626857  0.36860371  0.61245707  1
  O  O392  1  0.86202301  0.86885640  0.11821495  1
  O  O393  1  0.87711804  0.86044789  0.63039995  1
  O  O394  1  0.11290451  0.13618715  0.38429686  1
  O  O395  1  0.13436622  0.12499612  0.89410686  1
  O  O396  1  0.14246382  0.64556325  0.36186556  1
  O  O397  1  0.12589010  0.63508732  0.86891368  1
  O  O398  1  0.63154797  0.13584402  0.39021646  1
  O  O399  1  0.63497559  0.11702832  0.89363348  1
  O  O400  1  0.62486222  0.64530678  0.37406329  1
  O  O401  1  0.64826420  0.62871480  0.86156484  1
