# generated using pymatgen
data_V73Zn73O256
_symmetry_space_group_name_H-M   'P 1'
_cell_length_a   16.83475300
_cell_length_b   16.83057004
_cell_length_c   16.83403551
_cell_angle_alpha   90.11051844
_cell_angle_beta   89.97624554
_cell_angle_gamma   90.03149006
_symmetry_Int_Tables_number   1
_chemical_formula_structural   V73Zn73O256
_chemical_formula_sum   'V73 Zn73 O256'
_cell_volume   4769.72018925
_cell_formula_units_Z   1
loop_
 _symmetry_equiv_pos_site_id
 _symmetry_equiv_pos_as_xyz
  1  'x, y, z'
loop_
 _atom_site_type_symbol
 _atom_site_label
 _atom_site_symmetry_multiplicity
 _atom_site_fract_x
 _atom_site_fract_y
 _atom_site_fract_z
 _atom_site_occupancy
  V  V0  1  0.38456202  0.74868778  0.63340841  1
  V  V1  1  0.87339429  0.63493377  0.24203961  1
  V  V2  1  0.12358095  0.36061843  0.24481416  1
  V  V3  1  0.36629775  0.25815338  0.12626682  1
  V  V4  1  0.62566138  0.76510078  0.87393582  1
  V  V5  1  0.00094421  0.76241415  0.24455047  1
  V  V6  1  0.62905291  0.75111900  0.37610420  1
  V  V7  1  -0.01921645  0.50265023  0.48430458  1
  V  V8  1  0.37864755  0.62741903  0.23549508  1
  V  V9  1  0.23529473  0.38701980  0.63092225  1
  V  V10  1  0.74227966  0.87035773  0.63877485  1
  V  V11  1  0.61284544  0.37419215  0.25415882  1
  V  V12  1  0.88405085  0.13757919  0.75208920  1
  V  V13  1  0.24671252  0.87274886  0.63957999  1
  V  V14  1  0.75980457  0.26260793  0.50240422  1
  V  V15  1  0.74296154  0.62948287  0.89437066  1
  V  V16  1  0.12517919  -0.00256935  0.09687663  1
  V  V17  1  0.00522248  0.62124513  0.62606184  1
  V  V18  1  0.12401190  0.37164788  0.76378100  1
  V  V19  1  0.26712771  0.87479677  0.11564245  1
  V  V20  1  0.86711948  0.62104955  0.75270808  1
  V  V21  1  0.23488595  0.61919125  0.87705228  1
  V  V22  1  0.12519920  0.61749209  0.50273599  1
  V  V23  1  0.75593022  0.62129354  0.37201257  1
  V  V24  1  0.23449402  0.25372842  0.00048977  1
  V  V25  1  0.01400691  0.75454012  0.75657792  1
  V  V26  1  0.62667350  0.62375388  0.50003186  1
  V  V27  1  0.88106389  -0.00720315  0.88350977  1
  V  V28  1  0.75041044  0.00779661  0.75792276  1
  V  V29  1  0.37901087  0.49750314  0.37317855  1
  V  V30  1  0.01325234  0.12787813  0.11286291  1
  V  V31  1  0.01252951  0.87145533  0.88861154  1
  V  V32  1  0.50173033  0.48764026  0.49352884  1
  V  V33  1  0.50281677  0.12675146  0.11714900  1
  V  V34  1  0.50467016  0.87653295  0.37682141  1
  V  V35  1  0.50434505  0.01638927  0.50551455  1
  V  V36  1  0.36480813  0.00334279  0.37481048  1
  V  V37  1  0.61377518  0.51151723  0.12368265  1
  V  V38  1  0.50354477  -0.00740820  0.00435204  1
  V  V39  1  -0.00312389  0.36418677  0.88476106  1
  V  V40  1  0.13799380  0.88893495  0.25100671  1
  V  V41  1  0.37776882  0.87453339  0.50247095  1
  V  V42  1  0.87155155  0.50059991  0.89175554  1
  V  V43  1  0.83916363  0.27265535  0.12021008  1
  V  V44  1  0.37438841  0.02270611  0.87345124  1
  V  V45  1  0.25314846  0.62360743  0.37415368  1
  V  V46  1  0.48849722  0.87457458  0.86123018  1
  V  V47  1  0.63352728  0.23289414  0.88739596  1
  V  V48  1  0.63502817  0.87963902  0.23138975  1
  V  V49  1  0.50029030  0.51178183  -0.00553533  1
  V  V50  1  0.01784942  0.62678736  0.12134510  1
  V  V51  1  0.35890034  0.11878691  0.25112539  1
  V  V52  1  0.38356043  0.37265030  -0.01014675  1
  V  V53  1  0.25296858  0.74876483  0.50029957  1
  V  V54  1  0.24081280  0.50005159  0.23473441  1
  V  V55  1  -0.01002799  0.36241893  0.36813908  1
  V  V56  1  0.12321964  0.75315675  0.37174595  1
  V  V57  1  0.36315358  0.36988332  0.50018976  1
  V  V58  1  0.75560490  0.49312479  0.24191858  1
  V  V59  1  0.50289857  0.25155490  0.25930569  1
  V  V60  1  0.62077441  0.01611618  0.63010593  1
  V  V61  1  0.00730701  0.13691474  0.62571530  1
  V  V62  1  0.22452623  0.13574590  0.87446284  1
  V  V63  1  0.87442688  0.87882794  0.49644646  1
  V  V64  1  0.37894839  0.24421107  0.63890257  1
  V  V65  1  0.25242531  0.74836867  -0.00420399  1
  V  V66  1  0.37404677  0.61271580  0.75384030  1
  V  V67  1  0.00467326  -0.00510300  0.50221492  1
  V  V68  1  0.49666601  0.74671085  0.23503110  1
  V  V69  1  0.63051412  0.48501116  0.62688353  1
  V  V70  1  0.50293489  0.62435646  0.62854542  1
  V  V71  1  0.62338572  0.36774593  0.76694163  1
  V  V72  1  0.01917122  0.50337484  0.00661892  1
  Zn  Zn73  1  -0.04272918  0.19954197  0.27031292  1
  Zn  Zn74  1  0.80874952  0.05198958  0.31956450  1
  Zn  Zn75  1  0.87585052  0.75291810  0.63199837  1
  Zn  Zn76  1  0.11783434  -0.00510101  0.64099158  1
  Zn  Zn77  1  0.37703149  0.48696557  0.86343111  1
  Zn  Zn78  1  0.25160627  0.02076690  0.74687751  1
  Zn  Zn79  1  0.77705259  0.38032324  0.63657968  1
  Zn  Zn80  1  0.75358611  0.75025108  0.50418603  1
  Zn  Zn81  1  0.68859863  0.13674308  0.43203057  1
  Zn  Zn82  1  0.14649622  0.14439839  0.23351723  1
  Zn  Zn83  1  0.18666491  0.20232204  0.68043033  1
  Zn  Zn84  1  0.19489989  0.69351921  0.18387836  1
  Zn  Zn85  1  0.19246345  0.68494732  0.68993585  1
  Zn  Zn86  1  0.70964351  0.15046749  0.15864081  1
  Zn  Zn87  1  0.69881401  0.19646063  0.68591988  1
  Zn  Zn88  1  0.68830549  0.69363601  0.18260591  1
  Zn  Zn89  1  0.68082324  0.68514644  0.69833369  1
  Zn  Zn90  1  0.31027806  0.31811944  0.30656660  1
  Zn  Zn91  1  0.30522426  0.30847201  0.80909804  1
  Zn  Zn92  1  0.31487512  0.81459886  0.30978144  1
  Zn  Zn93  1  0.31866686  0.80341509  0.81911219  1
  Zn  Zn94  1  0.80844455  0.30390219  0.31144791  1
  Zn  Zn95  1  0.80803664  0.32625965  0.81160491  1
  Zn  Zn96  1  0.84358495  0.86483459  0.28210906  1
  Zn  Zn97  1  0.81752934  0.80905717  0.81991095  1
  Zn  Zn98  1  0.17984104  0.43282138  0.43184558  1
  Zn  Zn99  1  0.19442647  0.43742867  0.94148491  1
  Zn  Zn100  1  0.18185739  0.93770111  0.44447746  1
  Zn  Zn101  1  0.19739601  0.93363830  0.92832715  1
  Zn  Zn102  1  0.69395910  0.43216334  0.43303591  1
  Zn  Zn103  1  0.68728519  0.43554004  0.94272179  1
  Zn  Zn104  1  0.69107627  0.93942868  0.44512213  1
  Zn  Zn105  1  0.68510997  0.94657179  0.94335437  1
  Zn  Zn106  1  0.31064451  0.06530380  0.05638328  1
  Zn  Zn107  1  0.31439964  0.05858099  0.56523015  1
  Zn  Zn108  1  0.31164343  0.56247050  0.05385725  1
  Zn  Zn109  1  0.31293529  0.55835368  0.56414722  1
  Zn  Zn110  1  0.82974241  0.10191593  0.05340512  1
  Zn  Zn111  1  0.81785308  0.06337959  0.56903867  1
  Zn  Zn112  1  0.81251750  0.56957304  0.06928738  1
  Zn  Zn113  1  0.81256001  0.56182636  0.56764698  1
  Zn  Zn114  1  0.43456832  0.44012192  0.18431749  1
  Zn  Zn115  1  0.44726357  0.42721420  0.68247889  1
  Zn  Zn116  1  0.44489903  0.93924684  0.19020972  1
  Zn  Zn117  1  0.43442862  0.94733283  0.69178754  1
  Zn  Zn118  1  0.93725153  0.43439796  0.18292316  1
  Zn  Zn119  1  0.96467861  0.44474326  0.70135748  1
  Zn  Zn120  1  0.90689929  0.98123014  0.14934664  1
  Zn  Zn121  1  0.93339164  0.93817821  0.68821080  1
  Zn  Zn122  1  -0.02348438  0.03514930  0.30164898  1
  Zn  Zn123  1  0.06185435  0.05646132  0.80839626  1
  Zn  Zn124  1  0.06138963  0.56854794  0.30931130  1
  Zn  Zn125  1  0.05706598  0.55313112  0.80860540  1
  Zn  Zn126  1  0.55770872  0.06124953  0.30134934  1
  Zn  Zn127  1  0.57500977  0.06356177  0.82817395  1
  Zn  Zn128  1  0.56426999  0.56410321  0.31046350  1
  Zn  Zn129  1  0.56365336  0.55740861  0.81126129  1
  Zn  Zn130  1  0.43071039  0.18999289  0.43656122  1
  Zn  Zn131  1  0.44202432  0.19394774  0.93752785  1
  Zn  Zn132  1  0.44149415  0.68548959  0.43650612  1
  Zn  Zn133  1  0.43974089  0.69587673  0.94146321  1
  Zn  Zn134  1  0.92397148  0.17334012  0.44263794  1
  Zn  Zn135  1  0.93259630  0.17682988  0.94365093  1
  Zn  Zn136  1  0.93558223  0.69632148  0.43619339  1
  Zn  Zn137  1  0.93405746  0.69444041  0.94460296  1
  Zn  Zn138  1  0.05305897  0.31644038  0.07141787  1
  Zn  Zn139  1  -0.06202962  0.32316281  0.56477169  1
  Zn  Zn140  1  0.07411382  0.81003936  0.06251037  1
  Zn  Zn141  1  0.06092635  0.80668031  0.56487935  1
  Zn  Zn142  1  0.56683228  0.31787761  0.07085407  1
  Zn  Zn143  1  0.56714898  0.28951705  0.55297429  1
  Zn  Zn144  1  0.56923813  0.80500079  0.05082297  1
  Zn  Zn145  1  0.56625553  0.81604915  0.56705806  1
  O  O146  1  0.12862805  0.10379646  0.12088383  1
  O  O147  1  0.11280412  0.12496098  0.63272856  1
  O  O148  1  0.11669308  0.62457587  0.13069665  1
  O  O149  1  0.12021908  0.63398692  0.61311423  1
  O  O150  1  0.59986212  0.13399228  0.12947132  1
  O  O151  1  0.62780128  0.11495509  0.63424225  1
  O  O152  1  0.61915586  0.61127578  0.13302948  1
  O  O153  1  0.62134907  0.61730999  0.61774597  1
  O  O154  1  0.36359653  0.38836791  0.38405818  1
  O  O155  1  0.37632928  0.36945770  0.88540820  1
  O  O156  1  0.38470956  0.88026038  0.38236408  1
  O  O157  1  0.38446057  0.88379588  0.87196702  1
  O  O158  1  0.89093284  0.37794433  0.35415219  1
  O  O159  1  0.88267085  0.39332878  0.87888088  1
  O  O160  1  0.86576232  0.86810105  0.39757735  1
  O  O161  1  0.88212596  0.88543756  0.87601590  1
  O  O162  1  0.26577772  -0.00733933  0.38575339  1
  O  O163  1  0.26045710  0.02082497  0.88235683  1
  O  O164  1  0.25731115  0.51223568  0.37050025  1
  O  O165  1  0.26198347  0.51464452  0.88235270  1
  O  O166  1  0.73625776  0.03104036  0.40315709  1
  O  O167  1  0.75801490  -0.00702841  0.86354628  1
  O  O168  1  0.74136848  0.51401201  0.35801896  1
  O  O169  1  0.76498320  0.50863496  0.88870556  1
  O  O170  1  0.25390459  0.50289050  0.13599649  1
  O  O171  1  0.25423669  0.48895479  0.62971509  1
  O  O172  1  0.24230120  0.98572238  0.11063764  1
  O  O173  1  0.25571314  0.98112809  0.62744141  1
  O  O174  1  0.73671012  0.50656647  0.13589804  1
  O  O175  1  0.73375613  0.49658980  0.61733460  1
  O  O176  1  0.77809174  0.90886642  0.07680245  1
  O  O177  1  0.73990524  0.99283289  0.63651849  1
  O  O178  1  0.00973104  0.37969075  0.25595765  1
  O  O179  1  -0.00452234  0.35730469  0.78215252  1
  O  O180  1  0.02232404  0.86319209  0.24514071  1
  O  O181  1  -0.00517219  0.85709424  0.75034839  1
  O  O182  1  0.49985746  0.36554230  0.24880636  1
  O  O183  1  0.52474056  0.36605547  0.73790748  1
  O  O184  1  0.50286029  0.86296543  0.25944777  1
  O  O185  1  0.50176589  0.88418883  0.76202765  1
  O  O186  1  0.48689899  0.13624077  0.24120845  1
  O  O187  1  0.51484822  0.15947467  0.79136786  1
  O  O188  1  0.49413554  0.63912170  0.25527615  1
  O  O189  1  0.49436714  0.61658895  0.73467169  1
  O  O190  1  1.03521245  0.11788927  0.24480715  1
  O  O191  1  0.99348974  0.12780154  0.74278492  1
  O  O192  1  0.99394298  0.63419285  0.24013768  1
  O  O193  1  0.99685151  0.63262304  0.74417207  1
  O  O194  1  0.37891460  0.25996131  0.00914667  1
  O  O195  1  0.36747312  0.26844384  0.49047801  1
  O  O196  1  0.35768644  0.74321041  0.00080559  1
  O  O197  1  0.37458832  0.75637412  0.50623901  1
  O  O198  1  0.86131542  0.21252449  0.03286473  1
  O  O199  1  0.87182233  0.25408585  0.50238222  1
  O  O200  1  0.86930533  0.75093171  0.01631513  1
  O  O201  1  0.87273665  0.75842908  0.51096021  1
  O  O202  1  0.19103200  0.26917300  0.42328593  1
  O  O203  1  0.13710549  0.26163093  1.00999488  1
  O  O204  1  0.13156315  0.74443175  0.48969398  1
  O  O205  1  0.14729494  0.74831794  1.00171495  1
  O  O206  1  0.64469403  0.24109659  0.48904462  1
  O  O207  1  0.59645586  0.25765701  0.97888423  1
  O  O208  1  0.62474308  0.73917381  0.49523817  1
  O  O209  1  0.60771056  0.73373880  0.97202952  1
  O  O210  1  0.48514482  0.24266719  0.13111819  1
  O  O211  1  0.47744679  0.25115689  0.60876602  1
  O  O212  1  0.50229229  0.75279636  0.13697900  1
  O  O213  1  0.49495966  0.73787544  0.61586305  1
  O  O214  1  1.00600279  0.23065304  0.13095612  1
  O  O215  1  1.00096485  0.23536894  0.61171570  1
  O  O216  1  1.01090817  0.74174599  0.13673351  1
  O  O217  1  0.99749783  0.73906104  0.63672287  1
  O  O218  1  -0.00416496  0.26015618  0.37236999  1
  O  O219  1  -0.00928667  0.26896238  0.91169222  1
  O  O220  1  0.01418198  0.74415065  0.36120016  1
  O  O221  1  -0.00322785  0.75764000  0.86640939  1
  O  O222  1  0.49623342  0.24533307  0.35839699  1
  O  O223  1  0.51984557  0.21628200  0.85127020  1
  O  O224  1  0.50926725  0.75969860  0.37578787  1
  O  O225  1  0.49942518  0.77007714  0.87508227  1
  O  O226  1  0.23006997  0.13183292  0.50092008  1
  O  O227  1  0.25431898  0.14387813  0.98881422  1
  O  O228  1  0.24658131  0.62849480  0.49382151  1
  O  O229  1  0.24976055  0.62989985  0.98636736  1
  O  O230  1  0.75870546  0.14562541  0.52232136  1
  O  O231  1  0.75216198  0.05505842  1.11538861  1
  O  O232  1  0.74144584  0.62485579  0.49236900  1
  O  O233  1  0.74833247  0.62818014  0.99379252  1
  O  O234  1  0.26473304  0.36243544  -0.00345964  1
  O  O235  1  0.25762074  0.38771231  0.50787939  1
  O  O236  1  0.25469288  0.86505723  0.00442662  1
  O  O237  1  0.26457893  0.86930641  0.50707249  1
  O  O238  1  0.74572107  0.33609153  -0.03140782  1
  O  O239  1  0.75704276  0.37015144  0.50136878  1
  O  O240  1  0.75632600  0.87711630  0.00763579  1
  O  O241  1  0.75703188  0.87322485  0.51631451  1
  O  O242  1  0.14026916  0.50989222  0.24993979  1
  O  O243  1  0.07997748  0.46821486  0.73488866  1
  O  O244  1  0.13535589  0.98608947  0.25846578  1
  O  O245  1  0.13978902  0.99686256  0.75158168  1
  O  O246  1  0.62639542  0.49582032  0.24079353  1
  O  O247  1  0.61835343  0.49001095  0.73172036  1
  O  O248  1  0.61156922  0.97720815  0.24681508  1
  O  O249  1  0.63853886  1.00641304  0.74641798  1
  O  O250  1  0.37999049  0.01201415  0.25814930  1
  O  O251  1  0.36798425  0.00444876  0.76592436  1
  O  O252  1  0.36733445  0.50636919  0.25575270  1
  O  O253  1  0.38385054  0.50773098  0.74533899  1
  O  O254  1  0.88068617  -0.02582357  0.26287707  1
  O  O255  1  0.86485990  0.00527624  0.75883272  1
  O  O256  1  0.86001967  0.51121401  0.24012122  1
  O  O257  1  0.89201661  0.51781469  0.77259382  1
  O  O258  1  0.10732469  0.38538702  0.35955528  1
  O  O259  1  0.11371507  0.38194329  0.87310359  1
  O  O260  1  0.14114941  0.86325907  0.36283281  1
  O  O261  1  0.11179873  0.87810864  0.87432449  1
  O  O262  1  0.62210683  0.38655456  0.35447434  1
  O  O263  1  0.61641614  0.38220100  0.86700240  1
  O  O264  1  0.61724916  0.86862077  0.37972663  1
  O  O265  1  0.61878955  0.87011815  0.87874544  1
  O  O266  1  0.37616855  0.13176939  0.13674521  1
  O  O267  1  0.35521792  0.14529254  0.62132022  1
  O  O268  1  0.37217822  0.62156972  0.13671181  1
  O  O269  1  0.38256583  0.62882289  0.63004591  1
  O  O270  1  0.91441353  0.09749616  0.14153869  1
  O  O271  1  0.88767677  0.12207123  0.64417742  1
  O  O272  1  0.88183908  0.63290906  0.13806124  1
  O  O273  1  0.88052698  0.62338627  0.64052859  1
  O  O274  1  0.26490200  0.24486260  0.11101695  1
  O  O275  1  0.26304279  0.27500581  0.62960920  1
  O  O276  1  0.25260777  0.76350421  0.11488245  1
  O  O277  1  0.26470893  0.75437172  0.62034171  1
  O  O278  1  0.73846991  0.25988343  0.12852471  1
  O  O279  1  0.74863054  0.26817898  0.61551130  1
  O  O280  1  0.74441334  0.74473207  0.10193157  1
  O  O281  1  0.74325635  0.76059110  0.63201563  1
  O  O282  1  0.24392620  0.24084878  0.37878370  1
  O  O283  1  0.24429677  0.24582868  0.88669773  1
  O  O284  1  0.24912507  0.74058836  0.37827656  1
  O  O285  1  0.25335218  0.73348559  0.88089198  1
  O  O286  1  0.76073134  0.24508128  0.39380730  1
  O  O287  1  0.73939066  0.28198163  0.90500657  1
  O  O288  1  0.73472160  0.73978015  0.37680917  1
  O  O289  1  0.73821037  0.74173091  0.87519368  1
  O  O290  1  0.00898404  0.12229314  0.01261652  1
  O  O291  1  -0.00823769  0.10652034  0.51566419  1
  O  O292  1  0.00228323  0.62315960  0.01424974  1
  O  O293  1  0.00664771  0.62641286  0.50284316  1
  O  O294  1  0.49059559  0.12151934  0.01325430  1
  O  O295  1  0.49710458  0.11534469  0.49291049  1
  O  O296  1  0.48914328  0.61043955  0.00159058  1
  O  O297  1  0.50889945  0.61568189  0.50541655  1
  O  O298  1  0.48840180  0.38461242  0.49810879  1
  O  O299  1  0.48605352  0.38093824  1.00537673  1
  O  O300  1  0.49305055  0.88155486  0.49609201  1
  O  O301  1  0.50126443  0.88897588  0.99519043  1
  O  O302  1  0.99463053  0.39403037  0.48122207  1
  O  O303  1  1.00433658  0.39588049  1.00149761  1
  O  O304  1  0.98431127  0.87849311  0.51512776  1
  O  O305  1  1.00290999  0.86321956  0.98856597  1
  O  O306  1  0.48892324  0.50784931  0.37979890  1
  O  O307  1  0.49769333  0.50054690  0.88943307  1
  O  O308  1  0.49627695  0.99269518  0.38318034  1
  O  O309  1  0.49141114  0.99721653  0.88049274  1
  O  O310  1  0.99617898  0.51166849  0.38261403  1
  O  O311  1  0.99339785  0.50149568  0.89460376  1
  O  O312  1  1.01201994  0.99298115  0.40205630  1
  O  O313  1  0.99054829  0.98318995  0.86905246  1
  O  O314  1  0.02370769  -0.00769463  0.12205654  1
  O  O315  1  0.00049344  0.00609187  0.62482437  1
  O  O316  1  -0.00362999  0.51535445  0.11723148  1
  O  O317  1  -0.00228172  0.51835265  0.60343854  1
  O  O318  1  0.49111721  0.01183253  0.11379995  1
  O  O319  1  0.51108660  0.00098529  0.62303298  1
  O  O320  1  0.50563915  0.50060251  0.11675285  1
  O  O321  1  0.50975214  0.50598792  0.61144179  1
  O  O322  1  0.23733223  0.39159002  0.25738094  1
  O  O323  1  0.23267746  0.38334657  0.75089879  1
  O  O324  1  0.24469504  0.86775987  0.23532720  1
  O  O325  1  0.26043264  0.86467481  0.73900511  1
  O  O326  1  0.74139891  0.39047293  0.25376928  1
  O  O327  1  0.73250086  0.38316503  0.74717915  1
  O  O328  1  0.73330439  0.86684951  0.25143335  1
  O  O329  1  0.75564989  0.88445611  0.74331670  1
  O  O330  1  0.25953340  0.12559623  0.25034100  1
  O  O331  1  0.24071745  0.13995610  0.77016885  1
  O  O332  1  0.25888249  0.62029302  0.25536597  1
  O  O333  1  0.26540410  0.62548215  0.75957568  1
  O  O334  1  0.71489011  0.12330780  0.27308733  1
  O  O335  1  0.76351834  0.11275834  0.74516984  1
  O  O336  1  0.75451777  0.62327223  0.25367959  1
  O  O337  1  0.76441465  0.62233036  0.75546099  1
  O  O338  1  0.37519420  0.11926233  0.36149081  1
  O  O339  1  0.37514984  0.12392550  0.87246453  1
  O  O340  1  0.36854330  0.61905005  0.36988735  1
  O  O341  1  0.38648426  0.62550139  0.85571092  1
  O  O342  1  0.90005711  0.12201617  0.34442212  1
  O  O343  1  0.88922871  0.10840951  0.86119617  1
  O  O344  1  0.86382878  0.63862377  0.36080703  1
  O  O345  1  0.86502175  0.62289441  0.87332213  1
  O  O346  1  0.11692914  0.37916251  0.14535004  1
  O  O347  1  0.13734704  0.37648518  0.62700201  1
  O  O348  1  0.13718591  0.88428132  0.13360087  1
  O  O349  1  0.14641108  0.86109305  0.62409555  1
  O  O350  1  0.62008092  0.39069180  0.14128900  1
  O  O351  1  0.62006011  0.38515463  0.61221924  1
  O  O352  1  0.62357319  0.86596461  0.13171589  1
  O  O353  1  0.63637442  0.88403583  0.62723949  1
  O  O354  1  0.13677858  0.26163622  0.25263412  1
  O  O355  1  0.11690534  0.27302303  0.74451257  1
  O  O356  1  0.12279365  0.75103069  0.25696665  1
  O  O357  1  0.11375369  0.74450912  0.75055116  1
  O  O358  1  0.60801464  0.26535160  0.24271572  1
  O  O359  1  0.64649681  0.25839155  0.77416977  1
  O  O360  1  0.61247209  0.75584045  0.25722660  1
  O  O361  1  0.61406044  0.73404149  0.77517778  1
  O  O362  1  0.37604368  0.24553382  0.24267121  1
  O  O363  1  0.38045510  0.26102562  0.73903099  1
  O  O364  1  0.38875142  0.74348891  0.25530937  1
  O  O365  1  0.37872491  0.73639074  0.73795020  1
  O  O366  1  0.86488905  0.24940502  0.22243041  1
  O  O367  1  0.86417107  0.23532532  0.76674777  1
  O  O368  1  0.89507337  0.75752952  0.25192176  1
  O  O369  1  0.88323345  0.73403751  0.75459447  1
  O  O370  1  0.38282668  0.49577051  0.49164845  1
  O  O371  1  0.38363199  0.48632064  1.00269192  1
  O  O372  1  0.38425183  0.99389383  0.49627287  1
  O  O373  1  0.38586280  1.00770735  0.98342468  1
  O  O374  1  0.88178045  0.51469316  0.49042110  1
  O  O375  1  0.88397907  0.51224127  0.99483781  1
  O  O376  1  0.88351134  0.98631195  0.50946730  1
  O  O377  1  0.86757466  1.01479119  0.98092329  1
  O  O378  1  0.12481390  -0.00594563  -0.00180797  1
  O  O379  1  0.11083850  -0.01831679  0.52068905  1
  O  O380  1  0.11849850  0.50460874  0.00131413  1
  O  O381  1  0.11815139  0.51542975  0.49089240  1
  O  O382  1  0.60322986  0.01039826  -0.00970217  1
  O  O383  1  0.61663433  0.00009283  0.51941397  1
  O  O384  1  0.61261465  0.49349425  0.01208140  1
  O  O385  1  0.61975940  0.50680969  0.50063315  1
  O  O386  1  0.37353766  0.36244492  0.12104082  1
  O  O387  1  0.37209703  0.37317633  0.60992592  1
  O  O388  1  0.36538568  0.88244249  0.12961599  1
  O  O389  1  0.37570020  0.86779608  0.61975127  1
  O  O390  1  0.86939900  0.37020456  0.11266710  1
  O  O391  1  0.88955122  0.39457673  0.63608488  1
  O  O392  1  0.85213507  0.88845138  0.09941785  1
  O  O393  1  0.85791889  0.87332043  0.62355385  1
  O  O394  1  0.17696660  0.11164089  0.45282578  1
  O  O395  1  0.12651542  0.12443188  0.88202655  1
  O  O396  1  0.13644018  0.63414429  0.37980710  1
  O  O397  1  0.13670470  0.61467567  0.86411055  1
  O  O398  1  0.64734491  0.13775590  0.32105074  1
  O  O399  1  0.65336827  0.13490031  0.88504642  1
  O  O400  1  0.62909773  0.63104399  0.38229355  1
  O  O401  1  0.64523074  0.61022340  0.87191003  1
