# generated using pymatgen
data_V73Zn73O256
_symmetry_space_group_name_H-M   'P 1'
_cell_length_a   16.94145555
_cell_length_b   16.87926767
_cell_length_c   16.87808407
_cell_angle_alpha   90.02997802
_cell_angle_beta   90.09399026
_cell_angle_gamma   90.13835141
_symmetry_Int_Tables_number   1
_chemical_formula_structural   V73Zn73O256
_chemical_formula_sum   'V73 Zn73 O256'
_cell_volume   4826.42493279
_cell_formula_units_Z   1
loop_
 _symmetry_equiv_pos_site_id
 _symmetry_equiv_pos_as_xyz
  1  'x, y, z'
loop_
 _atom_site_type_symbol
 _atom_site_label
 _atom_site_symmetry_multiplicity
 _atom_site_fract_x
 _atom_site_fract_y
 _atom_site_fract_z
 _atom_site_occupancy
  V  V0  1  0.88916966  0.88000296  0.48881741  1
  V  V1  1  0.13275741  0.74164549  0.38160734  1
  V  V2  1  0.37342935  0.87790128  0.50311544  1
  V  V3  1  0.23292486  0.61618743  0.88234246  1
  V  V4  1  0.87338307  0.62736473  0.75274504  1
  V  V5  1  0.76009719  0.49647748  0.73929550  1
  V  V6  1  0.75236123  0.74172899  0.49629115  1
  V  V7  1  0.50073559  0.12379498  0.12451188  1
  V  V8  1  0.88081171  0.75402697  0.62012139  1
  V  V9  1  0.01183437  0.75313170  0.74715480  1
  V  V10  1  0.10411659  0.87903977  0.24850148  1
  V  V11  1  0.74289780  0.13243158  0.86323023  1
  V  V12  1  0.51168986  0.13510720  0.62788535  1
  V  V13  1  0.37623694  0.11766818  0.25763579  1
  V  V14  1  0.25392655  -0.01286020  0.24054769  1
  V  V15  1  0.50102450  0.25106248  0.25462854  1
  V  V16  1  0.38396960  0.62047097  0.74818423  1
  V  V17  1  0.23071283  0.37327930  0.62614388  1
  V  V18  1  0.62043314  0.13441575  -0.01327518  1
  V  V19  1  0.87655071  0.49858424  0.35938908  1
  V  V20  1  0.73652625  0.87583753  0.62029121  1
  V  V21  1  0.10583371  0.00748418  0.12097453  1
  V  V22  1  0.36978465  0.37071156  0.00312862  1
  V  V23  1  0.75507263  0.61973059  0.35308727  1
  V  V24  1  0.50122296  0.74690802  0.24477391  1
  V  V25  1  0.62622087  0.23928511  0.38118349  1
  V  V26  1  0.25618169  0.48338864  0.25192688  1
  V  V27  1  -0.00327049  0.73258600  0.25506339  1
  V  V28  1  0.37335586  0.25260656  0.12727958  1
  V  V29  1  0.11857815  0.24951491  0.37311125  1
  V  V30  1  0.62120342  0.63055436  -0.01027515  1
  V  V31  1  0.01662256  0.62707172  0.61713428  1
  V  V32  1  0.25121631  0.88961983  0.62831814  1
  V  V33  1  0.36745329  -0.00544118  0.85742547  1
  V  V34  1  0.72598637  -0.00175941  0.73970074  1
  V  V35  1  0.24985509  0.73810744  0.50606481  1
  V  V36  1  0.25113533  0.11636574  0.37650901  1
  V  V37  1  0.87845546  0.46105374  0.90696960  1
  V  V38  1  0.11379698  0.25048598  0.86969260  1
  V  V39  1  0.62719060  0.74282804  0.37368755  1
  V  V40  1  0.18124941  0.79755556  0.92691610  1
  V  V41  1  0.22476395  0.49152665  0.74966214  1
  V  V42  1  0.35746859  0.75688396  0.11194938  1
  V  V43  1  0.01205965  0.50075288  0.49887767  1
  V  V44  1  0.62661437  -0.00114327  0.11804173  1
  V  V45  1  0.87966113  0.73397108  0.13010992  1
  V  V46  1  0.88972242  0.01431607  0.37479186  1
  V  V47  1  0.37426810  0.48772116  0.87500148  1
  V  V48  1  0.75249085  0.87501383  0.12571845  1
  V  V49  1  0.74627022  0.23538133  0.49444570  1
  V  V50  1  0.86680350  -0.00094857  0.85846295  1
  V  V51  1  0.36251875  0.62836723  0.25373303  1
  V  V52  1  0.23354443  0.24258912  0.01446777  1
  V  V53  1  0.50171653  0.38336695  0.37895020  1
  V  V54  1  0.12240160  0.50363479  0.12517422  1
  V  V55  1  0.51200762  0.00428878  0.50755853  1
  V  V56  1  0.87730692  0.23680362  0.62235619  1
  V  V57  1  0.74854359  0.73790427  -0.00352611  1
  V  V58  1  0.48569899  -0.01247331  -0.00245547  1
  V  V59  1  0.87310973  0.88122999  -0.00431332  1
  V  V60  1  0.11546997  0.36919460  0.25289877  1
  V  V61  1  0.49611024  0.49674486  0.00169801  1
  V  V62  1  -0.00524067  0.87849181  0.87278565  1
  V  V63  1  0.38271404  0.38014212  0.50344281  1
  V  V64  1  -0.00346328  0.25847426  0.74748026  1
  V  V65  1  0.02207354  0.11693404  0.62022623  1
  V  V66  1  0.50497754  0.85969753  0.85728036  1
  V  V67  1  0.75112857  0.01306432  0.25809953  1
  V  V68  1  0.87244423  0.38434119  0.50768980  1
  V  V69  1  0.24843626  0.24517503  0.49841155  1
  V  V70  1  0.64370371  0.49469813  0.12307596  1
  V  V71  1  0.49688081  0.87917314  0.37529704  1
  V  V72  1  0.13097861  0.89104057  0.74876689  1
  Zn  Zn73  1  0.24018319  0.12354624  0.87130394  1
  Zn  Zn74  1  0.11027418  0.63263673  0.00465532  1
  Zn  Zn75  1  0.37661413  0.25004092  0.62761845  1
  Zn  Zn76  1  0.49789063  0.62523241  0.12310812  1
  Zn  Zn77  1  0.37439791  0.50964797  0.38568512  1
  Zn  Zn78  1  0.63095697  0.37907837  0.24421484  1
  Zn  Zn79  1  0.37565274  0.12715982  0.74705720  1
  Zn  Zn80  1  0.72594117  0.37140356  0.62864891  1
  Zn  Zn81  1  0.62574487  0.87414354  0.24930892  1
  Zn  Zn82  1  0.18483904  0.18156868  0.19377051  1
  Zn  Zn83  1  0.19059733  0.18653399  0.69185651  1
  Zn  Zn84  1  0.18230876  0.68885991  0.18697324  1
  Zn  Zn85  1  0.19526166  0.69086755  0.69141694  1
  Zn  Zn86  1  0.68470719  0.19011285  0.18556402  1
  Zn  Zn87  1  0.68215103  0.19880578  0.68491154  1
  Zn  Zn88  1  0.68561937  0.68075145  0.17838134  1
  Zn  Zn89  1  0.67733866  0.69005571  0.70701863  1
  Zn  Zn90  1  0.31625694  0.30877252  0.31953411  1
  Zn  Zn91  1  0.29551197  0.29648914  0.81092487  1
  Zn  Zn92  1  0.31427829  0.80887650  0.31569509  1
  Zn  Zn93  1  0.32564807  0.80892746  0.80369771  1
  Zn  Zn94  1  0.81028527  0.31687857  0.32141848  1
  Zn  Zn95  1  0.81246334  0.31026965  0.80680187  1
  Zn  Zn96  1  0.81441796  0.81593345  0.31012932  1
  Zn  Zn97  1  0.79849528  0.80466592  0.80276729  1
  Zn  Zn98  1  0.19440849  0.43615906  0.43283483  1
  Zn  Zn99  1  0.18737976  0.42253664  0.93804808  1
  Zn  Zn100  1  0.19231640  0.92627245  0.42584709  1
  Zn  Zn101  1  0.18922182  0.96041915  0.94579621  1
  Zn  Zn102  1  0.69729160  0.42717506  0.42806346  1
  Zn  Zn103  1  0.67557549  0.50476930  0.89148889  1
  Zn  Zn104  1  0.68651240  0.93230755  0.43763004  1
  Zn  Zn105  1  0.68359139  0.93103845  0.93199641  1
  Zn  Zn106  1  0.30809386  0.06657105  0.06555476  1
  Zn  Zn107  1  0.32277595  0.06263475  0.56042345  1
  Zn  Zn108  1  0.30777365  0.56503161  0.06989688  1
  Zn  Zn109  1  0.30080152  0.55872570  0.56718610  1
  Zn  Zn110  1  0.80097582  0.06055656  0.04824847  1
  Zn  Zn111  1  0.81220783  0.05764358  0.56055660  1
  Zn  Zn112  1  0.94459229  0.55721101  0.06397009  1
  Zn  Zn113  1  0.81302815  0.56571570  0.56780557  1
  Zn  Zn114  1  0.43982599  0.43705013  0.18826557  1
  Zn  Zn115  1  0.41163656  0.46695858  0.66686395  1
  Zn  Zn116  1  0.43504506  0.93116290  0.18433891  1
  Zn  Zn117  1  0.44045774  0.93334430  0.68236351  1
  Zn  Zn118  1  0.94586511  0.41735381  0.18265322  1
  Zn  Zn119  1  0.94348273  0.44111160  0.68149969  1
  Zn  Zn120  1  0.93127262  0.94259303  0.19019248  1
  Zn  Zn121  1  0.93393662  0.93924258  0.68638985  1
  Zn  Zn122  1  0.07071001  0.06856665  0.43395445  1
  Zn  Zn123  1  0.05127977  0.07220026  0.81289708  1
  Zn  Zn124  1  0.06572843  0.55821965  0.31506248  1
  Zn  Zn125  1  0.04414967  0.55678362  0.81970223  1
  Zn  Zn126  1  0.56392558  0.05787421  0.31286290  1
  Zn  Zn127  1  0.55423787  0.05475545  0.80894280  1
  Zn  Zn128  1  0.56615020  0.56247140  0.30520737  1
  Zn  Zn129  1  0.56844944  0.54281809  0.70546128  1
  Zn  Zn130  1  0.43798294  0.18973837  0.44287029  1
  Zn  Zn131  1  0.43239088  0.18131282  0.93687826  1
  Zn  Zn132  1  0.42965476  0.69797492  0.43289152  1
  Zn  Zn133  1  0.42942620  0.68036082  0.93133044  1
  Zn  Zn134  1  0.93668583  0.18799427  0.44193992  1
  Zn  Zn135  1  0.92960788  0.26881301  0.94433026  1
  Zn  Zn136  1  0.93889690  0.68478063  0.43358038  1
  Zn  Zn137  1  0.93781085  0.69644060  0.93663112  1
  Zn  Zn138  1  0.08244487  0.35124755  0.04198404  1
  Zn  Zn139  1  0.05652891  0.30978206  0.55082298  1
  Zn  Zn140  1  0.05515960  0.82072477  0.06813946  1
  Zn  Zn141  1  0.06972074  0.93776210  0.56197266  1
  Zn  Zn142  1  0.55699249  0.31612528  0.05991233  1
  Zn  Zn143  1  0.54691454  0.33656076  0.66457887  1
  Zn  Zn144  1  0.55991731  0.81174165  0.05929259  1
  Zn  Zn145  1  0.56254375  0.80343955  0.55443329  1
  O  O146  1  0.12401486  0.10577395  0.13848314  1
  O  O147  1  0.12219713  0.12749329  0.62499004  1
  O  O148  1  0.13010607  0.60958965  0.12088066  1
  O  O149  1  0.11433193  0.63126778  0.62667128  1
  O  O150  1  0.62234050  0.11909709  0.11118023  1
  O  O151  1  0.61114977  0.13130010  0.62281509  1
  O  O152  1  0.61966628  0.61104396  0.11462440  1
  O  O153  1  0.61263391  0.62855179  0.64677434  1
  O  O154  1  0.38293920  0.37688660  0.38648013  1
  O  O155  1  0.35512660  0.38276071  0.88696352  1
  O  O156  1  0.39025639  0.86514849  0.38377734  1
  O  O157  1  0.38249067  0.88709955  0.86796989  1
  O  O158  1  0.86462683  0.39190212  0.38992059  1
  O  O159  1  0.86996602  0.35393687  0.89708411  1
  O  O160  1  0.87234818  0.88235260  0.38453463  1
  O  O161  1  0.87536478  0.87867739  0.87381688  1
  O  O162  1  0.24803726  0.00883267  0.35841064  1
  O  O163  1  0.26347263  0.00560121  0.87669847  1
  O  O164  1  0.25640807  0.49809880  0.35803639  1
  O  O165  1  0.24320082  0.49814459  0.86875139  1
  O  O166  1  0.73977488  0.00006865  0.35883129  1
  O  O167  1  0.74582064  -0.00582447  0.85360587  1
  O  O168  1  0.75946680  0.51079202  0.37190355  1
  O  O169  1  0.78941953  0.49777855  0.86286798  1
  O  O170  1  0.23969147  0.50350472  0.14376722  1
  O  O171  1  0.24078004  0.48532272  0.63822792  1
  O  O172  1  0.24473808  1.00302360  0.13773639  1
  O  O173  1  0.25685980  0.98880106  0.62457739  1
  O  O174  1  0.73871708  0.49397431  0.11632549  1
  O  O175  1  0.74782698  0.49707017  0.63380134  1
  O  O176  1  0.74517987  0.99524333  0.12746320  1
  O  O177  1  0.74683122  0.99025942  0.62707202  1
  O  O178  1  0.01881764  0.37845594  0.26644171  1
  O  O179  1  -0.00287849  0.35857507  0.73823587  1
  O  O180  1  0.00317113  0.87455008  0.25454870  1
  O  O181  1  0.01005248  0.87238385  0.75104609  1
  O  O182  1  0.49548779  0.36371917  0.26020139  1
  O  O183  1  0.47448172  0.28993373  0.80157774  1
  O  O184  1  0.50071614  0.86564564  0.25755685  1
  O  O185  1  0.49878437  0.87059982  0.75600056  1
  O  O186  1  0.49395772  0.12866485  0.24735495  1
  O  O187  1  0.49859979  0.11671925  0.73182695  1
  O  O188  1  0.49347889  0.63486986  0.24805887  1
  O  O189  1  0.48095212  0.60758844  0.76425239  1
  O  O190  1  0.97256564  0.14423804  0.22168158  1
  O  O191  1  1.00620330  0.14105490  0.73022886  1
  O  O192  1  1.00177404  0.63421337  0.24801810  1
  O  O193  1  0.99622598  0.63233916  0.73686888  1
  O  O194  1  0.37658885  0.25362387  0.00961081  1
  O  O195  1  0.36311282  0.26330241  0.49804023  1
  O  O196  1  0.37224109  0.73497342  0.01445512  1
  O  O197  1  0.35831533  0.76117257  0.49555198  1
  O  O198  1  0.93121998  0.29539211  0.05594106  1
  O  O199  1  0.87077595  0.26225006  0.50225509  1
  O  O200  1  0.86623019  0.75631494  0.01536070  1
  O  O201  1  0.87271792  0.76177650  0.49831957  1
  O  O202  1  0.13881260  0.25730002  0.48616698  1
  O  O203  1  0.13498683  0.24227044  1.03046782  1
  O  O204  1  0.13493141  0.75104589  0.48388782  1
  O  O205  1  0.12204364  0.75282218  0.99823970  1
  O  O206  1  0.64428605  0.25261513  0.49524848  1
  O  O207  1  0.60684136  0.23293554  0.99655808  1
  O  O208  1  0.63890764  0.75225904  0.48242538  1
  O  O209  1  0.63368663  0.74031085  1.00623919  1
  O  O210  1  0.49385110  0.24404267  0.13556871  1
  O  O211  1  0.49593679  0.24076416  0.62251969  1
  O  O212  1  0.49666536  0.74971372  0.13512110  1
  O  O213  1  0.50809469  0.69687385  0.58603276  1
  O  O214  1  0.98609051  0.18175788  0.16137750  1
  O  O215  1  0.99531416  0.24293853  0.62548032  1
  O  O216  1  0.98487565  0.75451249  0.13464156  1
  O  O217  1  0.99492744  0.74043468  0.63008205  1
  O  O218  1  0.01975990  0.24484387  0.38352670  1
  O  O219  1  -0.00177378  0.24113489  0.85682456  1
  O  O220  1  0.00800931  0.74581660  0.36138237  1
  O  O221  1  -0.00827815  0.76737959  0.85878776  1
  O  O222  1  0.50560938  0.25818142  0.37315559  1
  O  O223  1  0.50138152  0.25469792  0.86602605  1
  O  O224  1  0.50988719  0.75378490  0.36740061  1
  O  O225  1  0.48573979  0.76206834  0.87709913  1
  O  O226  1  0.26164212  0.13323705  0.48920735  1
  O  O227  1  0.25870329  0.14148561  0.99165002  1
  O  O228  1  0.25427654  0.63789583  0.50412077  1
  O  O229  1  0.23968293  0.61285054  0.98492947  1
  O  O230  1  0.75569614  0.13663244  0.49866086  1
  O  O231  1  0.72869115  0.12219086  0.98062559  1
  O  O232  1  0.76030037  0.63901479  0.49410572  1
  O  O233  1  0.73643421  0.63553607  1.00833374  1
  O  O234  1  0.25911111  0.35560527  0.00884289  1
  O  O235  1  0.25361971  0.36901193  0.50971487  1
  O  O236  1  0.24299217  0.85795291  -0.02507211  1
  O  O237  1  0.25621138  0.87158202  0.51015725  1
  O  O238  1  0.70734506  0.35706804  -0.03054144  1
  O  O239  1  0.75898367  0.37088473  0.51033117  1
  O  O240  1  0.75278695  0.86525092  0.00789154  1
  O  O241  1  0.75794795  0.86855655  0.50655879  1
  O  O242  1  0.13764262  0.48906715  0.25217273  1
  O  O243  1  0.12670581  0.49349464  0.75923627  1
  O  O244  1  0.13707476  0.98374228  0.24471600  1
  O  O245  1  0.12598124  0.98930320  0.76786550  1
  O  O246  1  0.62452001  0.49791379  0.23102275  1
  O  O247  1  0.66117952  0.50154365  0.77275179  1
  O  O248  1  0.63281179  0.99970914  0.23502615  1
  O  O249  1  0.62856399  0.98881675  0.74448526  1
  O  O250  1  0.36772154  0.00813753  0.24102372  1
  O  O251  1  0.37358920  -0.00042152  0.75575047  1
  O  O252  1  0.36648739  0.51050459  0.24479250  1
  O  O253  1  0.35546820  0.49363978  0.76934173  1
  O  O254  1  0.86094282  -0.00384557  0.26481516  1
  O  O255  1  0.86282926  -0.00009508  0.75394701  1
  O  O256  1  0.88330549  0.48138941  0.26184473  1
  O  O257  1  0.87784753  0.52072420  0.73254856  1
  O  O258  1  0.13891083  0.36003139  0.36478101  1
  O  O259  1  0.09659150  0.34622007  0.92117038  1
  O  O260  1  0.13214280  0.85804693  0.35216404  1
  O  O261  1  0.11959251  0.86908006  0.87330663  1
  O  O262  1  0.61956993  0.36554657  0.36839172  1
  O  O263  1  0.67014416  0.37567111  0.90772325  1
  O  O264  1  0.61795515  0.86208793  0.36992731  1
  O  O265  1  0.60324472  0.87361977  0.87976098  1
  O  O266  1  0.38220645  0.13239445  0.13476620  1
  O  O267  1  0.38238589  0.13223625  0.62882795  1
  O  O268  1  0.37631626  0.63390687  0.13814536  1
  O  O269  1  0.37804204  0.58321757  0.64797412  1
  O  O270  1  0.87613994  0.15233223  0.05978269  1
  O  O271  1  0.88580916  0.13474244  0.61379834  1
  O  O272  1  0.87580739  0.63626248  0.12443967  1
  O  O273  1  0.88355187  0.64072984  0.62500956  1
  O  O274  1  0.26311845  0.23707993  0.12174391  1
  O  O275  1  0.25098040  0.26074636  0.61775733  1
  O  O276  1  0.25808947  0.74799764  0.12793117  1
  O  O277  1  0.24129307  0.75793152  0.60943899  1
  O  O278  1  0.75450985  0.28235422  0.16745669  1
  O  O279  1  0.77050853  0.24413205  0.61143989  1
  O  O280  1  0.76160895  0.75693933  0.12478219  1
  O  O281  1  0.76274176  0.76160058  0.61405104  1
  O  O282  1  0.24747851  0.23916771  0.38060427  1
  O  O283  1  0.22196463  0.26006347  0.89639506  1
  O  O284  1  0.24192176  0.75291717  0.38509592  1
  O  O285  1  0.24262397  0.73174090  0.86899776  1
  O  O286  1  0.74358299  0.25280604  0.38614547  1
  O  O287  1  0.74349057  0.23157194  0.85265888  1
  O  O288  1  0.74886149  0.73945415  0.37400462  1
  O  O289  1  0.76575381  0.74761196  0.90037992  1
  O  O290  1  -0.07596592  0.15608535  -0.00054756  1
  O  O291  1  0.00778991  0.12957959  0.51349633  1
  O  O292  1  -0.00019680  0.62345420  -0.00813605  1
  O  O293  1  -0.00142037  0.61846590  0.50906572  1
  O  O294  1  0.50697000  0.11037032  0.00181486  1
  O  O295  1  0.49364240  0.11122695  0.50714190  1
  O  O296  1  0.50794485  0.61902505  -0.00293612  1
  O  O297  1  0.49283698  0.65082677  0.52564520  1
  O  O298  1  0.48485977  0.37468551  0.49534963  1
  O  O299  1  0.48171342  0.38304424  1.00033006  1
  O  O300  1  0.49454057  0.87765827  0.49717622  1
  O  O301  1  0.49729811  0.88610604  0.99860614  1
  O  O302  1  0.98854435  0.39118664  0.50180155  1
  O  O303  1  0.97005685  0.36519194  1.07362465  1
  O  O304  1  0.98712788  0.87882909  0.50085409  1
  O  O305  1  0.98295456  0.86730121  0.98659683  1
  O  O306  1  0.49993144  0.48746995  0.36841371  1
  O  O307  1  0.47564561  0.49527241  0.88654856  1
  O  O308  1  0.50643557  0.98666571  0.38336438  1
  O  O309  1  0.48918094  0.98904975  0.88445696  1
  O  O310  1  0.98384277  0.51327001  0.38793521  1
  O  O311  1  0.96747196  0.48905686  0.86745849  1
  O  O312  1  0.98827982  1.01002050  0.37097048  1
  O  O313  1  0.98433645  0.98797127  0.86374891  1
  O  O314  1  0.00492799  0.00286538  0.13060367  1
  O  O315  1  0.00349182  0.01231536  0.62856203  1
  O  O316  1  0.01546804  0.50188394  0.13950247  1
  O  O317  1  0.00212636  0.51484496  0.61171098  1
  O  O318  1  0.50640154  0.00139531  0.11613702  1
  O  O319  1  0.49875664  0.00503844  0.61207029  1
  O  O320  1  0.49138773  0.50409751  0.10944783  1
  O  O321  1  0.51840560  0.44310638  0.68067428  1
  O  O322  1  0.25638875  0.38118309  0.24953595  1
  O  O323  1  0.24609256  0.37823186  0.73858811  1
  O  O324  1  0.25937692  0.88687553  0.25122380  1
  O  O325  1  0.24539596  0.86579390  0.73659335  1
  O  O326  1  0.74629863  0.34009768  0.22592016  1
  O  O327  1  0.78081700  0.39401759  0.73999777  1
  O  O328  1  0.74895718  0.88400325  0.23809585  1
  O  O329  1  0.75657233  0.88858818  0.72755415  1
  O  O330  1  0.26080397  0.11750004  0.25735645  1
  O  O331  1  0.26963216  0.17548113  0.77020564  1
  O  O332  1  0.26148113  0.62485070  0.25205466  1
  O  O333  1  0.24551290  0.60444344  0.75688604  1
  O  O334  1  0.74990015  0.11176052  0.23943249  1
  O  O335  1  0.72957344  0.11090295  0.75175966  1
  O  O336  1  0.75613622  0.62706192  0.25461624  1
  O  O337  1  0.76949081  0.61854101  0.74065402  1
  O  O338  1  0.37005613  0.12940491  0.36470276  1
  O  O339  1  0.38355695  0.10425088  0.86963011  1
  O  O340  1  0.38388776  0.62330327  0.35940675  1
  O  O341  1  0.35522108  0.60721445  0.86966573  1
  O  O342  1  0.87290865  0.11335805  0.38202913  1
  O  O343  1  0.84406096  0.11007083  0.87310955  1
  O  O344  1  0.86417711  0.61369555  0.37348214  1
  O  O345  1  0.88321382  0.63789400  0.85134820  1
  O  O346  1  0.12602854  0.38300768  0.14700424  1
  O  O347  1  0.13270742  0.36720332  0.61901066  1
  O  O348  1  0.11808082  0.88400399  0.14007725  1
  O  O349  1  0.13930280  0.88294832  0.63535930  1
  O  O350  1  0.61585810  0.38934700  0.12197468  1
  O  O351  1  0.60861129  0.48416596  0.55886518  1
  O  O352  1  0.63463182  0.88221114  0.12245085  1
  O  O353  1  0.63820791  0.86194772  0.61859713  1
  O  O354  1  0.13044527  0.25899369  0.25896178  1
  O  O355  1  0.11584921  0.26118433  0.76555385  1
  O  O356  1  0.10809547  0.75875556  0.24359923  1
  O  O357  1  0.11629582  0.76027697  0.74747298  1
  O  O358  1  0.61001922  0.24897081  0.25615264  1
  O  O359  1  0.65087161  0.30719883  0.68615137  1
  O  O360  1  0.61837087  0.74835957  0.25371180  1
  O  O361  1  0.69008569  0.77205530  0.77541241  1
  O  O362  1  0.38352192  0.24123573  0.24697772  1
  O  O363  1  0.39978859  0.25802183  0.77014604  1
  O  O364  1  0.38063871  0.74016246  0.24634409  1
  O  O365  1  0.36473989  0.72004763  0.74576881  1
  O  O366  1  0.89665089  0.26298656  0.26378531  1
  O  O367  1  0.88363061  0.24957827  0.73103508  1
  O  O368  1  0.88556588  0.75371703  0.24177780  1
  O  O369  1  0.88359720  0.74765326  0.73653703  1
  O  O370  1  0.36356957  0.48501799  0.50058725  1
  O  O371  1  0.37034670  0.49238738  0.99548740  1
  O  O372  1  0.38598388  0.98400800  0.49801099  1
  O  O373  1  0.38496539  1.00246631  1.00172038  1
  O  O374  1  0.87832206  0.49229668  0.50132660  1
  O  O375  1  0.87661985  0.48564123  1.00426767  1
  O  O376  1  0.86851192  0.98964851  0.48556137  1
  O  O377  1  0.85778109  0.98584893  0.98026172  1
  O  O378  1  0.11870480  -0.00451467  0.01961234  1
  O  O379  1  0.13142233  -0.00560994  0.48924073  1
  O  O380  1  0.12808190  0.47940306  0.02432511  1
  O  O381  1  0.10997418  0.49495996  0.48613059  1
  O  O382  1  0.61680511  0.00321295  0.00685780  1
  O  O383  1  0.61123781  -0.00593514  0.49927677  1
  O  O384  1  0.61503537  0.50901435  0.00226891  1
  O  O385  1  0.62927878  0.51165665  0.49236141  1
  O  O386  1  0.37911831  0.36028888  0.12132986  1
  O  O387  1  0.36459134  0.37268309  0.61358576  1
  O  O388  1  0.37693369  0.85640516  0.12446777  1
  O  O389  1  0.36271170  0.87224276  0.61839682  1
  O  O390  1  0.90482177  0.29434184  0.19489530  1
  O  O391  1  0.88053727  0.36522793  0.61203923  1
  O  O392  1  0.86570911  0.87853441  0.11475424  1
  O  O393  1  0.87377607  0.87020628  0.61054882  1
  O  O394  1  0.13935848  0.13941381  0.37028899  1
  O  O395  1  0.11871762  0.14315082  0.87937516  1
  O  O396  1  0.12877562  0.64243541  0.36174060  1
  O  O397  1  0.12992667  0.61524244  0.87563318  1
  O  O398  1  0.61807819  0.13965123  0.37222897  1
  O  O399  1  0.62345627  0.11686588  0.88006740  1
  O  O400  1  0.64179312  0.63048814  0.36671666  1
  O  O401  1  0.63102793  0.61769969  0.89207231  1
