# generated using pymatgen
data_V73Zn73O256
_symmetry_space_group_name_H-M   'P 1'
_cell_length_a   16.82804733
_cell_length_b   16.81632381
_cell_length_c   16.82715972
_cell_angle_alpha   89.90637452
_cell_angle_beta   89.99336134
_cell_angle_gamma   90.08727467
_symmetry_Int_Tables_number   1
_chemical_formula_structural   V73Zn73O256
_chemical_formula_sum   'V73 Zn73 O256'
_cell_volume   4761.83690150
_cell_formula_units_Z   1
loop_
 _symmetry_equiv_pos_site_id
 _symmetry_equiv_pos_as_xyz
  1  'x, y, z'
loop_
 _atom_site_type_symbol
 _atom_site_label
 _atom_site_symmetry_multiplicity
 _atom_site_fract_x
 _atom_site_fract_y
 _atom_site_fract_z
 _atom_site_occupancy
  V  V0  1  0.36081039  -0.00787099  0.36984993  1
  V  V1  1  -0.00322683  0.64624065  0.12881104  1
  V  V2  1  0.49314863  0.13452757  0.63907636  1
  V  V3  1  0.87721515  0.87435443  0.02619961  1
  V  V4  1  0.88354979  0.87185329  0.49881469  1
  V  V5  1  0.11440768  0.49466962  0.63262809  1
  V  V6  1  0.01579657  0.00727155  0.00619234  1
  V  V7  1  0.75286634  0.50620330  0.26017068  1
  V  V8  1  0.62069029  0.01460785  0.11980645  1
  V  V9  1  0.51193559  0.62255995  0.11359038  1
  V  V10  1  0.35886515  0.11975133  0.25426036  1
  V  V11  1  0.01013284  0.25719427  0.25234030  1
  V  V12  1  0.25766577  0.12201561  0.87399063  1
  V  V13  1  0.01635030  0.12974053  0.12091042  1
  V  V14  1  0.75509722  0.25302203  0.50823972  1
  V  V15  1  0.49662205  0.74888747  0.25206652  1
  V  V16  1  0.62301832  0.38108077  0.24015214  1
  V  V17  1  0.87195227  0.39689194  0.49974138  1
  V  V18  1  0.24299338  0.76051641  -0.00890869  1
  V  V19  1  -0.01312134  0.23508194  0.74101017  1
  V  V20  1  0.24564624  0.24474585  -0.00000206  1
  V  V21  1  0.49547279  0.50456317  0.50560873  1
  V  V22  1  0.62734299  0.62893625  0.47534664  1
  V  V23  1  0.62461689  0.51311285  0.63258819  1
  V  V24  1  0.62699799  0.36905903  0.74949865  1
  V  V25  1  0.12415378  0.24344223  0.86946515  1
  V  V26  1  0.62981383  0.86687176  0.24381163  1
  V  V27  1  0.23972987  0.75475042  0.50229067  1
  V  V28  1  0.25781634  0.00253458  0.73882957  1
  V  V29  1  0.85747556  0.75254866  0.63429033  1
  V  V30  1  0.23840408  0.49333012  0.75314928  1
  V  V31  1  0.75098321  0.74695985  0.00408737  1
  V  V32  1  0.74810238  0.23487236  0.00112796  1
  V  V33  1  0.64339551  -0.00991774  0.62520056  1
  V  V34  1  0.87870550  -0.00351768  0.37775188  1
  V  V35  1  0.37658791  -0.01298130  0.87463363  1
  V  V36  1  0.51616632  0.49750750  -0.00072109  1
  V  V37  1  0.37235996  0.87340301  0.51044845  1
  V  V38  1  0.50090718  -0.00062637  0.49698844  1
  V  V39  1  0.62823383  0.23272069  0.87400595  1
  V  V40  1  0.36606747  0.50464855  0.36346503  1
  V  V41  1  0.50009588  0.24047196  0.24784885  1
  V  V42  1  0.62435074  0.12679711  0.49987787  1
  V  V43  1  0.87923369  0.36527276  0.00214855  1
  V  V44  1  0.37913852  0.37908190  -0.00420437  1
  V  V45  1  0.49558216  0.37917610  0.37752939  1
  V  V46  1  0.00074672  0.88694593  0.87994615  1
  V  V47  1  -0.00252991  0.38927783  0.38005392  1
  V  V48  1  -0.00688062  0.75114911  0.75973769  1
  V  V49  1  -0.00370127  0.63315950  0.62659191  1
  V  V50  1  0.37865763  0.24159418  0.12377867  1
  V  V51  1  0.38234467  0.72488367  0.62269084  1
  V  V52  1  0.87243196  0.50818565  0.87908628  1
  V  V53  1  0.74768618  0.38242542  0.11923978  1
  V  V54  1  0.11912559  0.49837931  0.12903825  1
  V  V55  1  0.62683118  0.25254399  0.37458892  1
  V  V56  1  0.50231831  0.37094248  0.87101215  1
  V  V57  1  0.38008396  0.61604880  0.75688509  1
  V  V58  1  0.75200089  -0.00293027  0.24234660  1
  V  V59  1  0.22908468  0.62653340  0.87866654  1
  V  V60  1  0.13293085  0.24229994  0.39546015  1
  V  V61  1  0.74314766  0.75251191  0.47461162  1
  V  V62  1  0.11906546  0.61982577  0.49537524  1
  V  V63  1  0.00400830  0.37075498  0.86680187  1
  V  V64  1  0.75809700  0.51141304  0.75451641  1
  V  V65  1  0.37899940  0.75898496  0.10224215  1
  V  V66  1  0.52176893  0.86890243  0.86972127  1
  V  V67  1  0.87207927  0.13677856  0.24429291  1
  V  V68  1  0.13447668  0.86740856  0.75051002  1
  V  V69  1  0.81171362  0.05325255  0.80104774  1
  V  V70  1  0.25047216  0.38390448  0.13510576  1
  V  V71  1  0.11456186  0.00766136  0.62440842  1
  V  V72  1  0.49245915  0.00620142  0.00344220  1
  Zn  Zn73  1  0.36203226  0.62112945  0.23474952  1
  Zn  Zn74  1  0.88623617  0.61506629  0.25813345  1
  Zn  Zn75  1  0.75816664  0.37299115  0.63316367  1
  Zn  Zn76  1  0.00495342  0.03141360  0.50887602  1
  Zn  Zn77  1  0.50353257  0.87004861  0.37502635  1
  Zn  Zn78  1  0.01100719  0.51314381  -0.00403820  1
  Zn  Zn79  1  0.64274678  0.63463114  -0.04080050  1
  Zn  Zn80  1  0.75258145  0.12627797  0.37547209  1
  Zn  Zn81  1  0.23783551  0.62459326  0.36667703  1
  Zn  Zn82  1  0.18935491  0.19727756  0.19307002  1
  Zn  Zn83  1  0.18636950  0.18943609  0.68960367  1
  Zn  Zn84  1  0.19601408  0.66992937  0.16103253  1
  Zn  Zn85  1  0.19198726  0.68523431  0.68412212  1
  Zn  Zn86  1  0.68986724  0.19239235  0.18245995  1
  Zn  Zn87  1  0.68504620  0.17882549  0.68776574  1
  Zn  Zn88  1  0.69519822  0.68990106  0.17553769  1
  Zn  Zn89  1  0.65885795  0.67519815  0.75224780  1
  Zn  Zn90  1  0.31339743  0.31249684  0.31672071  1
  Zn  Zn91  1  0.30038281  0.32655584  0.82508433  1
  Zn  Zn92  1  0.29066407  0.77851316  0.29419616  1
  Zn  Zn93  1  0.31881441  0.80475967  0.80826931  1
  Zn  Zn94  1  0.81272802  0.32262491  0.31380931  1
  Zn  Zn95  1  0.81168177  0.30819861  0.81569538  1
  Zn  Zn96  1  0.81492268  0.81602800  0.30708691  1
  Zn  Zn97  1  0.80797550  0.84194105  0.82497831  1
  Zn  Zn98  1  0.18825634  0.41974118  0.44010563  1
  Zn  Zn99  1  0.18761210  0.43760363  0.94154400  1
  Zn  Zn100  1  0.18289843  0.93847007  0.44065981  1
  Zn  Zn101  1  0.18653585  0.93742947  0.93445443  1
  Zn  Zn102  1  0.68255260  0.43952772  0.43953714  1
  Zn  Zn103  1  0.69008155  0.43257175  0.93488111  1
  Zn  Zn104  1  0.68840218  0.93586208  0.43108841  1
  Zn  Zn105  1  0.69756229  0.94178360  0.94296001  1
  Zn  Zn106  1  0.30478045  0.05472448  0.06388336  1
  Zn  Zn107  1  0.31804000  0.06388991  0.56456192  1
  Zn  Zn108  1  0.31977447  0.56541872  0.05406707  1
  Zn  Zn109  1  0.29352992  0.53832308  0.55162820  1
  Zn  Zn110  1  0.82496702  0.05527588  0.06234953  1
  Zn  Zn111  1  0.84457181  0.06610170  0.58597262  1
  Zn  Zn112  1  0.81942888  0.56883836  0.06682450  1
  Zn  Zn113  1  0.80507265  0.57177567  0.56656837  1
  Zn  Zn114  1  0.43894796  0.43559788  0.18252432  1
  Zn  Zn115  1  0.43140670  0.43497138  0.69068339  1
  Zn  Zn116  1  0.43449162  0.93609991  0.18333837  1
  Zn  Zn117  1  0.44955132  0.93786154  0.68673621  1
  Zn  Zn118  1  0.93361789  0.43406688  0.18761234  1
  Zn  Zn119  1  0.93734774  0.43432030  0.68611770  1
  Zn  Zn120  1  0.95316499  0.94865169  0.19445024  1
  Zn  Zn121  1  0.92380555  0.94043304  0.69446547  1
  Zn  Zn122  1  0.04742028  0.08751581  0.33387115  1
  Zn  Zn123  1  0.06972636  0.06241182  0.81123972  1
  Zn  Zn124  1  0.07034696  0.55902839  0.30258098  1
  Zn  Zn125  1  0.05462491  0.56553746  0.81332120  1
  Zn  Zn126  1  0.56331820  0.05817982  0.31273314  1
  Zn  Zn127  1  0.57123886  0.04630123  0.80839869  1
  Zn  Zn128  1  0.55901759  0.56197154  0.30305430  1
  Zn  Zn129  1  0.55652050  0.55146111  0.81534871  1
  Zn  Zn130  1  0.43785425  0.18107819  0.43229168  1
  Zn  Zn131  1  0.44011336  0.18417165  0.93324474  1
  Zn  Zn132  1  0.43387746  0.68341037  0.43835115  1
  Zn  Zn133  1  0.44304726  0.68571798  0.92738391  1
  Zn  Zn134  1  0.93429768  0.18764311  0.44192551  1
  Zn  Zn135  1  0.92951962  0.17731882  0.92663827  1
  Zn  Zn136  1  0.92908625  0.67985961  0.43904392  1
  Zn  Zn137  1  0.93763587  0.69407982  0.94584625  1
  Zn  Zn138  1  0.06591881  0.31323523  0.06329010  1
  Zn  Zn139  1  0.05267519  0.31150165  0.56068132  1
  Zn  Zn140  1  0.07400977  0.81878854  0.06717537  1
  Zn  Zn141  1  0.06165190  0.81730233  0.57179777  1
  Zn  Zn142  1  0.56487633  0.30266557  0.05893519  1
  Zn  Zn143  1  0.56038268  0.31728261  0.56749985  1
  Zn  Zn144  1  0.56806543  0.82157056  0.05496005  1
  Zn  Zn145  1  0.56090155  0.80797634  0.56402464  1
  O  O146  1  0.11590583  0.13866870  0.12626622  1
  O  O147  1  0.12891914  0.10843524  0.63140015  1
  O  O148  1  0.11206961  0.60954801  0.12056870  1
  O  O149  1  0.11187930  0.62607083  0.62010278  1
  O  O150  1  0.62110881  0.11489319  0.13300868  1
  O  O151  1  0.61730007  0.11619913  0.61223396  1
  O  O152  1  0.61157073  0.62919531  0.11735635  1
  O  O153  1  0.62268040  0.61270629  0.64962091  1
  O  O154  1  0.38654113  0.38750129  0.37046263  1
  O  O155  1  0.38987111  0.35802420  0.88337702  1
  O  O156  1  0.37736924  0.88670766  0.37854426  1
  O  O157  1  0.37784459  0.88449404  0.87121434  1
  O  O158  1  0.88335861  0.37377458  0.38737932  1
  O  O159  1  0.88420882  0.37953788  0.88416669  1
  O  O160  1  0.86995359  0.88450563  0.38380267  1
  O  O161  1  0.89999004  0.87657317  0.89547326  1
  O  O162  1  0.26130398  -0.00341361  0.37709434  1
  O  O163  1  0.25774159  0.00457790  0.86875072  1
  O  O164  1  0.26357263  0.50049053  0.37053533  1
  O  O165  1  0.23843850  0.51141608  0.86439974  1
  O  O166  1  0.75759525  0.00459128  0.36151038  1
  O  O167  1  0.74532023  0.01252708  0.86927412  1
  O  O168  1  0.74252290  0.49532600  0.35984364  1
  O  O169  1  0.76205872  0.49717015  0.86789918  1
  O  O170  1  0.25007988  0.48873772  0.11522784  1
  O  O171  1  0.22437654  0.51347207  0.64376970  1
  O  O172  1  0.25344210  0.99466578  0.14050202  1
  O  O173  1  0.24680836  1.00169325  0.63480288  1
  O  O174  1  0.75135473  0.48645245  0.12341607  1
  O  O175  1  0.74441063  0.49940454  0.63946982  1
  O  O176  1  0.74153058  1.00780138  0.13565051  1
  O  O177  1  0.73987053  1.01103013  0.60304509  1
  O  O178  1  -0.01334511  0.36107373  0.26485907  1
  O  O179  1  -0.00486480  0.36646585  0.76422983  1
  O  O180  1  0.02762902  0.88467211  0.26285897  1
  O  O181  1  0.00542156  0.87179079  0.76260094  1
  O  O182  1  0.50527583  0.36665181  0.25515082  1
  O  O183  1  0.51085809  0.38224044  0.75924520  1
  O  O184  1  0.50658457  0.86200072  0.24631787  1
  O  O185  1  0.50328572  0.88386740  0.76811312  1
  O  O186  1  0.49616018  0.13739236  0.25584217  1
  O  O187  1  0.50934786  0.11742715  0.73711782  1
  O  O188  1  0.50403464  0.63667809  0.23281307  1
  O  O189  1  0.47809727  0.60200270  0.74389806  1
  O  O190  1  0.99389058  0.13570011  0.24325992  1
  O  O191  1  1.00578266  0.13600128  0.75422077  1
  O  O192  1  1.00485468  0.61944957  0.23403213  1
  O  O193  1  1.00052628  0.64481258  0.74635887  1
  O  O194  1  0.37356879  0.25401359  0.00797897  1
  O  O195  1  0.33730145  0.21688826  0.49313049  1
  O  O196  1  0.37384699  0.74845782  -0.00083765  1
  O  O197  1  0.37014028  0.75301590  0.50787529  1
  O  O198  1  0.86290898  0.25867259  -0.01287465  1
  O  O199  1  0.85562878  0.25893554  0.49549622  1
  O  O200  1  0.87782331  0.76824975  0.00873392  1
  O  O201  1  0.85753540  0.75431867  0.50451720  1
  O  O202  1  0.11904520  0.24647325  0.49621794  1
  O  O203  1  0.13817619  0.25515983  0.98998927  1
  O  O204  1  0.13494686  0.74896762  0.50875428  1
  O  O205  1  0.14397921  0.74966981  1.00635721  1
  O  O206  1  0.62762218  0.24870927  0.49090040  1
  O  O207  1  0.63716356  0.24628535  0.98945944  1
  O  O208  1  0.62973711  0.73902085  0.49449642  1
  O  O209  1  0.64325217  0.75082965  1.00334072  1
  O  O210  1  0.48928761  0.25632016  0.13480350  1
  O  O211  1  0.50669675  0.23563389  0.62331822  1
  O  O212  1  0.49481207  0.74087297  0.11801267  1
  O  O213  1  0.48267473  0.74262145  0.61684916  1
  O  O214  1  1.00376871  0.24752560  0.14225395  1
  O  O215  1  1.00274704  0.25398871  0.64312379  1
  O  O216  1  1.01429007  0.74529719  0.13187415  1
  O  O217  1  0.99197935  0.74889073  0.63871619  1
  O  O218  1  0.00729702  0.24578608  0.36917006  1
  O  O219  1  0.00474167  0.25461674  0.87190621  1
  O  O220  1  -0.03417189  0.75548036  0.33986197  1
  O  O221  1  -0.00300748  0.75737462  0.86424258  1
  O  O222  1  0.50417911  0.25849888  0.37046663  1
  O  O223  1  0.51734672  0.25767136  0.88338763  1
  O  O224  1  0.49395930  0.74513569  0.35541313  1
  O  O225  1  0.50332445  0.76936469  0.88233553  1
  O  O226  1  0.28278435  0.16228077  0.49954705  1
  O  O227  1  0.25962455  0.13683163  0.99272419  1
  O  O228  1  0.23123568  0.63046495  0.50105496  1
  O  O229  1  0.25525855  0.62681907  0.98108458  1
  O  O230  1  0.73949111  0.14235824  0.49641399  1
  O  O231  1  0.76159779  0.13650971  1.00885770  1
  O  O232  1  0.73427401  0.63742679  0.50232716  1
  O  O233  1  0.75658036  0.63876736  0.99912963  1
  O  O234  1  0.26320685  0.36347880  -0.00295923  1
  O  O235  1  0.26453805  0.43141457  0.51679434  1
  O  O236  1  0.25371079  0.86075384  -0.01379791  1
  O  O237  1  0.25606669  0.86336375  0.49716713  1
  O  O238  1  0.75937596  0.36873856  0.00207605  1
  O  O239  1  0.75390744  0.36943827  0.49962307  1
  O  O240  1  0.77443230  0.88501318  0.01220208  1
  O  O241  1  0.74911362  0.85615972  0.49150827  1
  O  O242  1  0.13581463  0.49721104  0.23050911  1
  O  O243  1  0.12458216  0.50394451  0.74449897  1
  O  O244  1  0.08343170  0.92489272  0.30527373  1
  O  O245  1  0.13735112  0.99083430  0.74423945  1
  O  O246  1  0.63013955  0.48693499  0.24798530  1
  O  O247  1  0.63885470  0.49031039  0.75087600  1
  O  O248  1  0.63175962  0.99607990  0.24172941  1
  O  O249  1  0.63262839  0.99780669  0.72573666  1
  O  O250  1  0.37965459  0.00788821  0.25780392  1
  O  O251  1  0.36171070  -0.00874449  0.75354500  1
  O  O252  1  0.38396854  0.50447831  0.25871174  1
  O  O253  1  0.35142583  0.50753543  0.73736130  1
  O  O254  1  0.87158074  0.00673230  0.25709942  1
  O  O255  1  0.83343613  -0.05971256  0.77019631  1
  O  O256  1  0.85666433  0.49333278  0.24687112  1
  O  O257  1  0.86567892  0.49131935  0.76232267  1
  O  O258  1  0.10320088  0.36583679  0.38811923  1
  O  O259  1  0.10877098  0.36687635  0.88239426  1
  O  O260  1  0.11828266  0.87767201  0.36085348  1
  O  O261  1  0.11594775  0.87620866  0.86144429  1
  O  O262  1  0.61603805  0.36927156  0.36527096  1
  O  O263  1  0.62006959  0.36819442  0.86733906  1
  O  O264  1  0.61946870  0.88201246  0.35179275  1
  O  O265  1  0.62196609  0.88395018  0.87785244  1
  O  O266  1  0.37097601  0.13430806  0.13749912  1
  O  O267  1  0.39274003  0.12001447  0.62780103  1
  O  O268  1  0.38804414  0.63340780  0.12024213  1
  O  O269  1  0.36939204  0.62303007  0.62090327  1
  O  O270  1  0.88542724  0.12374501  0.14117695  1
  O  O271  1  0.87428097  0.04718747  0.69745406  1
  O  O272  1  0.88918307  0.62640975  0.13882369  1
  O  O273  1  0.88323534  0.64203129  0.61808396  1
  O  O274  1  0.25817771  0.25950071  0.11808502  1
  O  O275  1  0.26534199  0.26220687  0.63375722  1
  O  O276  1  0.26842295  0.73958905  0.10280612  1
  O  O277  1  0.26393571  0.74415194  0.61074357  1
  O  O278  1  0.74642803  0.26178873  0.10894989  1
  O  O279  1  0.73892941  0.25346094  0.61101148  1
  O  O280  1  0.75866517  0.75651740  0.11048065  1
  O  O281  1  0.76021531  0.74355363  0.63295793  1
  O  O282  1  0.23011028  0.27272737  0.38002805  1
  O  O283  1  0.24610270  0.24237704  0.87814119  1
  O  O284  1  0.25760624  0.74196833  0.39804640  1
  O  O285  1  0.25398055  0.73752933  0.87987846  1
  O  O286  1  0.73752395  0.25543253  0.38005695  1
  O  O287  1  0.73879719  0.25071370  0.88769820  1
  O  O288  1  0.75059000  0.74568287  0.37576515  1
  O  O289  1  0.76470601  0.77027022  0.89980255  1
  O  O290  1  -0.00584436  0.12664056  0.01534211  1
  O  O291  1  -0.06568842  0.11714713  0.53076435  1
  O  O292  1  -0.00875146  0.62450892  0.02065101  1
  O  O293  1  0.01078085  0.64469966  0.51139979  1
  O  O294  1  0.50380401  0.10700490  -0.00876533  1
  O  O295  1  0.50791307  0.11992673  0.50145889  1
  O  O296  1  0.50192657  0.61561240  0.00205578  1
  O  O297  1  0.51614637  0.61596472  0.49392936  1
  O  O298  1  0.51246586  0.39188263  0.48868026  1
  O  O299  1  0.49971929  0.37858322  0.99617411  1
  O  O300  1  0.49075953  0.88068325  0.49422296  1
  O  O301  1  0.50761799  0.89473095  0.98711511  1
  O  O302  1  0.98212096  0.37825555  0.49187406  1
  O  O303  1  0.98701257  0.36633493  0.99327013  1
  O  O304  1  0.98415859  0.86277938  0.49665280  1
  O  O305  1  1.00913552  0.88248373  0.99553482  1
  O  O306  1  0.49798965  0.49531974  0.37955933  1
  O  O307  1  0.49942280  0.48172292  0.88596675  1
  O  O308  1  0.49211222  1.00064352  0.38542380  1
  O  O309  1  0.49352954  0.99489886  0.88135536  1
  O  O310  1  1.00231712  0.48715722  0.36676829  1
  O  O311  1  0.99219353  0.48670414  0.87585698  1
  O  O312  1  0.98537164  1.01225822  0.39051902  1
  O  O313  1  1.00892173  0.99229975  0.88352728  1
  O  O314  1  0.01210553  0.02166313  0.12618086  1
  O  O315  1  0.01220445  -0.00726184  0.62961018  1
  O  O316  1  0.01314407  0.48556461  0.12373835  1
  O  O317  1  0.00380326  0.51979739  0.64100362  1
  O  O318  1  0.50602337  0.00035368  0.11424229  1
  O  O319  1  0.50781793  0.00756319  0.60921895  1
  O  O320  1  0.49870037  0.51164915  0.11444466  1
  O  O321  1  0.50359379  0.49191133  0.61083400  1
  O  O322  1  0.26193212  0.37557991  0.23339376  1
  O  O323  1  0.24208001  0.39198393  0.75767286  1
  O  O324  1  0.23675100  0.86743192  0.23754392  1
  O  O325  1  0.24061053  0.88142951  0.75757333  1
  O  O326  1  0.74219656  0.37975561  0.23979413  1
  O  O327  1  0.74291699  0.37989570  0.75200305  1
  O  O328  1  0.74034745  0.88108570  0.24864328  1
  O  O329  1  0.69971488  0.83982669  0.74516461  1
  O  O330  1  0.25973996  0.12767323  0.25259539  1
  O  O331  1  0.24859123  0.10918219  0.75660249  1
  O  O332  1  0.25356326  0.66404687  0.25703366  1
  O  O333  1  0.25029466  0.62023518  0.76311654  1
  O  O334  1  0.76150952  0.12308240  0.24833472  1
  O  O335  1  0.75424099  0.12507489  0.75592494  1
  O  O336  1  0.74318005  0.60699538  0.23942520  1
  O  O337  1  0.75737725  0.61070988  0.75164892  1
  O  O338  1  0.37583487  0.11212212  0.36178328  1
  O  O339  1  0.36516490  0.11667196  0.87217475  1
  O  O340  1  0.37406884  0.61246713  0.36860600  1
  O  O341  1  0.37151978  0.62306115  0.85930097  1
  O  O342  1  0.87302488  0.11789511  0.36120875  1
  O  O343  1  0.87911403  0.10013637  0.86302923  1
  O  O344  1  0.87033680  0.62128499  0.36805459  1
  O  O345  1  0.88856034  0.60631218  0.88176642  1
  O  O346  1  0.14371634  0.37640414  0.12349977  1
  O  O347  1  0.10724414  0.39651662  0.62069477  1
  O  O348  1  0.14659313  0.88583405  0.13949785  1
  O  O349  1  0.12359646  0.88527495  0.64308785  1
  O  O350  1  0.63044040  0.36794553  0.13158714  1
  O  O351  1  0.62633313  0.38686019  0.63606404  1
  O  O352  1  0.61941757  0.89149046  0.13882993  1
  O  O353  1  0.62514433  0.89138672  0.60421978  1
  O  O354  1  0.11312320  0.25390370  0.26197171  1
  O  O355  1  0.11998543  0.25124190  0.76439545  1
  O  O356  1  0.17889197  0.83480072  0.19125909  1
  O  O357  1  0.11498107  0.76231770  0.74252803  1
  O  O358  1  0.61916874  0.25685855  0.25596477  1
  O  O359  1  0.63368071  0.25781569  0.76267162  1
  O  O360  1  0.61675162  0.76039319  0.23657069  1
  O  O361  1  0.64229741  0.79173296  0.73776451  1
  O  O362  1  0.37946405  0.23883478  0.24810528  1
  O  O363  1  0.33064243  0.28935747  0.67357510  1
  O  O364  1  0.39046088  0.75067497  0.23268323  1
  O  O365  1  0.36762418  0.72972356  0.73315966  1
  O  O366  1  0.87994789  0.24000286  0.25745705  1
  O  O367  1  0.88644248  0.24792024  0.75582906  1
  O  O368  1  0.91553801  0.75558572  0.28049482  1
  O  O369  1  0.88350274  0.76468997  0.74261806  1
  O  O370  1  0.39405569  0.51156241  0.48704838  1
  O  O371  1  0.38662898  0.48333159  1.00072020  1
  O  O372  1  0.37814911  0.99445598  0.48990017  1
  O  O373  1  0.38441362  1.00273724  0.99266550  1
  O  O374  1  0.86108064  0.49611522  0.49732714  1
  O  O375  1  0.87503804  0.48704190  0.98937869  1
  O  O376  1  0.86676957  0.97808598  0.49571972  1
  O  O377  1  0.90041443  0.98703437  1.01153319  1
  O  O378  1  0.11751902  0.00254824  -0.00052704  1
  O  O379  1  0.11980790  -0.00511343  0.51654268  1
  O  O380  1  0.12292359  0.49025902  0.01546578  1
  O  O381  1  0.11785414  0.51694739  0.51654926  1
  O  O382  1  0.62496020  0.00098585  0.01704696  1
  O  O383  1  0.61881793  0.01080302  0.49293634  1
  O  O384  1  0.61957683  0.50886175  -0.01156084  1
  O  O385  1  0.62385391  0.51615938  0.50959007  1
  O  O386  1  0.36884404  0.36609084  0.11599081  1
  O  O387  1  0.36873765  0.34797030  0.63199053  1
  O  O388  1  0.38210508  0.85840688  0.11762786  1
  O  O389  1  0.38054200  0.87329915  0.61279456  1
  O  O390  1  0.86852019  0.37397943  0.10799410  1
  O  O391  1  0.87423407  0.38084275  0.60699899  1
  O  O392  1  0.89576821  0.87664894  0.12659695  1
  O  O393  1  0.87416226  0.86143233  0.61033097  1
  O  O394  1  0.13447022  0.13962149  0.37626235  1
  O  O395  1  0.14149191  0.13180027  0.87519188  1
  O  O396  1  0.11827906  0.61830637  0.39039458  1
  O  O397  1  0.12901687  0.62890425  0.87637481  1
  O  O398  1  0.62495084  0.13652695  0.38032124  1
  O  O399  1  0.62110231  0.13469118  0.86897455  1
  O  O400  1  0.62738442  0.62222725  0.37712083  1
  O  O401  1  0.61475276  0.64004457  0.85023592  1
