# generated using pymatgen
data_V73Zn73O256
_symmetry_space_group_name_H-M   'P 1'
_cell_length_a   16.92346536
_cell_length_b   16.90222756
_cell_length_c   16.90794816
_cell_angle_alpha   90.18667961
_cell_angle_beta   90.13035371
_cell_angle_gamma   90.16868055
_symmetry_Int_Tables_number   1
_chemical_formula_structural   V73Zn73O256
_chemical_formula_sum   'V73 Zn73 O256'
_cell_volume   4836.36230730
_cell_formula_units_Z   1
loop_
 _symmetry_equiv_pos_site_id
 _symmetry_equiv_pos_as_xyz
  1  'x, y, z'
loop_
 _atom_site_type_symbol
 _atom_site_label
 _atom_site_symmetry_multiplicity
 _atom_site_fract_x
 _atom_site_fract_y
 _atom_site_fract_z
 _atom_site_occupancy
  V  V0  1  0.00382849  0.87426341  0.37382776  1
  V  V1  1  0.50150091  0.51282968  0.01620144  1
  V  V2  1  0.37566710  0.01234847  0.86185322  1
  V  V3  1  0.65422980  0.67232275  -0.01395260  1
  V  V4  1  0.74880586  0.88120998  0.62831354  1
  V  V5  1  0.25990056  0.60951299  0.37802785  1
  V  V6  1  0.74107887  0.37996574  0.11621236  1
  V  V7  1  0.62262610  0.62273670  0.50068262  1
  V  V8  1  -0.00144755  0.50322325  0.49768108  1
  V  V9  1  -0.00562605  0.12970965  0.64196714  1
  V  V10  1  0.12190621  0.63120778  -0.01678238  1
  V  V11  1  0.00009160  0.74256047  0.73992014  1
  V  V12  1  0.12793423  0.51398317  0.13571263  1
  V  V13  1  0.49212559  0.02357040  0.00457817  1
  V  V14  1  0.25704296  0.74270420  -0.00676404  1
  V  V15  1  0.49596395  0.87576938  0.38258208  1
  V  V16  1  0.61417953  0.36942137  0.25410391  1
  V  V17  1  0.37695256  0.25141962  0.14630871  1
  V  V18  1  0.37103485  0.49467750  0.87230179  1
  V  V19  1  0.75464523  0.13959914  0.37488579  1
  V  V20  1  0.63839270  0.01196318  0.63411196  1
  V  V21  1  0.12979224  0.75152575  0.37089778  1
  V  V22  1  -0.00106166  0.49511251  0.00402112  1
  V  V23  1  0.12263761  -0.00174342  0.62139489  1
  V  V24  1  0.87500501  0.87017166  0.50085991  1
  V  V25  1  0.61751843  0.00920343  0.12434361  1
  V  V26  1  0.74855090  0.24290479  0.00063138  1
  V  V27  1  0.24967342  0.87497537  0.63654725  1
  V  V28  1  0.37585995  0.36844837  -0.00342637  1
  V  V29  1  0.38582545  0.87456770  0.00391753  1
  V  V30  1  0.87940211  0.26143208  0.12166730  1
  V  V31  1  0.26580850  0.00271783  0.25185322  1
  V  V32  1  0.49285714  0.49565060  0.48688266  1
  V  V33  1  0.63420778  0.13847307  0.50212806  1
  V  V34  1  0.23641803  0.36952513  0.13271831  1
  V  V35  1  0.26170743  0.12111284  0.37422883  1
  V  V36  1  0.37707096  0.36416260  0.49558530  1
  V  V37  1  0.12055474  0.87141415  0.76234206  1
  V  V38  1  0.92239673  0.06659351  0.19235875  1
  V  V39  1  -0.00006972  0.25080192  0.24290494  1
  V  V40  1  0.23972513  0.24671010  0.50471505  1
  V  V41  1  0.48964081  0.74868762  0.23935745  1
  V  V42  1  0.12543187  0.49278654  0.62840902  1
  V  V43  1  0.00379988  0.00889217  0.49987655  1
  V  V44  1  0.86635986  -0.01152371  0.85677945  1
  V  V45  1  0.88596072  0.49096700  0.87501515  1
  V  V46  1  0.86242874  0.36396230  0.50512505  1
  V  V47  1  0.63146928  0.49442283  0.62469407  1
  V  V48  1  0.61985535  0.75184694  0.37852913  1
  V  V49  1  0.74461748  0.50077277  0.24270831  1
  V  V50  1  0.61687028  0.36713451  0.75058065  1
  V  V51  1  0.87373495  0.49836883  0.36521347  1
  V  V52  1  0.12223607  0.88307542  0.24803408  1
  V  V53  1  0.34697781  0.61619108  0.75179902  1
  V  V54  1  0.49881690  0.00541464  0.49977392  1
  V  V55  1  0.74495266  0.49876301  0.76481197  1
  V  V56  1  0.12097239  0.62450549  0.50241951  1
  V  V57  1  0.12402213  0.24064886  0.36848272  1
  V  V58  1  0.74861106  0.62348770  0.36759513  1
  V  V59  1  0.13159545  0.11454143  -0.00369167  1
  V  V60  1  0.75797216  0.12050866  0.86248141  1
  V  V61  1  0.61908880  0.24113641  0.88137564  1
  V  V62  1  0.75411498  0.75061720  0.50213490  1
  V  V63  1  0.37480049  0.61268908  0.24577280  1
  V  V64  1  0.25753604  0.86850342  0.12931830  1
  V  V65  1  0.00528270  0.37360303  0.36731583  1
  V  V66  1  0.25506702  0.75127624  0.50718254  1
  V  V67  1  0.86865948  0.62637156  0.73859014  1
  V  V68  1  0.49757657  0.61899873  0.63867713  1
  V  V69  1  0.48065219  0.13434969  0.63309104  1
  V  V70  1  0.37651313  0.87752192  0.50893365  1
  V  V71  1  0.74048842  -0.00152373  0.25205290  1
  V  V72  1  0.87200725  0.00382128  0.37580714  1
  Zn  Zn73  1  0.24617242  0.37677429  0.62445012  1
  Zn  Zn74  1  0.62407650  0.87181779  0.24557210  1
  Zn  Zn75  1  0.49422127  0.14058052  0.15984019  1
  Zn  Zn76  1  0.56039649  0.82794411  0.81546724  1
  Zn  Zn77  1  0.49238743  0.24391306  0.75529457  1
  Zn  Zn78  1  0.42385247  0.78155355  0.68024570  1
  Zn  Zn79  1  0.60925563  0.25220231  0.36971969  1
  Zn  Zn80  1  -0.01174453  0.86763268  0.88865919  1
  Zn  Zn81  1  0.23572596  0.03475036  0.75328679  1
  Zn  Zn82  1  0.19497182  0.18925997  0.19027269  1
  Zn  Zn83  1  0.14823607  0.20127916  0.67818003  1
  Zn  Zn84  1  0.19622991  0.68652268  0.19167186  1
  Zn  Zn85  1  0.18259827  0.68740085  0.68852830  1
  Zn  Zn86  1  0.68940123  0.18678470  0.18900621  1
  Zn  Zn87  1  0.70645988  0.19664487  0.68847742  1
  Zn  Zn88  1  0.67084075  0.68183330  0.18325139  1
  Zn  Zn89  1  0.68856141  0.68736831  0.68800426  1
  Zn  Zn90  1  0.30711391  0.32656158  0.31530229  1
  Zn  Zn91  1  0.31976830  0.20256185  0.72568884  1
  Zn  Zn92  1  0.31469279  0.81227652  0.31833832  1
  Zn  Zn93  1  0.36244332  0.78759146  0.84453283  1
  Zn  Zn94  1  0.81737578  0.31749856  0.30184789  1
  Zn  Zn95  1  0.80793504  0.31224737  0.80238402  1
  Zn  Zn96  1  0.80754766  0.81771895  0.31614359  1
  Zn  Zn97  1  0.80911793  0.80437037  0.80195092  1
  Zn  Zn98  1  0.18413993  0.43121800  0.43710767  1
  Zn  Zn99  1  0.20255632  0.45341560  0.96002966  1
  Zn  Zn100  1  0.19193217  0.93877877  0.43989575  1
  Zn  Zn101  1  0.20887162  0.92980070  0.92759578  1
  Zn  Zn102  1  0.68495953  0.43428282  0.43328003  1
  Zn  Zn103  1  0.67437025  0.43356214  0.93736679  1
  Zn  Zn104  1  0.68384656  0.94304576  0.44367339  1
  Zn  Zn105  1  0.70558941  0.87771987  0.93802213  1
  Zn  Zn106  1  0.31808239  0.06157765  0.07841736  1
  Zn  Zn107  1  0.30688200  0.06319275  0.56478575  1
  Zn  Zn108  1  0.31614416  0.56011427  0.06265575  1
  Zn  Zn109  1  0.31367630  0.55640511  0.56554387  1
  Zn  Zn110  1  0.79498553  0.06045100  0.05759000  1
  Zn  Zn111  1  0.81798768  0.07074222  0.56167332  1
  Zn  Zn112  1  0.79960106  0.56257545  0.04495626  1
  Zn  Zn113  1  0.81240635  0.55699422  0.55693286  1
  Zn  Zn114  1  0.43331666  0.43526574  0.18445047  1
  Zn  Zn115  1  0.40215670  0.39239975  0.71262682  1
  Zn  Zn116  1  0.44248758  0.93783517  0.19124208  1
  Zn  Zn117  1  0.45776206  0.94805940  0.68960857  1
  Zn  Zn118  1  0.94023998  0.44035276  0.18357416  1
  Zn  Zn119  1  0.92941200  0.44905378  0.67652977  1
  Zn  Zn120  1  0.93024101  0.92063081  0.05831181  1
  Zn  Zn121  1  0.93801116  0.93372537  0.68437861  1
  Zn  Zn122  1  0.06740536  0.06036671  0.31311328  1
  Zn  Zn123  1  0.04455611  0.04338782  0.81382658  1
  Zn  Zn124  1  0.06322851  0.56787441  0.30734125  1
  Zn  Zn125  1  0.06191109  0.56279159  0.81015996  1
  Zn  Zn126  1  0.56713189  0.06441464  0.32166396  1
  Zn  Zn127  1  0.60569261  0.01654951  0.85157481  1
  Zn  Zn128  1  0.55960301  0.55918920  0.30292867  1
  Zn  Zn129  1  0.56134015  0.55634701  0.82837480  1
  Zn  Zn130  1  0.43745773  0.18613272  0.43696466  1
  Zn  Zn131  1  0.42798827  0.19176227  0.93337247  1
  Zn  Zn132  1  0.43608575  0.68832016  0.44446666  1
  Zn  Zn133  1  0.47592905  0.67401578  0.91667857  1
  Zn  Zn134  1  0.93852784  0.18942019  0.43797722  1
  Zn  Zn135  1  0.93237680  0.18545321  0.93633197  1
  Zn  Zn136  1  0.95338688  0.67185643  0.39233279  1
  Zn  Zn137  1  0.94218747  0.67737588  0.91818275  1
  Zn  Zn138  1  0.05854297  0.30504239  0.03473615  1
  Zn  Zn139  1  0.05266464  0.31293826  0.55630925  1
  Zn  Zn140  1  0.07513083  0.80987630  0.06326875  1
  Zn  Zn141  1  0.06137555  0.81125652  0.56179854  1
  Zn  Zn142  1  0.55425717  0.31646391  0.06289504  1
  Zn  Zn143  1  0.56108354  0.31517365  0.56482068  1
  Zn  Zn144  1  0.57103171  0.81970239  0.06117587  1
  Zn  Zn145  1  0.55877903  0.82075867  0.59156905  1
  O  O146  1  0.13657923  0.11677589  0.10089913  1
  O  O147  1  0.11463889  0.10118286  0.62497203  1
  O  O148  1  0.13221859  0.61725042  0.12299790  1
  O  O149  1  0.12766672  0.61691247  0.60745210  1
  O  O150  1  0.60926125  0.11685926  0.14533997  1
  O  O151  1  0.64538125  0.12411911  0.61805918  1
  O  O152  1  0.62956591  0.65094309  0.08407304  1
  O  O153  1  0.62094307  0.62089949  0.61578817  1
  O  O154  1  0.36848398  0.37957540  0.39529294  1
  O  O155  1  0.37021180  0.38588005  0.89171679  1
  O  O156  1  0.38673318  0.87134591  0.39352959  1
  O  O157  1  0.36821292  0.89396475  0.90080843  1
  O  O158  1  0.88219668  0.38203574  0.37685792  1
  O  O159  1  0.86546142  0.39175179  0.86834948  1
  O  O160  1  0.88318873  0.88229118  0.37810568  1
  O  O161  1  0.85377814  0.88424329  0.86961021  1
  O  O162  1  0.24604308  0.01314784  0.37128139  1
  O  O163  1  0.26740886  0.00001021  0.86047053  1
  O  O164  1  0.24850870  0.51106806  0.38332426  1
  O  O165  1  0.27003539  0.50677546  0.88893047  1
  O  O166  1  0.75802751  0.00468109  0.37355254  1
  O  O167  1  0.75346761  0.01583525  0.87831064  1
  O  O168  1  0.75411742  0.50443526  0.36395757  1
  O  O169  1  0.75099718  0.50086355  0.86748037  1
  O  O170  1  0.23116176  0.49184948  0.11927901  1
  O  O171  1  0.23079973  0.49767279  0.61678279  1
  O  O172  1  0.25269445  0.99061080  0.14500678  1
  O  O173  1  0.24157228  0.99215898  0.63121464  1
  O  O174  1  0.75964753  0.48978897  0.12581930  1
  O  O175  1  0.73514703  0.50609813  0.62962555  1
  O  O176  1  0.72652603  1.01474198  0.13902537  1
  O  O177  1  0.74603430  0.99667585  0.61635913  1
  O  O178  1  -0.00736268  0.36384660  0.25634413  1
  O  O179  1  -0.00644113  0.36328991  0.74944041  1
  O  O180  1  0.01892742  0.88089601  0.26356626  1
  O  O181  1  0.01161548  0.87138820  0.75109620  1
  O  O182  1  0.51646145  0.38048119  0.24351183  1
  O  O183  1  0.51745823  0.38106760  0.75210563  1
  O  O184  1  0.49652599  0.86409531  0.26620398  1
  O  O185  1  0.51403402  0.85168816  0.70606121  1
  O  O186  1  0.49539110  0.14620610  0.28692354  1
  O  O187  1  0.50189997  0.12553076  0.73061180  1
  O  O188  1  0.48894283  0.63852731  0.25741023  1
  O  O189  1  0.51352101  0.61993153  0.73701165  1
  O  O190  1  0.99389799  0.12350641  0.24472212  1
  O  O191  1  1.00251113  0.12034806  0.74212330  1
  O  O192  1  0.98973144  0.64556393  0.28862152  1
  O  O193  1  0.99438390  0.63673566  0.74678604  1
  O  O194  1  0.37679994  0.26453223  0.00264998  1
  O  O195  1  0.36658268  0.25782186  0.49634701  1
  O  O196  1  0.36499121  0.76974251  0.00640865  1
  O  O197  1  0.36616462  0.76089184  0.50433932  1
  O  O198  1  0.86435823  0.24187480  0.01617091  1
  O  O199  1  0.88015886  0.26431916  0.49635185  1
  O  O200  1  0.87970744  0.71414843  0.02220497  1
  O  O201  1  0.86189395  0.76011873  0.48841825  1
  O  O202  1  0.13520687  0.25337567  0.48548671  1
  O  O203  1  0.14006477  0.21844638  0.99149664  1
  O  O204  1  0.13211393  0.74444081  0.49353809  1
  O  O205  1  0.14129787  0.73775981  1.00577575  1
  O  O206  1  0.61565320  0.24227464  0.49192272  1
  O  O207  1  0.62875771  0.25785179  0.98583858  1
  O  O208  1  0.63173266  0.74061544  0.49286298  1
  O  O209  1  0.65259445  0.77983017  0.99273769  1
  O  O210  1  0.48311368  0.25408347  0.12824315  1
  O  O211  1  0.50249664  0.23513866  0.62258018  1
  O  O212  1  0.50451640  0.76064724  0.14235283  1
  O  O213  1  0.49839102  0.72231876  0.61003513  1
  O  O214  1  0.98641979  0.25885627  0.12397772  1
  O  O215  1  1.03507525  0.22791050  0.62984076  1
  O  O216  1  0.97945544  0.77196044  0.14391198  1
  O  O217  1  0.99340927  0.76237680  0.63948861  1
  O  O218  1  0.00380738  0.25237404  0.36311528  1
  O  O219  1  0.01587911  0.25553253  0.93310147  1
  O  O220  1  0.01523004  0.76947356  0.38922726  1
  O  O221  1  -0.01939854  0.75927078  0.84952481  1
  O  O222  1  0.49840874  0.21412685  0.34031923  1
  O  O223  1  0.51739686  0.23654024  0.87362040  1
  O  O224  1  0.50648317  0.75734519  0.37984102  1
  O  O225  1  0.47381375  0.76897756  0.86095091  1
  O  O226  1  0.25378862  0.13667407  0.48833190  1
  O  O227  1  0.23684234  0.11195735  0.99356044  1
  O  O228  1  0.24856410  0.63226690  0.49430983  1
  O  O229  1  0.24832306  0.63814808  1.00547111  1
  O  O230  1  0.74614429  0.12608179  0.48797102  1
  O  O231  1  0.74050447  0.13967171  0.99834620  1
  O  O232  1  0.74064684  0.62995420  0.49336424  1
  O  O233  1  0.74623587  0.63296093  0.97452759  1
  O  O234  1  0.26828211  0.38210568  0.01917210  1
  O  O235  1  0.25478163  0.35838386  0.49417649  1
  O  O236  1  0.24937177  0.87105523  0.01811839  1
  O  O237  1  0.25839192  0.87273961  0.51100568  1
  O  O238  1  0.74344707  0.36752444  0.01129545  1
  O  O239  1  0.76300408  0.37653595  0.49025399  1
  O  O240  1  0.78274259  0.90212381  0.01974518  1
  O  O241  1  0.75752750  0.86921711  0.49792966  1
  O  O242  1  0.11701679  0.50053175  0.23452180  1
  O  O243  1  0.10843979  0.50186951  0.72694645  1
  O  O244  1  0.13779351  0.98630483  0.25771687  1
  O  O245  1  0.12291845  0.98543187  0.74471778  1
  O  O246  1  0.63605212  0.48783300  0.25108454  1
  O  O247  1  0.63172210  0.49821318  0.75060799  1
  O  O248  1  0.62527626  0.99730467  0.25119830  1
  O  O249  1  0.62583633  1.01097213  0.73134729  1
  O  O250  1  0.36482746  -0.00473764  0.25859891  1
  O  O251  1  0.38780995  -0.00655505  0.76292201  1
  O  O252  1  0.38579699  0.51407942  0.25614765  1
  O  O253  1  0.37170229  0.49544896  0.76305988  1
  O  O254  1  0.86318032  0.00747624  0.25871244  1
  O  O255  1  0.87326945  -0.00404457  0.75772480  1
  O  O256  1  0.86449982  0.49502579  0.25699555  1
  O  O257  1  0.86373733  0.49947651  0.75680457  1
  O  O258  1  0.11262490  0.36208239  0.37412629  1
  O  O259  1  0.15128425  0.34756168  0.91091134  1
  O  O260  1  0.12440018  0.87117560  0.37095780  1
  O  O261  1  0.12629939  0.87942980  0.86318475  1
  O  O262  1  0.62600445  0.36940141  0.36096821  1
  O  O263  1  0.63519723  0.35479886  0.86097882  1
  O  O264  1  0.61465512  0.86575486  0.38258999  1
  O  O265  1  0.62461635  0.90593624  0.86780414  1
  O  O266  1  0.37039047  0.14559890  0.13188309  1
  O  O267  1  0.37754395  0.12824983  0.63127409  1
  O  O268  1  0.35883709  0.62458843  0.14800200  1
  O  O269  1  0.38747851  0.60588743  0.64376093  1
  O  O270  1  0.86809180  0.12655012  0.12805328  1
  O  O271  1  0.89562761  0.12861614  0.61994551  1
  O  O272  1  0.87251680  0.66381069  0.07804584  1
  O  O273  1  0.87848297  0.60315979  0.63962928  1
  O  O274  1  0.25805240  0.26060742  0.12754440  1
  O  O275  1  0.23638855  0.24965744  0.60723163  1
  O  O276  1  0.25265419  0.76456038  0.12563146  1
  O  O277  1  0.23992863  0.75898685  0.61419676  1
  O  O278  1  0.75639664  0.25947454  0.12110529  1
  O  O279  1  0.79707211  0.26004416  0.70370671  1
  O  O280  1  0.77065237  0.75387686  0.16735371  1
  O  O281  1  0.73637260  0.76631838  0.61112402  1
  O  O282  1  0.24158457  0.23942455  0.37347435  1
  O  O283  1  0.20366187  0.29845671  0.89522263  1
  O  O284  1  0.24443430  0.75259077  0.39099374  1
  O  O285  1  0.25849016  0.75888994  0.89514466  1
  O  O286  1  0.75972098  0.23891575  0.36621862  1
  O  O287  1  0.75002033  0.24019573  0.88301843  1
  O  O288  1  0.73967297  0.74363957  0.38036777  1
  O  O289  1  0.71228322  0.75133194  0.83913025  1
  O  O290  1  0.02784791  0.11415378  0.00417762  1
  O  O291  1  -0.00087644  0.11121864  0.49862177  1
  O  O292  1  0.01749903  0.62557584  -0.00700758  1
  O  O293  1  0.01053394  0.61496845  0.48129344  1
  O  O294  1  0.48690391  0.12263962  0.00927951  1
  O  O295  1  0.50548669  0.12155032  0.50854615  1
  O  O296  1  0.47738770  0.61365428  0.01030284  1
  O  O297  1  0.50870217  0.61356768  0.50021547  1
  O  O298  1  0.48880949  0.38387202  0.50439720  1
  O  O299  1  0.48243248  0.38740928  1.00957667  1
  O  O300  1  0.49534365  0.88287896  0.50510221  1
  O  O301  1  0.48632152  0.88544096  1.01414755  1
  O  O302  1  0.99158318  0.38231255  0.48465744  1
  O  O303  1  1.00011978  0.39746732  0.99954077  1
  O  O304  1  0.99128855  0.88413838  0.49477736  1
  O  O305  1  0.99887571  0.85776135  1.00053149  1
  O  O306  1  0.50912729  0.50038762  0.38880192  1
  O  O307  1  0.48089528  0.50413773  0.89016283  1
  O  O308  1  0.50850800  0.98933644  0.39108899  1
  O  O309  1  0.49054818  1.00824549  0.89836974  1
  O  O310  1  0.99346270  0.49039893  0.37526933  1
  O  O311  1  0.99325451  0.49715219  0.88023185  1
  O  O312  1  0.99338399  0.99417304  0.37982493  1
  O  O313  1  0.97194437  0.98770276  0.88218453  1
  O  O314  1  -0.03297938  -0.00288788  0.13639425  1
  O  O315  1  0.00236134  0.00541896  0.61770137  1
  O  O316  1  0.00916149  0.50209419  0.11353311  1
  O  O317  1  0.00745371  0.49690976  0.60432978  1
  O  O318  1  0.49703252  0.01689620  0.12814191  1
  O  O319  1  0.51694495  0.01883141  0.61669076  1
  O  O320  1  0.49715296  0.50226904  0.11739858  1
  O  O321  1  0.51631423  0.51228139  0.61132697  1
  O  O322  1  0.24391774  0.37824704  0.23418679  1
  O  O323  1  0.21408892  0.34315405  0.74488428  1
  O  O324  1  0.24846157  0.88248475  0.24839945  1
  O  O325  1  0.23339005  0.86625479  0.73975448  1
  O  O326  1  0.74537252  0.38331126  0.23679367  1
  O  O327  1  0.73561970  0.39554981  0.74892057  1
  O  O328  1  0.74283838  0.89279076  0.25887894  1
  O  O329  1  0.75333956  0.87591491  0.72552793  1
  O  O330  1  0.24533396  0.11148340  0.25990838  1
  O  O331  1  0.22759768  0.14646213  0.74140772  1
  O  O332  1  0.26162200  0.62980968  0.27012540  1
  O  O333  1  0.24786888  0.61082570  0.74407585  1
  O  O334  1  0.74422495  0.11510751  0.26856760  1
  O  O335  1  0.75995937  0.12307420  0.76406692  1
  O  O336  1  0.73190927  0.61399872  0.25743461  1
  O  O337  1  0.75940517  0.61271035  0.74382407  1
  O  O338  1  0.35964697  0.12583825  0.37428849  1
  O  O339  1  0.37607568  0.11451103  0.86782601  1
  O  O340  1  0.36363899  0.62871894  0.37617499  1
  O  O341  1  0.37817779  0.61516432  0.85278843  1
  O  O342  1  0.86510965  0.11467259  0.38246677  1
  O  O343  1  0.86531035  0.11033420  0.88940212  1
  O  O344  1  0.85414316  0.61472894  0.38036503  1
  O  O345  1  0.87964670  0.60551717  0.85209105  1
  O  O346  1  0.13435508  0.36897563  0.10631270  1
  O  O347  1  0.12325172  0.38879959  0.61116743  1
  O  O348  1  0.13629175  0.86997170  0.14292178  1
  O  O349  1  0.13025650  0.88123470  0.63015033  1
  O  O350  1  0.63802218  0.37070053  0.13178528  1
  O  O351  1  0.62287223  0.38142432  0.63730328  1
  O  O352  1  0.60995749  0.90104783  0.13388834  1
  O  O353  1  0.64085349  0.89925159  0.60879368  1
  O  O354  1  0.10873668  0.23960473  0.25052258  1
  O  O355  1  0.14655224  0.30843078  0.74556095  1
  O  O356  1  0.13864023  0.76225625  0.26488845  1
  O  O357  1  0.11148170  0.75809987  0.74704189  1
  O  O358  1  0.63176741  0.26558906  0.24913509  1
  O  O359  1  0.62175619  0.25824864  0.75205741  1
  O  O360  1  0.61096679  0.74915225  0.26277616  1
  O  O361  1  0.65327365  0.75231174  0.77913034  1
  O  O362  1  0.37083941  0.26052728  0.24533684  1
  O  O363  1  0.38697577  0.28397882  0.75053932  1
  O  O364  1  0.38624507  0.74613373  0.25655176  1
  O  O365  1  0.35392909  0.72406024  0.74496648  1
  O  O366  1  0.88446789  0.24661618  0.23347563  1
  O  O367  1  0.95822190  0.30168196  0.77230054  1
  O  O368  1  0.82445234  0.74371792  0.22228262  1
  O  O369  1  0.87398197  0.73225947  0.73967652  1
  O  O370  1  0.39060063  0.50124227  0.49845912  1
  O  O371  1  0.38116504  0.49263425  0.99849967  1
  O  O372  1  0.38725701  0.99192152  0.51241948  1
  O  O373  1  0.38080387  0.99809105  1.00528534  1
  O  O374  1  0.88067653  0.49509309  0.48389839  1
  O  O375  1  0.88841175  0.51312671  0.98661551  1
  O  O376  1  0.88157554  0.99177316  0.49020415  1
  O  O377  1  0.83902227  0.96736055  1.00354194  1
  O  O378  1  0.13461748  0.00927996  -0.00648184  1
  O  O379  1  0.11352859  -0.01291395  0.50843570  1
  O  O380  1  0.11539581  0.51435979  0.00503286  1
  O  O381  1  0.11611262  0.50657224  0.49749635  1
  O  O382  1  0.60301932  0.00907829  0.01976159  1
  O  O383  1  0.61839109  0.01829662  0.50617827  1
  O  O384  1  0.60300460  0.49876442  -0.00719853  1
  O  O385  1  0.62169950  0.50448702  0.50411231  1
  O  O386  1  0.36416549  0.36567031  0.12350727  1
  O  O387  1  0.35982194  0.38612130  0.60433042  1
  O  O388  1  0.36350735  0.88287318  0.12065535  1
  O  O389  1  0.36679572  0.87422321  0.62320261  1
  O  O390  1  0.86419183  0.36553335  0.12588013  1
  O  O391  1  0.87631184  0.38271242  0.60387884  1
  O  O392  1  0.92543034  0.82345925  0.14579768  1
  O  O393  1  0.86156476  0.88413429  0.60952410  1
  O  O394  1  0.13003363  0.13554353  0.37304960  1
  O  O395  1  0.12182388  0.11326174  0.89127104  1
  O  O396  1  0.14236939  0.63316536  0.38279269  1
  O  O397  1  0.13006556  0.62128556  0.88447592  1
  O  O398  1  0.64142835  0.13052186  0.38492165  1
  O  O399  1  0.64054441  0.13433437  0.86968244  1
  O  O400  1  0.62973826  0.63007721  0.38234311  1
  O  O401  1  0.59575636  0.64175568  0.90351168  1
