# generated using pymatgen
data_V73Zn73O256
_symmetry_space_group_name_H-M   'P 1'
_cell_length_a   16.87777045
_cell_length_b   16.87509909
_cell_length_c   16.91932448
_cell_angle_alpha   89.69908848
_cell_angle_beta   90.13522041
_cell_angle_gamma   89.92246352
_symmetry_Int_Tables_number   1
_chemical_formula_structural   V73Zn73O256
_chemical_formula_sum   'V73 Zn73 O256'
_cell_volume   4818.77693425
_cell_formula_units_Z   1
loop_
 _symmetry_equiv_pos_site_id
 _symmetry_equiv_pos_as_xyz
  1  'x, y, z'
loop_
 _atom_site_type_symbol
 _atom_site_label
 _atom_site_symmetry_multiplicity
 _atom_site_fract_x
 _atom_site_fract_y
 _atom_site_fract_z
 _atom_site_occupancy
  V  V0  1  0.35872130  0.12834811  0.25169092  1
  V  V1  1  0.24518460  -0.02109698  0.24899390  1
  V  V2  1  -0.00778052  0.49359149  0.49799332  1
  V  V3  1  0.72263376  0.87375198  0.61681990  1
  V  V4  1  0.77064708  0.86978312  0.12325878  1
  V  V5  1  0.02838145  0.86397593  0.36773665  1
  V  V6  1  0.12529257  0.76146472  0.85652442  1
  V  V7  1  0.49960540  0.12682887  0.13721479  1
  V  V8  1  0.87266263  0.49937694  0.86658984  1
  V  V9  1  0.00020274  0.01028636  0.49502604  1
  V  V10  1  0.11962230  0.12353261  0.01214866  1
  V  V11  1  -0.00537366  0.51461684  -0.00553564  1
  V  V12  1  0.74293132  0.62201772  0.87061855  1
  V  V13  1  0.13336684  0.62915943  0.48921749  1
  V  V14  1  0.62054581  0.86891414  0.24592336  1
  V  V15  1  -0.01431910  -0.00884259  0.00269388  1
  V  V16  1  -0.01336723  0.37751725  0.37063959  1
  V  V17  1  0.37046790  0.27334712  0.63213925  1
  V  V18  1  0.24313559  0.75727233  -0.00343448  1
  V  V19  1  0.50317271  0.25456995  0.75968453  1
  V  V20  1  0.76266834  0.00261110  0.25924845  1
  V  V21  1  0.38267673  0.38634525  -0.00511529  1
  V  V22  1  0.75260817  0.73838079  0.48785711  1
  V  V23  1  0.38536401  0.61655017  0.77037323  1
  V  V24  1  0.18308267  0.57926289  -0.06405779  1
  V  V25  1  0.76531348  0.49655524  0.25984876  1
  V  V26  1  0.76834150  0.37705054  0.12984670  1
  V  V27  1  0.37539827  0.75267037  0.62760719  1
  V  V28  1  0.06911540  0.54580490  0.16789737  1
  V  V29  1  0.12227022  0.24063441  0.87799960  1
  V  V30  1  0.38124461  0.88239846  0.50659777  1
  V  V31  1  0.12447144  0.37311167  0.25217257  1
  V  V32  1  0.37912916  0.25263275  0.13128586  1
  V  V33  1  0.87988698  0.75140118  0.62789809  1
  V  V34  1  0.37314379  0.00367826  0.37267547  1
  V  V35  1  0.75492939  0.25533692  -0.00487914  1
  V  V36  1  0.24449247  0.25127419  0.51204481  1
  V  V37  1  0.61981982  0.50133168  0.12148185  1
  V  V38  1  0.23932470  0.87730183  0.62572637  1
  V  V39  1  0.62434257  0.77020106  0.87903386  1
  V  V40  1  -0.01503962  0.87567614  0.86237010  1
  V  V41  1  -0.00225675  0.23814317  0.24712953  1
  V  V42  1  0.62161719  0.74195813  0.36690127  1
  V  V43  1  0.13431601  0.23749316  0.37746948  1
  V  V44  1  0.37698407  0.87522241  -0.00232199  1
  V  V45  1  0.24641873  0.38437103  0.12542347  1
  V  V46  1  0.88173038  0.87384982  0.48563490  1
  V  V47  1  0.36972515  0.12657246  0.74215142  1
  V  V48  1  0.37076984  0.00902552  0.87879812  1
  V  V49  1  0.52042705  0.89376357  0.38889593  1
  V  V50  1  0.24800738  0.24379090  0.00025628  1
  V  V51  1  0.26237758  0.51061112  0.26107447  1
  V  V52  1  0.61318154  0.36669202  0.25174524  1
  V  V53  1  0.50036592  -0.00156185  -0.00050603  1
  V  V54  1  0.88124678  0.23193281  0.12546664  1
  V  V55  1  -0.00563412  0.36952454  0.88321911  1
  V  V56  1  0.76335696  0.37579737  0.62708592  1
  V  V57  1  0.76404022  0.74897905  0.00113263  1
  V  V58  1  0.00235364  0.61883986  0.62762372  1
  V  V59  1  0.50376569  0.77149591  0.75862821  1
  V  V60  1  0.77172159  0.24847119  0.50783373  1
  V  V61  1  0.37506885  0.75394187  0.13598897  1
  V  V62  1  0.12827225  -0.01774383  0.12519400  1
  V  V63  1  0.60976264  0.25027881  0.38920783  1
  V  V64  1  0.12387489  0.02186046  0.61530262  1
  V  V65  1  0.23399222  0.00264857  0.75784572  1
  V  V66  1  -0.00501662  0.23973447  0.73372963  1
  V  V67  1  0.37656881  0.39143169  0.48645032  1
  V  V68  1  0.62533464  0.13064679  0.00239070  1
  V  V69  1  0.49940600  0.63505843  0.13037649  1
  V  V70  1  0.75315967  0.10669050  0.87284572  1
  V  V71  1  0.62728727  0.50560890  0.62346297  1
  V  V72  1  0.12991609  0.38191710  0.73951597  1
  Zn  Zn73  1  0.62655054  -0.00210098  0.12952733  1
  Zn  Zn74  1  0.56611412  0.56273844  -0.04086416  1
  Zn  Zn75  1  0.75065008  0.12259306  0.38571473  1
  Zn  Zn76  1  0.63726731  0.38158332  0.75903429  1
  Zn  Zn77  1  0.50324151  0.62231541  0.62808175  1
  Zn  Zn78  1  0.87014441  0.62382937  0.74540019  1
  Zn  Zn79  1  0.87310920  0.12546006  0.75877864  1
  Zn  Zn80  1  0.75448242  0.61398808  0.37098274  1
  Zn  Zn81  1  0.51249100  0.39748757  0.88228969  1
  Zn  Zn82  1  0.18563025  0.18951412  0.18394805  1
  Zn  Zn83  1  0.18671901  0.19037971  0.69363941  1
  Zn  Zn84  1  0.19361999  0.68578816  0.17715609  1
  Zn  Zn85  1  0.18406656  0.68908357  0.67253577  1
  Zn  Zn86  1  0.68906585  0.18678148  0.18607049  1
  Zn  Zn87  1  0.68776270  0.18517350  0.68543109  1
  Zn  Zn88  1  0.69558106  0.68175841  0.18404128  1
  Zn  Zn89  1  0.68698265  0.69630258  0.68722743  1
  Zn  Zn90  1  0.31417267  0.32043978  0.31519356  1
  Zn  Zn91  1  0.30926230  0.31870196  0.81738101  1
  Zn  Zn92  1  0.32612345  0.81671634  0.31957622  1
  Zn  Zn93  1  0.31259741  0.81815019  0.81316400  1
  Zn  Zn94  1  0.81363929  0.28129135  0.32206194  1
  Zn  Zn95  1  0.81765335  0.31134867  0.80930193  1
  Zn  Zn96  1  0.81706420  0.80833214  0.30696916  1
  Zn  Zn97  1  0.80009331  0.82242842  0.80191172  1
  Zn  Zn98  1  0.18636802  0.43968351  0.44519814  1
  Zn  Zn99  1  0.18762447  0.41848360  0.92973078  1
  Zn  Zn100  1  0.19400282  0.94344284  0.44277826  1
  Zn  Zn101  1  0.18412059  0.93468339  0.93860465  1
  Zn  Zn102  1  0.68499684  0.42763568  0.44153305  1
  Zn  Zn103  1  0.69059191  0.43063850  0.93460710  1
  Zn  Zn104  1  0.69470768  0.94314446  0.45137754  1
  Zn  Zn105  1  0.68870638  0.93771748  0.94647970  1
  Zn  Zn106  1  0.30975672  0.06156244  0.06888062  1
  Zn  Zn107  1  0.36161689  0.09507312  0.53419059  1
  Zn  Zn108  1  0.31802258  0.56729010  0.06649375  1
  Zn  Zn109  1  0.30878296  0.56526027  0.58381233  1
  Zn  Zn110  1  0.80777607  0.06018489  0.06834971  1
  Zn  Zn111  1  0.80044008  0.05251570  0.56262894  1
  Zn  Zn112  1  0.81332256  0.56135464  0.05794645  1
  Zn  Zn113  1  0.81479534  0.55523889  0.56123712  1
  Zn  Zn114  1  0.43613154  0.44149543  0.18696176  1
  Zn  Zn115  1  0.44813874  0.43978424  0.68906348  1
  Zn  Zn116  1  0.43861112  0.93756610  0.18912962  1
  Zn  Zn117  1  0.44102200  0.94496954  0.69136422  1
  Zn  Zn118  1  0.89460171  0.61607379  0.21739994  1
  Zn  Zn119  1  0.94484274  0.43181550  0.69105781  1
  Zn  Zn120  1  0.94542013  0.93851824  0.19194568  1
  Zn  Zn121  1  0.94038543  0.93726725  0.67747975  1
  Zn  Zn122  1  0.06451401  0.05518283  0.31319945  1
  Zn  Zn123  1  0.05678009  0.06094829  0.82165735  1
  Zn  Zn124  1  0.07061041  0.55953653  0.33104713  1
  Zn  Zn125  1  0.05994765  0.56364458  0.80734912  1
  Zn  Zn126  1  0.57463807  0.05840495  0.32582044  1
  Zn  Zn127  1  0.54156636  0.10334185  0.83848017  1
  Zn  Zn128  1  0.56241895  0.55352717  0.30147335  1
  Zn  Zn129  1  0.56775893  0.56525487  0.79285454  1
  Zn  Zn130  1  0.44873302  0.19215993  0.42871724  1
  Zn  Zn131  1  0.42997451  0.18894787  0.94393571  1
  Zn  Zn132  1  0.54708237  0.57175655  0.46816584  1
  Zn  Zn133  1  0.44239036  0.69016931  0.94337143  1
  Zn  Zn134  1  0.93147269  0.18853278  0.42823434  1
  Zn  Zn135  1  0.93653209  0.17930463  0.94060803  1
  Zn  Zn136  1  0.94873387  0.68896662  0.43623565  1
  Zn  Zn137  1  0.93733357  0.69142500  0.92799621  1
  Zn  Zn138  1  0.05935358  0.31756110  0.06509091  1
  Zn  Zn139  1  0.05942217  0.31222776  0.55877940  1
  Zn  Zn140  1  0.05877140  0.81336430  0.05692854  1
  Zn  Zn141  1  0.06256734  0.80733786  0.55583280  1
  Zn  Zn142  1  0.56584319  0.31447741  0.06597179  1
  Zn  Zn143  1  0.55804274  0.32345070  0.57116153  1
  Zn  Zn144  1  0.56376272  0.80961683  0.06016222  1
  Zn  Zn145  1  0.54834748  0.77174271  0.54406621  1
  O  O146  1  0.12270205  0.11929523  0.11645337  1
  O  O147  1  0.12547151  0.12017366  0.62257180  1
  O  O148  1  0.12477136  0.61162948  0.11851636  1
  O  O149  1  0.10358788  0.62436578  0.62000656  1
  O  O150  1  0.61693226  0.12181222  0.11923163  1
  O  O151  1  0.62190201  0.09659045  0.62711706  1
  O  O152  1  0.62152120  0.60964768  0.12866679  1
  O  O153  1  0.63610651  0.61196377  0.63066642  1
  O  O154  1  0.37860347  0.37941897  0.38550901  1
  O  O155  1  0.37425794  0.37252381  0.89322294  1
  O  O156  1  0.38793043  0.88285231  0.38628129  1
  O  O157  1  0.37014804  0.89274111  0.88750873  1
  O  O158  1  0.88943050  0.36285014  0.36539611  1
  O  O159  1  0.88435923  0.38303212  0.87167498  1
  O  O160  1  0.88143133  0.86947860  0.38443213  1
  O  O161  1  0.88486823  0.86659744  0.86693593  1
  O  O162  1  0.25803852  -0.00396450  0.35844396  1
  O  O163  1  0.25050354  -0.00421175  0.86285500  1
  O  O164  1  0.24090603  0.49596015  0.35813698  1
  O  O165  1  0.23874794  0.51565750  0.88373055  1
  O  O166  1  0.74937772  0.00233276  0.36494480  1
  O  O167  1  0.74830417  0.00707051  0.87758901  1
  O  O168  1  0.74624893  0.49302453  0.36309438  1
  O  O169  1  0.75800766  0.51481628  0.88537366  1
  O  O170  1  0.25446080  0.48884074  0.13047148  1
  O  O171  1  0.24211890  0.58506170  0.68788351  1
  O  O172  1  0.24094534  0.99753442  0.13671755  1
  O  O173  1  0.23088033  0.99372396  0.63552845  1
  O  O174  1  0.74883371  0.48767505  0.12922395  1
  O  O175  1  0.74765888  0.48427746  0.62108955  1
  O  O176  1  0.74883694  0.98084742  0.12963899  1
  O  O177  1  0.71967602  0.97184049  0.57372866  1
  O  O178  1  0.01180691  0.36389693  0.25971055  1
  O  O179  1  0.00576235  0.35703905  0.75962073  1
  O  O180  1  0.00650071  0.88567570  0.27044774  1
  O  O181  1  -0.00115737  0.88903057  0.76347739  1
  O  O182  1  0.51419688  0.37445761  0.23899581  1
  O  O183  1  0.49249407  0.36073536  0.76498830  1
  O  O184  1  0.51671343  0.87948546  0.26126427  1
  O  O185  1  0.49698001  0.87120691  0.76137456  1
  O  O186  1  0.49561016  0.11634965  0.23793072  1
  O  O187  1  0.47782409  0.13437409  0.74975362  1
  O  O188  1  0.50436690  0.62201091  0.23013419  1
  O  O189  1  0.49398616  0.64275675  0.74513215  1
  O  O190  1  1.00444988  0.13914384  0.25532936  1
  O  O191  1  0.99849649  0.13605666  0.75843499  1
  O  O192  1  1.01082425  0.59800355  0.23422922  1
  O  O193  1  0.99289440  0.61903761  0.73157280  1
  O  O194  1  0.36443716  0.25443656  0.01177772  1
  O  O195  1  0.36454732  0.27063705  0.52196294  1
  O  O196  1  0.36821534  0.76170199  -0.00159282  1
  O  O197  1  0.37084271  0.76564781  0.52719643  1
  O  O198  1  0.86668655  0.24283690  0.01442731  1
  O  O199  1  0.87113520  0.25446822  0.50546011  1
  O  O200  1  0.86240161  0.75562684  -0.01015536  1
  O  O201  1  0.87114609  0.75559076  0.50114729  1
  O  O202  1  0.13423493  0.25390321  0.48904709  1
  O  O203  1  0.12694173  0.24331622  0.99967571  1
  O  O204  1  0.13013157  0.72949730  0.51236234  1
  O  O205  1  0.14045027  0.75378684  0.99954522  1
  O  O206  1  0.60415165  0.25506237  0.49004785  1
  O  O207  1  0.64293814  0.24017671  1.01491431  1
  O  O208  1  0.64666267  0.75275992  0.48090575  1
  O  O209  1  0.63313228  0.75692559  0.98441022  1
  O  O210  1  0.48802981  0.24062840  0.11940497  1
  O  O211  1  0.47560511  0.25976880  0.64340619  1
  O  O212  1  0.49211331  0.74484946  0.12630514  1
  O  O213  1  0.48482654  0.76577874  0.64613984  1
  O  O214  1  0.99240792  0.25150914  0.13350081  1
  O  O215  1  1.00321778  0.24469031  0.63496189  1
  O  O216  1  1.03612855  0.75442306  0.16029292  1
  O  O217  1  0.98669219  0.73490021  0.61454423  1
  O  O218  1  0.01064159  0.25721092  0.36605990  1
  O  O219  1  0.00520051  0.25418591  0.88229816  1
  O  O220  1  0.01139811  0.76484763  0.37880645  1
  O  O221  1  0.01399416  0.76361062  0.87813474  1
  O  O222  1  0.51154649  0.25093946  0.35968787  1
  O  O223  1  0.49660166  0.23437011  0.86263621  1
  O  O224  1  0.52483679  0.77246714  0.38130699  1
  O  O225  1  0.51486332  0.75207435  0.87127693  1
  O  O226  1  0.26718084  0.15384555  0.49633154  1
  O  O227  1  0.24097051  0.13677482  1.01010947  1
  O  O228  1  0.22888481  0.60558588  0.51433585  1
  O  O229  1  0.24977421  0.63528411  0.99734817  1
  O  O230  1  0.75598082  0.14018962  0.50424031  1
  O  O231  1  0.74478892  0.13058938  0.99662992  1
  O  O232  1  0.76322491  0.63499020  0.49027870  1
  O  O233  1  0.75214005  0.64148429  0.98602673  1
  O  O234  1  0.25606881  0.36683175  0.00867490  1
  O  O235  1  0.25795119  0.36164570  0.49270727  1
  O  O236  1  0.25901432  0.86472090  0.00018202  1
  O  O237  1  0.26089651  0.88256816  0.51968818  1
  O  O238  1  0.74775364  0.35992272  0.01470252  1
  O  O239  1  0.74602296  0.36127675  0.51674150  1
  O  O240  1  0.75018693  0.86703170  0.01504813  1
  O  O241  1  0.76757439  0.85890298  0.49773124  1
  O  O242  1  0.12824362  0.49144008  0.24154463  1
  O  O243  1  0.11257903  0.48068344  0.75325103  1
  O  O244  1  0.13562304  1.00120092  0.23803291  1
  O  O245  1  0.13075037  1.00896297  0.74468643  1
  O  O246  1  0.63636740  0.48434909  0.23692256  1
  O  O247  1  0.63534606  0.49742029  0.73418051  1
  O  O248  1  0.63698026  0.98205817  0.25043850  1
  O  O249  1  0.58094747  1.04545863  0.67161037  1
  O  O250  1  0.35797021  0.00371660  0.24747188  1
  O  O251  1  0.36987245  0.01332215  0.75758011  1
  O  O252  1  0.36254064  0.49797576  0.25017708  1
  O  O253  1  0.38973367  0.51891821  0.74726284  1
  O  O254  1  0.86205271  -0.00669141  0.24760032  1
  O  O255  1  0.85949578  0.01435146  0.70663588  1
  O  O256  1  0.86387207  0.50035285  0.24987089  1
  O  O257  1  0.88021194  0.50045559  0.76284619  1
  O  O258  1  0.12070578  0.36540889  0.36370461  1
  O  O259  1  0.11260009  0.35964590  0.86714152  1
  O  O260  1  0.12890081  0.87326742  0.38108369  1
  O  O261  1  0.12105483  0.86506661  0.87171399  1
  O  O262  1  0.62559044  0.36444434  0.36011258  1
  O  O263  1  0.62452725  0.36912107  0.87139157  1
  O  O264  1  0.63823070  0.86064536  0.35582887  1
  O  O265  1  0.63416351  0.86906355  0.87085042  1
  O  O266  1  0.37956184  0.13241941  0.13323766  1
  O  O267  1  0.36319358  0.13541711  0.64202035  1
  O  O268  1  0.38843398  0.63943839  0.12093918  1
  O  O269  1  0.37762718  0.64648868  0.63628377  1
  O  O270  1  0.87538537  0.13339181  0.12889284  1
  O  O271  1  0.87170134  0.08038941  0.64792019  1
  O  O272  1  0.87122866  0.63727505  0.11247371  1
  O  O273  1  0.87773066  0.63467161  0.62253677  1
  O  O274  1  0.25665566  0.26004671  0.11898857  1
  O  O275  1  0.25224066  0.25175693  0.61963441  1
  O  O276  1  0.26659802  0.74390991  0.10890197  1
  O  O277  1  0.26507704  0.77024863  0.64709503  1
  O  O278  1  0.76652971  0.25535706  0.12572930  1
  O  O279  1  0.74402276  0.25356676  0.61352323  1
  O  O280  1  0.74724202  0.75724194  0.11159950  1
  O  O281  1  0.75945878  0.75433974  0.60705261  1
  O  O282  1  0.23663476  0.25277155  0.37455885  1
  O  O283  1  0.23601694  0.25782681  0.89152822  1
  O  O284  1  0.28229787  0.71902868  0.38478914  1
  O  O285  1  0.23860397  0.75608824  0.88452326  1
  O  O286  1  0.73252125  0.26263222  0.40300008  1
  O  O287  1  0.75880517  0.25165217  0.89499391  1
  O  O288  1  0.74657373  0.74690331  0.37894681  1
  O  O289  1  0.74200478  0.74908764  0.88024791  1
  O  O290  1  0.00936860  0.10422321  -0.00501288  1
  O  O291  1  -0.01427551  0.10852712  0.49136341  1
  O  O292  1  0.00045241  0.61422039  -0.00967183  1
  O  O293  1  0.00623975  0.61410925  0.50334959  1
  O  O294  1  0.50656399  0.12128279  0.00894604  1
  O  O295  1  0.46633836  0.12722255  0.51319481  1
  O  O296  1  0.50749604  0.63483358  0.01894621  1
  O  O297  1  0.51374915  0.66118853  0.52284870  1
  O  O298  1  0.47303063  0.37775716  0.51619503  1
  O  O299  1  0.48714079  0.36854650  1.00018569  1
  O  O300  1  0.48758280  0.86722932  0.49937646  1
  O  O301  1  0.49250381  0.88808538  1.00462486  1
  O  O302  1  1.00319341  0.38248495  0.48511402  1
  O  O303  1  1.00945150  0.38564327  0.98700607  1
  O  O304  1  0.99517851  0.87627662  0.48988647  1
  O  O305  1  0.99938492  0.88410542  0.99277105  1
  O  O306  1  0.51675451  0.50377452  0.38802350  1
  O  O307  1  0.51366509  0.51093061  0.87602232  1
  O  O308  1  0.47628432  0.99703591  0.34878653  1
  O  O309  1  0.48870503  1.01282420  0.89131666  1
  O  O310  1  0.99708112  0.48407806  0.37677965  1
  O  O311  1  0.99279288  0.49416199  0.88009186  1
  O  O312  1  1.01327982  0.98796156  0.39198181  1
  O  O313  1  1.00416994  0.98541620  0.89005812  1
  O  O314  1  0.01525500  -0.00941784  0.11361154  1
  O  O315  1  0.01878285  -0.00774732  0.61066008  1
  O  O316  1  0.00889122  0.49389175  0.10066631  1
  O  O317  1  -0.01046078  0.50736680  0.61082788  1
  O  O318  1  0.49742844  0.00930062  0.11580795  1
  O  O319  1  0.52626597  0.00429040  0.62952676  1
  O  O320  1  0.51395502  0.50610226  0.12363647  1
  O  O321  1  0.51821259  0.50353364  0.62508948  1
  O  O322  1  0.24271503  0.38265673  0.24325746  1
  O  O323  1  0.22956141  0.37035386  0.75735944  1
  O  O324  1  0.25149428  0.87956107  0.25282287  1
  O  O325  1  0.25808501  0.89576675  0.73997671  1
  O  O326  1  0.75149390  0.37854445  0.23951310  1
  O  O327  1  0.74781627  0.35495398  0.73290099  1
  O  O328  1  0.74930261  0.87514770  0.23794799  1
  O  O329  1  0.74766837  0.87764711  0.71539185  1
  O  O330  1  0.25629176  0.11926278  0.24377942  1
  O  O331  1  0.25521881  0.11194804  0.75094072  1
  O  O332  1  0.24479757  0.61029344  0.24367249  1
  O  O333  1  0.27557779  0.62431467  0.75361859  1
  O  O334  1  0.74377745  0.10084543  0.23772493  1
  O  O335  1  0.74449150  0.13271817  0.77203061  1
  O  O336  1  0.74861931  0.60348738  0.24899611  1
  O  O337  1  0.75198499  0.63809839  0.76767135  1
  O  O338  1  0.37869412  0.11958126  0.35772179  1
  O  O339  1  0.36737952  0.11534215  0.87229783  1
  O  O340  1  0.32819842  0.66122333  0.38968930  1
  O  O341  1  0.38176601  0.62835228  0.86961877  1
  O  O342  1  0.84979917  0.16995539  0.35413315  1
  O  O343  1  0.85851401  0.12192781  0.87865304  1
  O  O344  1  0.87320393  0.65170532  0.35401744  1
  O  O345  1  0.86691492  0.61972853  0.86898961  1
  O  O346  1  0.13499326  0.36759011  0.13694789  1
  O  O347  1  0.11742940  0.36761927  0.63983507  1
  O  O348  1  0.13144823  0.88416049  0.11993915  1
  O  O349  1  0.13820413  0.87051061  0.62127686  1
  O  O350  1  0.63375209  0.38161586  0.13253551  1
  O  O351  1  0.63082634  0.38581332  0.63349912  1
  O  O352  1  0.62696044  0.87063973  0.13763991  1
  O  O353  1  0.62839348  0.84433468  0.61017687  1
  O  O354  1  0.11802504  0.25293383  0.25617208  1
  O  O355  1  0.11339374  0.24937293  0.76099104  1
  O  O356  1  0.09578770  0.75379370  0.20904739  1
  O  O357  1  0.13272553  0.74935844  0.75874122  1
  O  O358  1  0.63475534  0.26490707  0.24693013  1
  O  O359  1  0.60115666  0.24192197  0.73952890  1
  O  O360  1  0.63592975  0.75671620  0.25482708  1
  O  O361  1  0.61295931  0.75161873  0.76093788  1
  O  O362  1  0.36462107  0.24425523  0.23897305  1
  O  O363  1  0.36611171  0.24153586  0.74897424  1
  O  O364  1  0.36865867  0.75492932  0.23452346  1
  O  O365  1  0.38785896  0.75055565  0.75643265  1
  O  O366  1  0.89009339  0.25637644  0.23429146  1
  O  O367  1  0.89123533  0.24484360  0.75183354  1
  O  O368  1  0.87955736  0.70878486  0.28800210  1
  O  O369  1  0.86736822  0.75291380  0.72920163  1
  O  O370  1  0.35564288  0.48669844  0.51880255  1
  O  O371  1  0.37348812  0.48504756  1.00838637  1
  O  O372  1  0.36659385  0.99253969  0.48405992  1
  O  O373  1  0.37696438  0.99701105  0.99851642  1
  O  O374  1  0.89193022  0.50780145  0.48837349  1
  O  O375  1  0.88789925  0.50214134  0.98650829  1
  O  O376  1  0.88868836  0.98174735  0.50543215  1
  O  O377  1  0.88751930  1.00062717  1.00968596  1
  O  O378  1  0.13056524  0.00510271  0.01323767  1
  O  O379  1  0.12050359  0.00688336  0.50881882  1
  O  O380  1  0.11890125  0.50961970  -0.01811519  1
  O  O381  1  0.10544729  0.50841702  0.49121565  1
  O  O382  1  0.61628612  0.00814803  0.00621927  1
  O  O383  1  0.58353377  -0.03431773  0.43248003  1
  O  O384  1  0.63849042  0.49392618  0.01836556  1
  O  O385  1  0.63345108  0.50179069  0.51395254  1
  O  O386  1  0.36879386  0.36792222  0.11856358  1
  O  O387  1  0.36141181  0.37134569  0.64629033  1
  O  O388  1  0.38325816  0.86229351  0.11552124  1
  O  O389  1  0.37122495  0.88186304  0.62300116  1
  O  O390  1  0.86530561  0.37069126  0.12170289  1
  O  O391  1  0.86397983  0.37750478  0.62899494  1
  O  O392  1  0.86930160  0.86721245  0.13208572  1
  O  O393  1  0.88298645  0.85915386  0.60911707  1
  O  O394  1  0.12292764  0.13881673  0.37159969  1
  O  O395  1  0.12234425  0.13432529  0.88960955  1
  O  O396  1  0.12844460  0.63398332  0.38688625  1
  O  O397  1  0.12308211  0.63912731  0.87246174  1
  O  O398  1  0.63418897  0.14577369  0.36666184  1
  O  O399  1  0.63769452  0.12481017  0.89271054  1
  O  O400  1  0.62645641  0.63784430  0.36514536  1
  O  O401  1  0.63829657  0.62977251  0.87589334  1
