# generated using pymatgen
data_V73Zn73O256
_symmetry_space_group_name_H-M   'P 1'
_cell_length_a   16.83488027
_cell_length_b   16.83438765
_cell_length_c   16.83274215
_cell_angle_alpha   89.92208059
_cell_angle_beta   90.05595781
_cell_angle_gamma   89.96242459
_symmetry_Int_Tables_number   1
_chemical_formula_structural   V73Zn73O256
_chemical_formula_sum   'V73 Zn73 O256'
_cell_volume   4770.47389899
_cell_formula_units_Z   1
loop_
 _symmetry_equiv_pos_site_id
 _symmetry_equiv_pos_as_xyz
  1  'x, y, z'
loop_
 _atom_site_type_symbol
 _atom_site_label
 _atom_site_symmetry_multiplicity
 _atom_site_fract_x
 _atom_site_fract_y
 _atom_site_fract_z
 _atom_site_occupancy
  V  V0  1  0.63651253  0.88405786  0.24586663  1
  V  V1  1  0.50805076  0.10825506  0.61700217  1
  V  V2  1  -0.00007083  0.73916328  0.75175504  1
  V  V3  1  0.37274940  0.10879957  0.76387214  1
  V  V4  1  0.24024644  0.49955114  0.74108180  1
  V  V5  1  0.01429115  0.61186812  0.09538413  1
  V  V6  1  0.25138499  0.11642191  0.37281072  1
  V  V7  1  0.51055680  0.24458851  0.25696267  1
  V  V8  1  0.24882100  0.25232531  0.49247270  1
  V  V9  1  0.12303068  0.88220735  0.22934433  1
  V  V10  1  0.88049881  0.15300205  0.23888756  1
  V  V11  1  0.48452393  0.62694034  0.61647893  1
  V  V12  1  0.00075118  0.37162111  0.40093653  1
  V  V13  1  -0.00396788  0.88178745  0.87207673  1
  V  V14  1  0.37553925  0.24491629  0.62176734  1
  V  V15  1  0.74847447  0.48847510  0.74622098  1
  V  V16  1  0.50000375  0.88178489  0.87289425  1
  V  V17  1  0.11663823  0.35717380  0.25293950  1
  V  V18  1  0.13126700  0.75967632  0.87064434  1
  V  V19  1  0.37305316  0.49788252  0.39304140  1
  V  V20  1  0.62424933  0.11999759  0.01200814  1
  V  V21  1  0.50717724  0.52967151  0.00140386  1
  V  V22  1  0.50579961  0.00114934  0.01542580  1
  V  V23  1  0.49672260  0.26037914  0.75376999  1
  V  V24  1  0.12344092  0.12660656  0.49899873  1
  V  V25  1  0.77372725  0.51279615  0.26408342  1
  V  V26  1  0.38041089  0.86269426  0.51012372  1
  V  V27  1  0.39563450  0.37226508  -0.00124458  1
  V  V28  1  0.25057242  -0.00195503  0.23662805  1
  V  V29  1  0.01373154  0.26395577  0.75742746  1
  V  V30  1  0.23116862  -0.00578114  0.75001036  1
  V  V31  1  0.25255040  0.37310999  0.12570676  1
  V  V32  1  0.00658490  0.87992248  0.37518150  1
  V  V33  1  0.50435599  0.75108039  0.24417273  1
  V  V34  1  0.36954124  0.88610855  -0.00487123  1
  V  V35  1  0.87628709  0.88073323  0.50478622  1
  V  V36  1  0.24386000  0.36998597  0.63365865  1
  V  V37  1  -0.00163308  0.12109034  0.63924709  1
  V  V38  1  0.23989562  0.76279686  0.00945507  1
  V  V39  1  0.74180078  0.87827996  0.61682223  1
  V  V40  1  0.86842461  0.37073627  0.00697816  1
  V  V41  1  0.00368723  0.00761536  0.00986468  1
  V  V42  1  0.38020322  0.75841360  0.12256871  1
  V  V43  1  0.49985344  0.37471167  0.38030901  1
  V  V44  1  0.62381404  0.51232682  0.13763615  1
  V  V45  1  0.24494280  0.24425553  -0.01021911  1
  V  V46  1  0.36917344  0.62887491  0.75207200  1
  V  V47  1  0.61546010  0.48778311  0.63877769  1
  V  V48  1  0.23555060  0.50019097  0.24346684  1
  V  V49  1  0.87194917  0.75065246  0.10552142  1
  V  V50  1  0.62623592  0.74064956  0.37599252  1
  V  V51  1  0.86799704  0.25217235  0.63721403  1
  V  V52  1  0.87712785  0.73455092  0.63294974  1
  V  V53  1  0.24575431  0.63534915  0.37162200  1
  V  V54  1  0.86648654  0.00749631  0.36597232  1
  V  V55  1  0.72872176  0.63623990  0.87952036  1
  V  V56  1  0.74367966  0.15507293  0.38585921  1
  V  V57  1  0.00613889  0.37774637  0.88144683  1
  V  V58  1  0.84584475  0.36711523  0.51034615  1
  V  V59  1  0.87195977  0.50577245  0.87707901  1
  V  V60  1  0.74393274  0.13358563  0.86323195  1
  V  V61  1  0.62782731  0.87724640  0.75214559  1
  V  V62  1  0.23688648  0.86727104  0.62261586  1
  V  V63  1  0.61685250  0.26168978  0.87428879  1
  V  V64  1  0.38463109  0.23567090  0.13346806  1
  V  V65  1  0.24018125  0.59629303  0.90678770  1
  V  V66  1  -0.00557874  0.73289189  0.24870833  1
  V  V67  1  0.85711302  -0.00583288  0.87556391  1
  V  V68  1  0.38313343  0.61454685  0.23556567  1
  V  V69  1  0.62376781  0.61127020  0.50339625  1
  V  V70  1  0.76792614  0.72400634  0.48675693  1
  V  V71  1  0.00519465  0.00370022  0.50573877  1
  V  V72  1  0.50645434  0.74603031  0.75458270  1
  Zn  Zn73  1  0.75648114  0.24461807  0.01826939  1
  Zn  Zn74  1  0.49952352  0.87096258  0.38253897  1
  Zn  Zn75  1  0.37242518  -0.00372772  0.38087144  1
  Zn  Zn76  1  0.12767761  0.74930438  0.37881195  1
  Zn  Zn77  1  0.74623904  0.37786644  0.14130940  1
  Zn  Zn78  1  0.38795747  0.48731903  0.86410056  1
  Zn  Zn79  1  0.08229444  0.55195396  0.56846067  1
  Zn  Zn80  1  0.12285225  0.12980876  -0.02065309  1
  Zn  Zn81  1  0.74693428  0.01101650  0.72766587  1
  Zn  Zn82  1  0.19653006  0.18823265  0.18524845  1
  Zn  Zn83  1  0.18690011  0.17651595  0.69136700  1
  Zn  Zn84  1  0.18222788  0.69095189  0.19027572  1
  Zn  Zn85  1  0.18047485  0.68862537  0.68565897  1
  Zn  Zn86  1  0.70035028  0.19101483  0.20063453  1
  Zn  Zn87  1  0.66067111  0.21851091  0.65308449  1
  Zn  Zn88  1  0.69512449  0.68221472  0.18775483  1
  Zn  Zn89  1  0.69015310  0.67836548  0.68819737  1
  Zn  Zn90  1  0.31890440  0.31420151  0.31155594  1
  Zn  Zn91  1  0.31897369  0.30960225  0.81218882  1
  Zn  Zn92  1  0.31669031  0.82000271  0.30991552  1
  Zn  Zn93  1  0.31339944  0.81934726  0.80862315  1
  Zn  Zn94  1  0.81829124  0.32677466  0.31607842  1
  Zn  Zn95  1  0.81763480  0.31671511  0.80877633  1
  Zn  Zn96  1  0.81672808  0.80985230  0.30896995  1
  Zn  Zn97  1  0.81297558  0.81194153  0.81295769  1
  Zn  Zn98  1  0.19064904  0.43085138  0.43566296  1
  Zn  Zn99  1  0.20275074  0.42559876  0.93401434  1
  Zn  Zn100  1  0.19126801  0.93603218  0.44797613  1
  Zn  Zn101  1  0.18168765  0.94464884  0.93372091  1
  Zn  Zn102  1  0.68379131  0.43020186  0.43277724  1
  Zn  Zn103  1  0.68563646  0.44712878  0.94563826  1
  Zn  Zn104  1  0.68712150  0.92823780  0.42673355  1
  Zn  Zn105  1  0.68311277  0.91851217  0.95137376  1
  Zn  Zn106  1  0.31320493  0.06502475  0.05696370  1
  Zn  Zn107  1  0.31998578  0.05053113  0.56724419  1
  Zn  Zn108  1  0.31226580  0.55858738  0.06036620  1
  Zn  Zn109  1  0.27804121  0.58156389  0.56994088  1
  Zn  Zn110  1  0.82625885  0.07415433  0.05174791  1
  Zn  Zn111  1  0.81446514  0.07018314  0.55958131  1
  Zn  Zn112  1  0.81192691  0.57223988  0.06799011  1
  Zn  Zn113  1  0.82358762  0.54684274  0.44977989  1
  Zn  Zn114  1  0.45219334  0.42836481  0.18006518  1
  Zn  Zn115  1  0.42836784  0.43989223  0.67482727  1
  Zn  Zn116  1  0.43761307  0.93688143  0.19253636  1
  Zn  Zn117  1  0.43427245  0.93310055  0.68195837  1
  Zn  Zn118  1  0.94443080  0.45014377  0.18994198  1
  Zn  Zn119  1  0.89924428  0.48314854  0.63671464  1
  Zn  Zn120  1  0.93331242  0.93633185  0.18506523  1
  Zn  Zn121  1  0.93243713  0.93788700  0.69471755  1
  Zn  Zn122  1  0.06160652  0.06899991  0.30935182  1
  Zn  Zn123  1  0.06604340  0.05991979  0.81589543  1
  Zn  Zn124  1  0.06891577  0.54197365  0.37251721  1
  Zn  Zn125  1  0.02569689  0.52198945  0.75199878  1
  Zn  Zn126  1  0.57580917  0.07545705  0.30699901  1
  Zn  Zn127  1  0.56366273  0.06532574  0.80491930  1
  Zn  Zn128  1  0.55734186  0.55916037  0.31663209  1
  Zn  Zn129  1  0.56137157  0.56256877  0.81731829  1
  Zn  Zn130  1  0.43905348  0.18237066  0.43526925  1
  Zn  Zn131  1  0.43674183  0.18555597  0.94155826  1
  Zn  Zn132  1  0.42990256  0.68674602  0.42983093  1
  Zn  Zn133  1  0.42487085  0.69379317  0.92940029  1
  Zn  Zn134  1  0.93324839  0.19477440  0.43964098  1
  Zn  Zn135  1  0.93263660  0.18762107  0.93238303  1
  Zn  Zn136  1  0.94862243  0.69494872  0.44073965  1
  Zn  Zn137  1  0.93873464  0.68204049  0.93540332  1
  Zn  Zn138  1  0.06603542  0.32265673  0.06012671  1
  Zn  Zn139  1  0.06362843  0.30589766  0.57209293  1
  Zn  Zn140  1  0.04397321  0.81429214  0.05975296  1
  Zn  Zn141  1  0.06112434  0.80800554  0.56581194  1
  Zn  Zn142  1  0.58821989  0.30504322  0.08173179  1
  Zn  Zn143  1  0.55277103  0.31040777  0.54833818  1
  Zn  Zn144  1  0.57198852  0.80989656  0.06088262  1
  Zn  Zn145  1  0.56183135  0.79959610  0.56164500  1
  O  O146  1  0.09409766  0.15825938  0.11937417  1
  O  O147  1  0.10783454  0.12813838  0.61446611  1
  O  O148  1  0.11240134  0.63087457  0.12634012  1
  O  O149  1  0.17224518  0.60557768  0.61320265  1
  O  O150  1  0.63028954  0.12729527  0.10998886  1
  O  O151  1  0.60757069  0.11819035  0.64054729  1
  O  O152  1  0.62704669  0.61446000  0.12363283  1
  O  O153  1  0.60968746  0.61869705  0.61722237  1
  O  O154  1  0.36741192  0.39432820  0.37669435  1
  O  O155  1  0.37642399  0.37231674  0.89391952  1
  O  O156  1  0.38240984  0.87969695  0.38091183  1
  O  O157  1  0.38354665  0.87430627  0.88829575  1
  O  O158  1  0.88202889  0.36812412  0.40832622  1
  O  O159  1  0.88221829  0.38064200  0.88263861  1
  O  O160  1  0.88427991  0.88191292  0.38592639  1
  O  O161  1  0.87941111  0.88391301  0.87761834  1
  O  O162  1  0.24441391  0.00950245  0.37252905  1
  O  O163  1  0.24692941  -0.01151579  0.85229953  1
  O  O164  1  0.26026025  0.50797842  0.35710320  1
  O  O165  1  0.25989048  0.49394746  0.85232261  1
  O  O166  1  0.76679409  -0.00260730  0.38451890  1
  O  O167  1  0.75291597  -0.00740665  0.88880177  1
  O  O168  1  0.75532316  0.49681881  0.37299545  1
  O  O169  1  0.75590640  0.50363911  0.86609625  1
  O  O170  1  0.25772475  0.48902283  0.13802922  1
  O  O171  1  0.26519599  0.47756350  0.63157069  1
  O  O172  1  0.24909353  1.01044126  0.13775154  1
  O  O173  1  0.25544556  0.98582084  0.63645926  1
  O  O174  1  0.74474450  0.50927893  0.14281456  1
  O  O175  1  0.72527476  0.49821511  0.64049226  1
  O  O176  1  0.75950821  0.97908361  0.11059537  1
  O  O177  1  0.75129336  0.98403614  0.61390637  1
  O  O178  1  0.01878713  0.36765152  0.22811941  1
  O  O179  1  0.01160567  0.36633791  0.76180311  1
  O  O180  1  0.01300109  0.88414448  0.25962022  1
  O  O181  1  -0.00749845  0.86679042  0.76506567  1
  O  O182  1  0.48408482  0.36071434  0.26486719  1
  O  O183  1  0.48096887  0.35866241  0.74959400  1
  O  O184  1  0.50431784  0.86249212  0.25614179  1
  O  O185  1  0.50855370  0.86792621  0.75053112  1
  O  O186  1  0.49434353  0.14229170  0.26662657  1
  O  O187  1  0.48738223  0.12980287  0.74278306  1
  O  O188  1  0.48706161  0.63315370  0.24946991  1
  O  O189  1  0.48988364  0.63042630  0.74767077  1
  O  O190  1  0.97881966  0.12405188  0.25625830  1
  O  O191  1  0.99912660  0.12370658  0.74054448  1
  O  O192  1  1.00492129  0.63735891  0.26397325  1
  O  O193  1  1.00138183  0.64098834  0.76025967  1
  O  O194  1  0.37313765  0.25553732  0.01042282  1
  O  O195  1  0.35984735  0.23578402  0.51454545  1
  O  O196  1  0.37003143  0.76917749  0.00496239  1
  O  O197  1  0.36928601  0.76220357  0.48821177  1
  O  O198  1  0.87068121  0.26207270  -0.00289730  1
  O  O199  1  0.87835681  0.25829172  0.52266645  1
  O  O200  1  0.88290535  0.75365515  0.00357486  1
  O  O201  1  0.87958306  0.76672840  0.51704426  1
  O  O202  1  0.14063509  0.24023702  0.50688173  1
  O  O203  1  0.14179612  0.25584259  1.00067552  1
  O  O204  1  0.09886839  0.72259007  0.49573346  1
  O  O205  1  0.13620609  0.76364379  0.99554627  1
  O  O206  1  0.64246616  0.24832461  0.54433973  1
  O  O207  1  0.61335061  0.23248441  0.98429295  1
  O  O208  1  0.63618078  0.73604897  0.49323994  1
  O  O209  1  0.66154414  0.81766190  0.99552589  1
  O  O210  1  0.49272488  0.25617094  0.14068797  1
  O  O211  1  0.48706623  0.24442542  0.63587136  1
  O  O212  1  0.49345961  0.75442689  0.12971284  1
  O  O213  1  0.49887431  0.73349110  0.63736133  1
  O  O214  1  1.03781175  0.21108874  0.12199868  1
  O  O215  1  0.99645814  0.24073440  0.64011208  1
  O  O216  1  0.99830599  0.73807453  0.13504432  1
  O  O217  1  0.99018037  0.75658343  0.64196274  1
  O  O218  1  -0.00402415  0.27002051  0.37908654  1
  O  O219  1  -0.00426287  0.26237377  0.86671077  1
  O  O220  1  0.00071761  0.76433434  0.36277656  1
  O  O221  1  0.00529786  0.75917435  0.86873762  1
  O  O222  1  0.48417841  0.26172576  0.36698696  1
  O  O223  1  0.50616319  0.24399694  0.86444828  1
  O  O224  1  0.50938685  0.74331671  0.36305353  1
  O  O225  1  0.49559336  0.76292322  0.86488462  1
  O  O226  1  0.24157417  0.12738122  0.49472337  1
  O  O227  1  0.24380504  0.13877743  1.00662327  1
  O  O228  1  0.25826854  0.63256442  0.46953601  1
  O  O229  1  0.26849842  0.66071062  0.99366115  1
  O  O230  1  0.75877585  0.13060560  0.48532498  1
  O  O231  1  0.73682359  0.12705809  0.99163270  1
  O  O232  1  0.72960759  0.62143622  0.51291696  1
  O  O233  1  0.75333911  0.61503404  0.97778204  1
  O  O234  1  0.26252848  0.36366619  0.01024512  1
  O  O235  1  0.24886823  0.35717703  0.50736836  1
  O  O236  1  0.26185389  0.87805755  -0.00212742  1
  O  O237  1  0.25901550  0.87339733  0.51308116  1
  O  O238  1  0.76244933  0.37341480  -0.00516686  1
  O  O239  1  0.74610145  0.36511911  0.50562674  1
  O  O240  1  0.75623891  0.91577091  0.07156469  1
  O  O241  1  0.75675143  0.86570917  0.50583368  1
  O  O242  1  0.13716937  0.49214730  0.24979722  1
  O  O243  1  0.14246787  0.49960661  0.75007865  1
  O  O244  1  0.13171813  0.99075581  0.25314470  1
  O  O245  1  0.13105256  0.99949338  0.74139954  1
  O  O246  1  0.61506611  0.50047782  0.23960187  1
  O  O247  1  0.61957524  0.49555263  0.74432467  1
  O  O248  1  0.61903556  0.98304204  0.26251158  1
  O  O249  1  0.62822082  0.98163700  0.74558598  1
  O  O250  1  0.35555969  -0.01029186  0.25632942  1
  O  O251  1  0.38064078  0.00723247  0.75414168  1
  O  O252  1  0.37848873  0.51184205  0.23922200  1
  O  O253  1  0.37323755  0.51178596  0.74912986  1
  O  O254  1  0.87533654  -0.00548780  0.26606829  1
  O  O255  1  0.85977084  -0.00407856  0.76698859  1
  O  O256  1  0.87338890  0.51711619  0.25125876  1
  O  O257  1  0.85522087  0.49430448  0.74872709  1
  O  O258  1  0.11553611  0.37538703  0.36063524  1
  O  O259  1  0.10554040  0.38963881  0.89148569  1
  O  O260  1  0.11355845  0.87285043  0.38544542  1
  O  O261  1  0.10905134  0.86931813  0.87518656  1
  O  O262  1  0.59998598  0.38287791  0.37547764  1
  O  O263  1  0.62468824  0.35863040  0.88751567  1
  O  O264  1  0.61825166  0.85609759  0.36905767  1
  O  O265  1  0.62054278  0.87084687  0.85497786  1
  O  O266  1  0.38130539  0.13683603  0.11807037  1
  O  O267  1  0.38024601  0.13081183  0.63414573  1
  O  O268  1  0.36839897  0.63805214  0.13150599  1
  O  O269  1  0.38013211  0.62158436  0.63080520  1
  O  O270  1  0.86160600  0.13294611  0.13929751  1
  O  O271  1  0.89072097  0.13594070  0.62039390  1
  O  O272  1  0.90028825  0.63516043  0.11161736  1
  O  O273  1  0.87796354  0.63867343  0.62110039  1
  O  O274  1  0.26524613  0.25403413  0.11830366  1
  O  O275  1  0.25748036  0.25143793  0.62429045  1
  O  O276  1  0.25588915  0.75725954  0.11421396  1
  O  O277  1  0.24943429  0.76699637  0.63838001  1
  O  O278  1  0.70845287  0.26869701  0.11811018  1
  O  O279  1  0.77146822  0.23774155  0.65428560  1
  O  O280  1  0.77300989  0.73542358  0.12601843  1
  O  O281  1  0.76288542  0.75143701  0.61451249  1
  O  O282  1  0.25870613  0.24034497  0.38786022  1
  O  O283  1  0.25763185  0.25460540  0.89070666  1
  O  O284  1  0.24788154  0.73908475  0.35251762  1
  O  O285  1  0.23908023  0.77098715  0.88564673  1
  O  O286  1  0.75406987  0.25536967  0.38050578  1
  O  O287  1  0.73554416  0.24146902  0.86738205  1
  O  O288  1  0.74057645  0.75460651  0.38462539  1
  O  O289  1  0.75373717  0.73429352  0.86592786  1
  O  O290  1  0.00086872  0.11351307  -0.01344065  1
  O  O291  1  0.00524523  0.12060275  0.50287849  1
  O  O292  1  0.01893789  0.62448802  -0.00570373  1
  O  O293  1  0.04053394  0.65860871  0.50026120  1
  O  O294  1  0.50868805  0.10896896  -0.00549598  1
  O  O295  1  0.49845460  0.13359389  0.51784059  1
  O  O296  1  0.48671296  0.62815305  0.00260667  1
  O  O297  1  0.50173111  0.63291330  0.51172122  1
  O  O298  1  0.48279988  0.36593229  0.48207537  1
  O  O299  1  0.49354760  0.36149456  1.00859566  1
  O  O300  1  0.48990162  0.86397899  0.50223451  1
  O  O301  1  0.49408320  0.88614653  0.99368534  1
  O  O302  1  1.01331349  0.37917122  0.50130025  1
  O  O303  1  0.98716812  0.36976057  0.99083625  1
  O  O304  1  0.99351186  0.88340366  0.49853094  1
  O  O305  1  1.00142981  0.89110510  0.98445746  1
  O  O306  1  0.48065872  0.49277954  0.37432815  1
  O  O307  1  0.49708840  0.50642037  0.89518762  1
  O  O308  1  0.53659373  1.00272047  0.40923025  1
  O  O309  1  0.50827151  0.98566126  0.87775481  1
  O  O310  1  0.98645019  0.46814757  0.35790278  1
  O  O311  1  0.98196158  0.48552647  0.85493881  1
  O  O312  1  0.99117239  0.99602395  0.38570654  1
  O  O313  1  0.98891377  0.99027528  0.86978276  1
  O  O314  1  -0.01014383  0.00250140  0.10876842  1
  O  O315  1  -0.01164687  0.01155397  0.61931332  1
  O  O316  1  0.00396409  0.51202662  0.11371810  1
  O  O317  1  0.00695059  0.51342378  0.64187638  1
  O  O318  1  0.49992432  -0.00284898  0.11447511  1
  O  O319  1  0.49585538  0.00824753  0.62246647  1
  O  O320  1  0.50956949  0.50212700  0.11221941  1
  O  O321  1  0.50318511  0.51748048  0.63057518  1
  O  O322  1  0.24612433  0.38489246  0.24748131  1
  O  O323  1  0.25786958  0.38106537  0.74182307  1
  O  O324  1  0.23365581  0.88554371  0.25026199  1
  O  O325  1  0.25453360  0.88459225  0.73704061  1
  O  O326  1  0.76073321  0.40089844  0.25307420  1
  O  O327  1  0.73974617  0.38735465  0.76053550  1
  O  O328  1  0.73725639  0.87140393  0.25805069  1
  O  O329  1  0.73986127  0.86803696  0.73406789  1
  O  O330  1  0.23829676  0.11244549  0.26324245  1
  O  O331  1  0.26299666  0.10719845  0.74137272  1
  O  O332  1  0.26032859  0.61383320  0.24508824  1
  O  O333  1  0.25784738  0.61046888  0.74484411  1
  O  O334  1  0.76939494  0.13422011  0.27067164  1
  O  O335  1  0.73594259  0.11849303  0.76422987  1
  O  O336  1  0.74186811  0.61124462  0.26544549  1
  O  O337  1  0.73800699  0.60704849  0.76369552  1
  O  O338  1  0.35655224  0.11669676  0.38209434  1
  O  O339  1  0.37699288  0.12575199  0.86305525  1
  O  O340  1  0.36784298  0.61602899  0.35579214  1
  O  O341  1  0.35091228  0.62006193  0.87150082  1
  O  O342  1  0.87153304  0.11679288  0.37287835  1
  O  O343  1  0.85054331  0.11541959  0.87901403  1
  O  O344  1  0.84558073  0.65509870  0.43132678  1
  O  O345  1  0.87786545  0.60713801  0.87101841  1
  O  O346  1  0.14416419  0.36829309  0.13394782  1
  O  O347  1  0.14441803  0.36792135  0.62788548  1
  O  O348  1  0.11569293  0.87917596  0.13099703  1
  O  O349  1  0.13528892  0.87625334  0.61456295  1
  O  O350  1  0.63536827  0.40653055  0.10575811  1
  O  O351  1  0.59821792  0.39146910  0.62332531  1
  O  O352  1  0.61916983  0.87146835  0.14758647  1
  O  O353  1  0.63799713  0.86553054  0.62422207  1
  O  O354  1  0.13731122  0.25895111  0.25362118  1
  O  O355  1  0.11271575  0.24262255  0.74902515  1
  O  O356  1  0.11404967  0.76922928  0.25056725  1
  O  O357  1  0.11308958  0.74962659  0.75902811  1
  O  O358  1  0.60962922  0.25048618  0.25181460  1
  O  O359  1  0.60673970  0.25123370  0.75808291  1
  O  O360  1  0.61932089  0.74624138  0.25754046  1
  O  O361  1  0.61435211  0.75781829  0.73975313  1
  O  O362  1  0.37005174  0.24529052  0.23610027  1
  O  O363  1  0.37892784  0.23594121  0.74365508  1
  O  O364  1  0.38274302  0.74696657  0.23901586  1
  O  O365  1  0.38160316  0.73636720  0.75871191  1
  O  O366  1  0.87863514  0.25381266  0.24700573  1
  O  O367  1  0.89469804  0.25460304  0.74495832  1
  O  O368  1  0.89170724  0.74942729  0.24945543  1
  O  O369  1  0.88317926  0.75089683  0.74099578  1
  O  O370  1  0.36029079  0.51205830  0.48937753  1
  O  O371  1  0.39120430  0.48551604  1.00782942  1
  O  O372  1  0.37410170  0.98021214  0.49596600  1
  O  O373  1  0.38596827  0.99236793  1.00318354  1
  O  O374  1  0.86539602  0.47417378  0.52507096  1
  O  O375  1  0.87077802  0.48992513  0.98168992  1
  O  O376  1  0.88473594  0.99454678  0.49476674  1
  O  O377  1  0.88746228  1.00495503  0.98289198  1
  O  O378  1  0.11148738  0.00786603  -0.00280232  1
  O  O379  1  0.11174681  0.00838559  0.49918870  1
  O  O380  1  0.21384184  0.53156441  -0.01583624  1
  O  O381  1  0.12127454  0.50948352  0.47163489  1
  O  O382  1  0.61547501  0.00646245  0.00047138  1
  O  O383  1  0.59154097  -0.00147276  0.46432641  1
  O  O384  1  0.61074926  0.51516500  -0.00007415  1
  O  O385  1  0.62247781  0.50806237  0.50971595  1
  O  O386  1  0.37019896  0.36545268  0.11746626  1
  O  O387  1  0.36757647  0.35228997  0.62614081  1
  O  O388  1  0.37970801  0.86923915  0.11189976  1
  O  O389  1  0.37169638  0.86604591  0.61512486  1
  O  O390  1  0.87416618  0.38783532  0.10840601  1
  O  O391  1  0.87240822  0.36095137  0.62229824  1
  O  O392  1  0.88903782  0.85158965  0.12728592  1
  O  O393  1  0.86346153  0.87479356  0.62001279  1
  O  O394  1  0.13435793  0.12371210  0.38770909  1
  O  O395  1  0.12945013  0.13325600  0.86654729  1
  O  O396  1  0.14191700  0.62778180  0.35403414  1
  O  O397  1  0.15513836  0.64042924  0.87457829  1
  O  O398  1  0.64484024  0.13567023  0.37271334  1
  O  O399  1  0.63255699  0.12502224  0.88135102  1
  O  O400  1  0.61315333  0.62623568  0.39358794  1
  O  O401  1  0.62679270  0.63438279  0.87742828  1
