# generated using pymatgen
data_V73Zn73O256
_symmetry_space_group_name_H-M   'P 1'
_cell_length_a   16.99310295
_cell_length_b   16.91062905
_cell_length_c   16.88173444
_cell_angle_alpha   89.87543915
_cell_angle_beta   89.87990475
_cell_angle_gamma   90.57190142
_symmetry_Int_Tables_number   1
_chemical_formula_structural   V73Zn73O256
_chemical_formula_sum   'V73 Zn73 O256'
_cell_volume   4850.93974842
_cell_formula_units_Z   1
loop_
 _symmetry_equiv_pos_site_id
 _symmetry_equiv_pos_as_xyz
  1  'x, y, z'
loop_
 _atom_site_type_symbol
 _atom_site_label
 _atom_site_symmetry_multiplicity
 _atom_site_fract_x
 _atom_site_fract_y
 _atom_site_fract_z
 _atom_site_occupancy
  V  V0  1  0.12562993  0.25407293  0.85826797  1
  V  V1  1  0.62533143  0.13384548  0.50110714  1
  V  V2  1  -0.00959643  0.37352882  0.88628338  1
  V  V3  1  0.10139424  0.74323257  0.35601583  1
  V  V4  1  0.81666872  0.04707550  0.33061959  1
  V  V5  1  0.24394715  0.24562904  -0.00125672  1
  V  V6  1  0.10533853  0.11145999  -0.00218973  1
  V  V7  1  0.74965807  0.49270223  0.75395685  1
  V  V8  1  0.62446285  0.75961448  0.37464832  1
  V  V9  1  0.25500164  0.63931893  0.37689840  1
  V  V10  1  0.87032750  0.50057801  0.88991461  1
  V  V11  1  0.63024257  -0.01777337  0.15037856  1
  V  V12  1  0.50493984  0.50283775  -0.00494291  1
  V  V13  1  0.85343380  0.78944519  0.16211557  1
  V  V14  1  -0.05969394  0.63456649  0.14411461  1
  V  V15  1  0.13107688  0.51475442  0.10657121  1
  V  V16  1  -0.00357308  0.88181939  0.88285165  1
  V  V17  1  0.87154226  0.76043672  0.62441926  1
  V  V18  1  0.11566456  0.41838932  0.75129076  1
  V  V19  1  0.50178868  0.86678302  0.86325234  1
  V  V20  1  0.49263649  0.00254638  0.50055338  1
  V  V21  1  0.25519784  0.50600966  0.24532088  1
  V  V22  1  0.51106212  0.76016113  0.24414897  1
  V  V23  1  0.13356394  0.62986351  0.51214462  1
  V  V24  1  0.50363956  0.37806031  0.36705756  1
  V  V25  1  0.86079538  -0.00982438  0.86989716  1
  V  V26  1  -0.00289274  0.50002981  0.47809993  1
  V  V27  1  0.11852726  0.37985103  0.25445957  1
  V  V28  1  0.15334549  0.13794688  0.50592929  1
  V  V29  1  0.63177067  0.23995771  0.88862705  1
  V  V30  1  0.12428162  0.87345917  0.72613207  1
  V  V31  1  0.86743711  0.61815965  0.75077764  1
  V  V32  1  0.37653921  0.37541457  -0.00293964  1
  V  V33  1  0.62940503  -0.00557687  0.62853299  1
  V  V34  1  0.63012643  0.62646470  0.50207260  1
  V  V35  1  0.62192807  0.36050790  0.74413975  1
  V  V36  1  0.49502465  0.63722678  0.63534750  1
  V  V37  1  -0.00059174  0.75618809  0.74858334  1
  V  V38  1  0.62734839  0.24722118  0.36953779  1
  V  V39  1  0.36800708  0.00124720  0.87277366  1
  V  V40  1  0.38030705  0.63126013  0.24467153  1
  V  V41  1  0.76002223  0.36107720  0.61522073  1
  V  V42  1  0.37148103  0.50575457  0.85514607  1
  V  V43  1  -0.00125875  0.61406071  0.62904846  1
  V  V44  1  0.35806323  0.87658932  -0.00015025  1
  V  V45  1  0.36642537  0.36815726  0.49510083  1
  V  V46  1  0.50008149  0.36179646  0.86997053  1
  V  V47  1  0.47850264  0.13892201  0.63337613  1
  V  V48  1  0.51075789  0.63210114  0.11423178  1
  V  V49  1  0.21323957  0.66704432  0.88887259  1
  V  V50  1  0.37336268  0.01145560  0.35686084  1
  V  V51  1  0.75295221  0.76520777  0.50426550  1
  V  V52  1  0.62141008  0.49477133  0.13294191  1
  V  V53  1  0.35369910  0.75762932  0.62729220  1
  V  V54  1  0.51338682  0.00450161  -0.00175747  1
  V  V55  1  0.16939671  -0.06326397  0.19167261  1
  V  V56  1  0.24550628  -0.00539527  0.73862628  1
  V  V57  1  0.75495878  0.61613135  0.36312805  1
  V  V58  1  0.25750571  0.13959104  0.35295486  1
  V  V59  1  0.78090090  0.32953839  0.11951438  1
  V  V60  1  0.24998471  0.12184057  0.86863973  1
  V  V61  1  0.37273416  0.23382171  0.12549785  1
  V  V62  1  -0.00317769  0.23336248  0.24607150  1
  V  V63  1  0.50235190  0.50584040  0.50049415  1
  V  V64  1  0.26903951  0.37883107  0.65298678  1
  V  V65  1  0.01076904  0.00948508  0.51888232  1
  V  V66  1  0.25385868  0.37678001  0.12341878  1
  V  V67  1  0.84668976  0.12456056  0.73166287  1
  V  V68  1  0.38014517  0.50768256  0.37362442  1
  V  V69  1  0.49637291  0.87962228  0.37419123  1
  V  V70  1  0.36759780  0.75299554  0.11448146  1
  V  V71  1  0.49281154  0.24123957  0.24866067  1
  V  V72  1  0.04592757  0.14153611  0.64700015  1
  Zn  Zn73  1  0.52193929  0.13040066  0.11398041  1
  Zn  Zn74  1  -0.03896282  0.32766402  0.42839153  1
  Zn  Zn75  1  0.73905188  0.10942144  0.87973530  1
  Zn  Zn76  1  0.33772006  0.86596294  0.49457116  1
  Zn  Zn77  1  0.90205334  0.24870555  0.60437392  1
  Zn  Zn78  1  0.13392170  0.26485879  0.38055003  1
  Zn  Zn79  1  0.62843596  0.49980785  0.62709168  1
  Zn  Zn80  1  0.64558387  0.37824164  0.25084974  1
  Zn  Zn81  1  0.79961779  0.21158269  0.44485742  1
  Zn  Zn82  1  0.16996721  0.18611392  0.18157939  1
  Zn  Zn83  1  0.23540453  0.20887304  0.68437914  1
  Zn  Zn84  1  0.15339140  0.73769071  0.14625798  1
  Zn  Zn85  1  0.18743429  0.68194680  0.70167069  1
  Zn  Zn86  1  0.73750356  0.11387706  0.13749107  1
  Zn  Zn87  1  0.67468217  0.18308450  0.68246860  1
  Zn  Zn88  1  0.70691225  0.69432611  0.17237236  1
  Zn  Zn89  1  0.68837404  0.68498537  0.68708191  1
  Zn  Zn90  1  0.31776664  0.31852415  0.30951989  1
  Zn  Zn91  1  0.30547697  0.32113033  0.81290983  1
  Zn  Zn92  1  0.31692432  0.82081589  0.29751453  1
  Zn  Zn93  1  0.31154591  0.81128208  0.80767196  1
  Zn  Zn94  1  0.78746300  0.22130703  0.26014483  1
  Zn  Zn95  1  0.81279595  0.30440303  0.81034541  1
  Zn  Zn96  1  0.79321098  0.84287912  0.32991052  1
  Zn  Zn97  1  0.81575456  0.79658625  0.82614595  1
  Zn  Zn98  1  0.18539190  0.45404146  0.44008831  1
  Zn  Zn99  1  0.19019160  0.43542946  0.92855396  1
  Zn  Zn100  1  0.19204342  0.92960588  0.36801184  1
  Zn  Zn101  1  0.17653595  0.92698374  0.93479096  1
  Zn  Zn102  1  0.69071600  0.43662669  0.43841325  1
  Zn  Zn103  1  0.69325656  0.41915601  0.94700865  1
  Zn  Zn104  1  0.69313879  0.95133639  0.43082528  1
  Zn  Zn105  1  0.67544954  0.92882946  0.80025096  1
  Zn  Zn106  1  0.29261709  0.05248995  0.06516813  1
  Zn  Zn107  1  0.31155393  0.05461588  0.55339740  1
  Zn  Zn108  1  0.31275679  0.56852906  0.04890409  1
  Zn  Zn109  1  0.31315007  0.56169683  0.57120373  1
  Zn  Zn110  1  0.82542018  -0.03885632  0.07602504  1
  Zn  Zn111  1  0.81358846  0.05203971  0.54753087  1
  Zn  Zn112  1  0.81455292  0.55827800  0.08612879  1
  Zn  Zn113  1  0.81502115  0.55224906  0.56177271  1
  Zn  Zn114  1  0.44169567  0.43816594  0.18276624  1
  Zn  Zn115  1  0.44431086  0.43271863  0.68005005  1
  Zn  Zn116  1  0.44042971  0.93801736  0.17908054  1
  Zn  Zn117  1  0.42979560  0.93464661  0.68084619  1
  Zn  Zn118  1  0.94211265  0.43397327  0.16255019  1
  Zn  Zn119  1  0.93637661  0.42675415  0.69331056  1
  Zn  Zn120  1  0.96602442  0.95840654  0.21178999  1
  Zn  Zn121  1  0.94148671  0.95598400  0.66958658  1
  Zn  Zn122  1  0.06759102  0.06502717  0.32901249  1
  Zn  Zn123  1  0.06568965  0.05155308  0.81396930  1
  Zn  Zn124  1  0.06433678  0.57351632  0.29993396  1
  Zn  Zn125  1  0.04487094  0.57828819  0.83653382  1
  Zn  Zn126  1  0.56620556  0.06447122  0.30866557  1
  Zn  Zn127  1  0.55084666  0.06562520  0.80834438  1
  Zn  Zn128  1  0.56995811  0.57269459  0.31024572  1
  Zn  Zn129  1  0.55593632  0.54810532  0.80666716  1
  Zn  Zn130  1  0.43670551  0.18809922  0.43978543  1
  Zn  Zn131  1  0.43405943  0.18380437  0.93759196  1
  Zn  Zn132  1  0.43732056  0.69474406  0.44443060  1
  Zn  Zn133  1  0.43332638  0.68644510  0.92968395  1
  Zn  Zn134  1  0.96257823  0.16243032  0.43273544  1
  Zn  Zn135  1  0.95196071  0.17020323  0.87369129  1
  Zn  Zn136  1  0.93303436  0.67946074  0.44234011  1
  Zn  Zn137  1  1.06978892  0.66536364  1.00975736  1
  Zn  Zn138  1  0.06082371  0.31022346  0.06167436  1
  Zn  Zn139  1  0.08602461  0.32063213  0.57280246  1
  Zn  Zn140  1  0.02394541  0.84077963  0.08874310  1
  Zn  Zn141  1  0.13716509  0.85001435  0.51082419  1
  Zn  Zn142  1  0.56268223  0.31124507  0.06275171  1
  Zn  Zn143  1  0.55368312  0.31355717  0.55872181  1
  Zn  Zn144  1  0.56045073  0.82017282  0.04330148  1
  Zn  Zn145  1  0.55887351  0.81633141  0.55982901  1
  O  O146  1  0.11780410  0.13678884  0.09586438  1
  O  O147  1  0.15041996  0.15196967  0.62484447  1
  O  O148  1  0.13884900  0.61591634  0.11383971  1
  O  O149  1  0.11761614  0.63336455  0.61694665  1
  O  O150  1  0.62473641  0.09194197  0.13125381  1
  O  O151  1  0.60586065  0.12117688  0.61172919  1
  O  O152  1  0.61331154  0.62416571  0.12861390  1
  O  O153  1  0.61724990  0.62282144  0.61677531  1
  O  O154  1  0.38644100  0.39058682  0.37632943  1
  O  O155  1  0.38288457  0.37350848  0.88130334  1
  O  O156  1  0.38379406  0.88892762  0.37322423  1
  O  O157  1  0.37496679  0.88143352  0.88617990  1
  O  O158  1  0.86345277  0.39007889  0.36461278  1
  O  O159  1  0.88428460  0.37753848  0.87431852  1
  O  O160  1  0.90658549  0.87330450  0.40737286  1
  O  O161  1  0.88342728  0.88672907  0.84134059  1
  O  O162  1  0.27051339  0.02216432  0.37038098  1
  O  O163  1  0.25144542  0.00584147  0.87371261  1
  O  O164  1  0.26483643  0.51438599  0.36372746  1
  O  O165  1  0.27510588  0.49098581  0.87877820  1
  O  O166  1  0.78288549  0.02576378  0.43742183  1
  O  O167  1  0.75763802  -0.00965925  0.84979943  1
  O  O168  1  0.73489003  0.51597683  0.37213153  1
  O  O169  1  0.75965360  0.47461346  0.86403554  1
  O  O170  1  0.25607280  0.49752004  0.12751498  1
  O  O171  1  0.25761703  0.47730530  0.62224654  1
  O  O172  1  0.22199804  1.00909892  0.14081579  1
  O  O173  1  0.25735758  1.00091850  0.64080813  1
  O  O174  1  0.71590512  0.51087784  0.10775245  1
  O  O175  1  0.74889588  0.48143035  0.63374643  1
  O  O176  1  0.73413271  0.99131711  0.13223839  1
  O  O177  1  0.72669629  1.01013590  0.61399033  1
  O  O178  1  0.01936595  0.38552932  0.24885236  1
  O  O179  1  0.00975058  0.38906669  0.77265650  1
  O  O180  1  -0.03599000  0.88924653  0.36486356  1
  O  O181  1  0.01406759  0.87482098  0.73006916  1
  O  O182  1  0.49721774  0.37203448  0.26011180  1
  O  O183  1  0.51437499  0.37763263  0.75562809  1
  O  O184  1  0.49263233  0.86650055  0.25889265  1
  O  O185  1  0.48621501  0.88333686  0.76451332  1
  O  O186  1  0.50197236  0.13972511  0.24780660  1
  O  O187  1  0.49083840  0.12389575  0.73287739  1
  O  O188  1  0.49370116  0.63689481  0.24143148  1
  O  O189  1  0.50881372  0.61979832  0.73328492  1
  O  O190  1  1.02302139  0.13539610  0.24894945  1
  O  O191  1  1.01987956  0.13465312  0.74902691  1
  O  O192  1  1.00721576  0.62775071  0.21989152  1
  O  O193  1  0.98928807  0.63595721  0.74806404  1
  O  O194  1  0.36673642  0.25683549  0.00533098  1
  O  O195  1  0.37581415  0.26968852  0.48916987  1
  O  O196  1  0.38154263  0.76162214  0.00744953  1
  O  O197  1  0.37806706  0.75654255  0.51418617  1
  O  O198  1  0.84185118  0.13119992  0.01876644  1
  O  O199  1  0.89526242  0.25230511  0.48805605  1
  O  O200  1  0.83247397  0.66892462  0.13208424  1
  O  O201  1  0.86329148  0.74706775  0.51141450  1
  O  O202  1  0.12259805  0.24271476  0.49329321  1
  O  O203  1  0.13829018  0.25664275  0.98767191  1
  O  O204  1  0.12149878  0.72858770  0.48427093  1
  O  O205  1  0.09800282  0.76466103  1.04994914  1
  O  O206  1  0.60900879  0.24444108  0.48295938  1
  O  O207  1  0.61543049  0.24512259  0.98808091  1
  O  O208  1  0.63485585  0.74551892  0.49756006  1
  O  O209  1  0.65224212  0.75283440  1.00022957  1
  O  O210  1  0.49001989  0.24515276  0.12856344  1
  O  O211  1  0.49494258  0.23880227  0.61994672  1
  O  O212  1  0.49996959  0.74771838  0.12553298  1
  O  O213  1  0.50646346  0.73839045  0.62501099  1
  O  O214  1  1.01307420  0.25956242  0.14768048  1
  O  O215  1  1.01368377  0.24390932  0.63466488  1
  O  O216  1  0.94975650  0.75176227  0.13198534  1
  O  O217  1  0.97819527  0.73617714  0.63332200  1
  O  O218  1  0.01507015  0.25096179  0.36160626  1
  O  O219  1  0.01212697  0.26642012  0.87278748  1
  O  O220  1  0.00325691  0.72325443  0.36417073  1
  O  O221  1  -0.02062932  0.77177354  0.84885178  1
  O  O222  1  0.49957421  0.26072291  0.36688808  1
  O  O223  1  0.50334740  0.25699677  0.87654695  1
  O  O224  1  0.50436499  0.75912520  0.36752797  1
  O  O225  1  0.49460388  0.76663590  0.87964068  1
  O  O226  1  0.25557734  0.13738214  0.49815018  1
  O  O227  1  0.24084179  0.13326747  0.99050821  1
  O  O228  1  0.23938354  0.61654201  0.49380651  1
  O  O229  1  0.26630570  0.63170623  0.96966604  1
  O  O230  1  0.72526855  0.14516530  0.50947131  1
  O  O231  1  0.76199382  0.12309735  1.00258680  1
  O  O232  1  0.73848588  0.62511772  0.49629917  1
  O  O233  1  0.67780116  0.61402966  0.91332310  1
  O  O234  1  0.26050738  0.36661696  0.00360989  1
  O  O235  1  0.27043061  0.38791237  0.47636034  1
  O  O236  1  0.25997543  0.87493960  -0.00461779  1
  O  O237  1  0.23345689  0.89636165  0.47133088  1
  O  O238  1  0.73461427  0.35805003  0.03240329  1
  O  O239  1  0.74779552  0.37647939  0.51500686  1
  O  O240  1  0.68994123  0.78226369  -0.06304204  1
  O  O241  1  0.74740828  0.86284933  0.49939833  1
  O  O242  1  0.14385013  0.49785206  0.23905111  1
  O  O243  1  0.11632801  0.51633698  0.77023839  1
  O  O244  1  0.12340542  0.97977926  0.28609070  1
  O  O245  1  0.13648827  0.98707476  0.74941880  1
  O  O246  1  0.61712933  0.49931112  0.23790512  1
  O  O247  1  0.63433020  0.48427782  0.75140951  1
  O  O248  1  0.61333746  0.98157918  0.25076641  1
  O  O249  1  0.61844941  1.00426702  0.73417143  1
  O  O250  1  0.38770851  0.00300633  0.25842190  1
  O  O251  1  0.35661663  -0.01163256  0.76417516  1
  O  O252  1  0.37747913  0.51086066  0.25348387  1
  O  O253  1  0.37798346  0.48322067  0.75626953  1
  O  O254  1  0.89652292  0.00998146  0.27927831  1
  O  O255  1  0.87900658  0.02385585  0.73935449  1
  O  O256  1  0.87015468  0.43908446  0.30977109  1
  O  O257  1  0.86440983  0.49911755  0.75425282  1
  O  O258  1  0.13885298  0.38684414  0.35685700  1
  O  O259  1  0.11805360  0.37322633  0.86567137  1
  O  O260  1  0.11263289  0.84098413  0.38414732  1
  O  O261  1  0.09924271  0.87990074  0.86503059  1
  O  O262  1  0.61736592  0.36831977  0.37437464  1
  O  O263  1  0.61812368  0.36164256  0.86769119  1
  O  O264  1  0.61528879  0.86506030  0.38330989  1
  O  O265  1  0.59977587  0.88712985  0.87473601  1
  O  O266  1  0.36345193  0.13495752  0.11686063  1
  O  O267  1  0.38022635  0.12328140  0.61742809  1
  O  O268  1  0.38855981  0.63495295  0.12600779  1
  O  O269  1  0.38949078  0.63511454  0.61844380  1
  O  O270  1  0.85933116  0.09764045  0.08845060  1
  O  O271  1  0.85635804  0.13979706  0.62774962  1
  O  O272  1  0.89257851  0.53663431  0.16597666  1
  O  O273  1  0.87809900  0.62301326  0.63512366  1
  O  O274  1  0.25552118  0.25820533  0.11675546  1
  O  O275  1  0.20943464  0.31679231  0.60220672  1
  O  O276  1  0.27327842  0.73442229  0.12551811  1
  O  O277  1  0.25510863  0.73674703  0.62435981  1
  O  O278  1  0.76553878  0.22653187  0.14333300  1
  O  O279  1  0.73738736  0.26315373  0.62535428  1
  O  O280  1  0.75353788  0.79379030  0.13642677  1
  O  O281  1  0.75805577  0.74403989  0.61249737  1
  O  O282  1  0.25854756  0.24332342  0.36981647  1
  O  O283  1  0.24757821  0.24359810  0.88126624  1
  O  O284  1  0.26627351  0.73859240  0.36802300  1
  O  O285  1  0.23545103  0.76593844  0.88194615  1
  O  O286  1  0.73064508  0.25561672  0.36206273  1
  O  O287  1  0.73308932  0.25015306  0.87838043  1
  O  O288  1  0.74124702  0.74865028  0.38974151  1
  O  O289  1  0.76579297  0.75820229  0.92999266  1
  O  O290  1  0.01017123  0.13130481  -0.02757906  1
  O  O291  1  0.02014487  0.13251347  0.53496361  1
  O  O292  1  -0.02416680  0.61719417  0.05094843  1
  O  O293  1  0.00744173  0.61645731  0.51046224  1
  O  O294  1  0.49059466  0.10944259  0.00078259  1
  O  O295  1  0.50145649  0.11896442  0.50461674  1
  O  O296  1  0.49440131  0.61655988  0.00428821  1
  O  O297  1  0.51108165  0.62196570  0.50373386  1
  O  O298  1  0.49279837  0.38810140  0.48772167  1
  O  O299  1  0.49040087  0.37764003  0.99150795  1
  O  O300  1  0.50155841  0.88744555  0.48575453  1
  O  O301  1  0.48610168  0.89039187  0.98713849  1
  O  O302  1  1.02053514  0.39644108  0.49684777  1
  O  O303  1  1.00801915  0.37490758  0.98563674  1
  O  O304  1  1.03927854  0.91349192  0.51522939  1
  O  O305  1  0.98401457  0.87206350  0.97994823  1
  O  O306  1  0.49791649  0.50037097  0.37778280  1
  O  O307  1  0.49232984  0.48413705  0.87865882  1
  O  O308  1  0.49317750  0.99881232  0.37887255  1
  O  O309  1  0.48218616  1.00166154  0.88197289  1
  O  O310  1  1.00215997  0.51223359  0.37818519  1
  O  O311  1  0.97793395  0.49351572  0.88554318  1
  O  O312  1  0.99672607  1.04398975  0.41828426  1
  O  O313  1  0.98244030  0.98910314  0.86464382  1
  O  O314  1  0.05550289  -0.07190351  0.15858263  1
  O  O315  1  0.02967470  0.03338956  0.63561893  1
  O  O316  1  0.03738720  0.48482736  0.12021474  1
  O  O317  1  -0.00847973  0.51400414  0.63336451  1
  O  O318  1  0.50672216  0.00057678  0.11049096  1
  O  O319  1  0.50018641  0.00649094  0.61306487  1
  O  O320  1  0.50402958  0.51238734  0.11547623  1
  O  O321  1  0.50139936  0.51039538  0.61216432  1
  O  O322  1  0.25871381  0.39158216  0.24023402  1
  O  O323  1  0.22357203  0.39386377  0.75254661  1
  O  O324  1  0.24203358  0.89399336  0.26406015  1
  O  O325  1  0.23445253  0.88510759  0.75737327  1
  O  O326  1  0.75054612  0.37010265  0.20942702  1
  O  O327  1  0.73873727  0.37340996  0.74145110  1
  O  O328  1  0.75643214  0.94619389  0.32761680  1
  O  O329  1  0.71961342  0.82637128  0.76184593  1
  O  O330  1  0.24416655  0.13593379  0.25461458  1
  O  O331  1  0.24477128  0.11038258  0.76114738  1
  O  O332  1  0.27088297  0.61983964  0.25470948  1
  O  O333  1  0.23177146  0.63333838  0.79409998  1
  O  O334  1  0.75984812  0.10358068  0.26453907  1
  O  O335  1  0.74604059  0.12520395  0.74990911  1
  O  O336  1  0.73591253  0.63510902  0.26614057  1
  O  O337  1  0.75402362  0.60482358  0.74183327  1
  O  O338  1  0.37179210  0.12198929  0.36960097  1
  O  O339  1  0.36026954  0.11461548  0.88100834  1
  O  O340  1  0.37877804  0.62320450  0.36638586  1
  O  O341  1  0.39179907  0.60461557  0.86335796  1
  O  O342  1  0.86058656  0.13338092  0.37881621  1
  O  O343  1  0.86216311  0.10361861  0.86292570  1
  O  O344  1  0.85284533  0.62803349  0.37886607  1
  O  O345  1  0.87105215  0.60522220  0.85848412  1
  O  O346  1  0.14698780  0.37961751  0.13245491  1
  O  O347  1  0.09916317  0.40612349  0.65298674  1
  O  O348  1  0.18088038  0.85542793  0.13472658  1
  O  O349  1  0.14031187  0.86931775  0.63005159  1
  O  O350  1  0.60330133  0.39148582  0.13206247  1
  O  O351  1  0.62332157  0.37341527  0.63539816  1
  O  O352  1  0.61108413  0.88670876  0.11963977  1
  O  O353  1  0.61805381  0.89526001  0.61512810  1
  O  O354  1  0.13006842  0.27289969  0.25133686  1
  O  O355  1  0.14353742  0.25112005  0.76114124  1
  O  O356  1  0.12721736  0.74061352  0.25842367  1
  O  O357  1  0.11148944  0.76300145  0.74404371  1
  O  O358  1  0.60867145  0.25834404  0.26471913  1
  O  O359  1  0.62338720  0.25882800  0.75803864  1
  O  O360  1  0.61509827  0.74808469  0.25969696  1
  O  O361  1  0.66062297  0.76776009  0.76312677  1
  O  O362  1  0.38300526  0.25864785  0.23567097  1
  O  O363  1  0.31924048  0.28639195  0.70673455  1
  O  O364  1  0.38790932  0.74807479  0.23493639  1
  O  O365  1  0.37144349  0.75590019  0.72891586  1
  O  O366  1  0.89832410  0.24514319  0.25741083  1
  O  O367  1  0.87829695  0.22164368  0.76528972  1
  O  O368  1  0.85806051  0.78293126  0.26313717  1
  O  O369  1  0.86751378  0.73532786  0.73999225  1
  O  O370  1  0.38653850  0.50613742  0.48581599  1
  O  O371  1  0.38608243  0.48858019  0.99510539  1
  O  O372  1  0.38478371  0.99788387  0.48496949  1
  O  O373  1  0.36718690  0.98861870  0.99639489  1
  O  O374  1  0.89750718  0.50295562  0.49968689  1
  O  O375  1  0.84863580  0.51072778  0.98568161  1
  O  O376  1  0.91188065  0.99508001  0.55231208  1
  O  O377  1  0.85672720  0.97831156  0.96945953  1
  O  O378  1  0.12095248  0.01218867  -0.01009005  1
  O  O379  1  0.12929086  0.03904379  0.50917574  1
  O  O380  1  0.14487643  0.49885897  0.00759085  1
  O  O381  1  0.11334384  0.52197582  0.49385911  1
  O  O382  1  0.60853759  0.00195984  -0.01221592  1
  O  O383  1  0.61347153  0.01793170  0.49752161  1
  O  O384  1  0.60659276  0.48767139  -0.00021153  1
  O  O385  1  0.61525468  0.50796648  0.49983687  1
  O  O386  1  0.36995044  0.37138863  0.11461178  1
  O  O387  1  0.37451002  0.38352642  0.60151919  1
  O  O388  1  0.37636547  0.86409131  0.11323111  1
  O  O389  1  0.36510319  0.86547915  0.61517544  1
  O  O390  1  0.87846113  0.35588486  0.11185483  1
  O  O391  1  0.86457937  0.35841880  0.63409512  1
  O  O392  1  0.88703487  0.89137598  0.13974163  1
  O  O393  1  0.87636913  0.85728195  0.63683303  1
  O  O394  1  0.15167545  0.13285236  0.38559569  1
  O  O395  1  0.13354583  0.13421975  0.88055674  1
  O  O396  1  0.14078208  0.63123723  0.37345838  1
  O  O397  1  0.10815025  0.64578238  0.90446733  1
  O  O398  1  0.61614659  0.13876222  0.38407439  1
  O  O399  1  0.62342028  0.13621159  0.86769635  1
  O  O400  1  0.62613570  0.64112866  0.38538385  1
  O  O401  1  0.62081624  0.63701465  0.87213702  1
