# generated using pymatgen
data_V73Zn73O256
_symmetry_space_group_name_H-M   'P 1'
_cell_length_a   16.82897292
_cell_length_b   16.90147294
_cell_length_c   16.89113045
_cell_angle_alpha   89.65212005
_cell_angle_beta   90.01942598
_cell_angle_gamma   90.13072831
_symmetry_Int_Tables_number   1
_chemical_formula_structural   V73Zn73O256
_chemical_formula_sum   'V73 Zn73 O256'
_cell_volume   4804.31775325
_cell_formula_units_Z   1
loop_
 _symmetry_equiv_pos_site_id
 _symmetry_equiv_pos_as_xyz
  1  'x, y, z'
loop_
 _atom_site_type_symbol
 _atom_site_label
 _atom_site_symmetry_multiplicity
 _atom_site_fract_x
 _atom_site_fract_y
 _atom_site_fract_z
 _atom_site_occupancy
  V  V0  1  0.75464945  0.63104049  0.87926196  1
  V  V1  1  0.51458549  0.23384226  0.25371720  1
  V  V2  1  0.63275635  0.37722296  0.75279772  1
  V  V3  1  0.49450745  0.61552431  0.14076811  1
  V  V4  1  0.50595225  0.75604190  0.74147932  1
  V  V5  1  0.24857228  0.14079247  0.86877495  1
  V  V6  1  0.37555927  0.36598582  0.00899789  1
  V  V7  1  0.52619368  0.36742779  0.38268768  1
  V  V8  1  0.11735725  -0.00609624  0.10489960  1
  V  V9  1  0.62959636  0.75352963  0.88034984  1
  V  V10  1  -0.00659501  0.74503633  0.24566151  1
  V  V11  1  0.86960432  0.49838182  0.87193784  1
  V  V12  1  0.87337823  0.36904653  -0.00051671  1
  V  V13  1  0.74461249  -0.00205224  0.74502957  1
  V  V14  1  0.75228109  0.37800399  0.60715297  1
  V  V15  1  0.88410661  -0.00902758  0.88154375  1
  V  V16  1  0.26206112  0.50284166  0.75418754  1
  V  V17  1  0.63305302  0.87049279  0.25092103  1
  V  V18  1  0.13722710  -0.00538163  0.62799553  1
  V  V19  1  0.49755246  0.75178754  0.25592357  1
  V  V20  1  0.25439092  0.74551291  0.00249153  1
  V  V21  1  0.12617391  0.12930230  0.48983657  1
  V  V22  1  -0.00485316  0.87680938  0.37672265  1
  V  V23  1  0.87077838  0.87446303  0.50883232  1
  V  V24  1  0.12362487  0.88351106  0.24706055  1
  V  V25  1  0.12826629  0.50451235  0.62811846  1
  V  V26  1  0.25164865  0.61516032  0.36329179  1
  V  V27  1  0.62698360  0.73042184  0.37967134  1
  V  V28  1  0.87444612  0.25276341  0.60721266  1
  V  V29  1  0.85918703  0.62094598  0.25396092  1
  V  V30  1  0.49758891  0.37183691  0.86993869  1
  V  V31  1  0.87758899  0.62531132  0.75253535  1
  V  V32  1  0.37891004  0.87413569  0.47126090  1
  V  V33  1  -0.00174720  0.12034204  0.12936075  1
  V  V34  1  0.37516550  -0.00097608  0.85987875  1
  V  V35  1  0.13000346  0.75187573  0.37939954  1
  V  V36  1  -0.00063112  0.63348234  0.63116907  1
  V  V37  1  0.76531856  0.85109478  0.11931468  1
  V  V38  1  0.86767052  0.01333930  0.37196991  1
  V  V39  1  0.12882722  0.36935945  0.75226013  1
  V  V40  1  0.38262596  0.63376634  0.73568953  1
  V  V41  1  0.00484072  0.49633559  0.00656452  1
  V  V42  1  0.12546138  0.76019754  0.87130013  1
  V  V43  1  0.85785019  0.49733731  0.37859757  1
  V  V44  1  0.73567947  0.24071528  -0.00124584  1
  V  V45  1  0.38015878  0.88005359  0.00738627  1
  V  V46  1  0.00109339  0.76475978  0.75413110  1
  V  V47  1  -0.00716796  0.24929824  0.74373562  1
  V  V48  1  0.63282265  0.49660995  0.14793741  1
  V  V49  1  0.50692165  0.87567315  0.88268989  1
  V  V50  1  0.87868722  0.24276612  0.13407644  1
  V  V51  1  0.13289587  0.63206329  0.50282806  1
  V  V52  1  0.49790844  0.50201332  -0.01597749  1
  V  V53  1  0.25197309  0.24420004  0.49264843  1
  V  V54  1  0.74720806  0.74066673  0.50199155  1
  V  V55  1  0.38049682  0.38174557  0.49336956  1
  V  V56  1  -0.00075112  0.00724986  0.50082609  1
  V  V57  1  0.50762416  0.51582890  0.50849912  1
  V  V58  1  0.37643955  0.22951547  0.63176914  1
  V  V59  1  0.74779329  0.37272336  0.13652383  1
  V  V60  1  0.24765501  0.87986419  0.12491708  1
  V  V61  1  0.72592275  0.88512181  0.62038159  1
  V  V62  1  0.12731188  0.61626787  0.00645253  1
  V  V63  1  0.25778631  0.37544558  0.62617523  1
  V  V64  1  0.75335317  0.01242396  0.24167429  1
  V  V65  1  -0.00875792  0.49980172  0.50262961  1
  V  V66  1  0.74909472  0.12799502  0.86643957  1
  V  V67  1  0.23754640  0.36588997  0.13189928  1
  V  V68  1  0.50194726  0.23330267  0.75051516  1
  V  V69  1  0.26034993  0.62052322  0.87709339  1
  V  V70  1  0.63154385  0.62174613  0.00004146  1
  V  V71  1  0.00605419  0.36977052  0.87405300  1
  V  V72  1  0.12273129  0.14440168  -0.01035166  1
  Zn  Zn73  1  -0.00225987  0.61953499  0.12740497  1
  Zn  Zn74  1  0.63530048  0.51781304  0.61916744  1
  Zn  Zn75  1  0.25845943  0.00713664  0.73644124  1
  Zn  Zn76  1  0.65610857  0.19774129  0.41029586  1
  Zn  Zn77  1  0.27424988  0.48005995  0.25305659  1
  Zn  Zn78  1  0.00492723  0.36342768  0.36997181  1
  Zn  Zn79  1  0.50518010  0.02313921  0.51776220  1
  Zn  Zn80  1  -0.00363923  0.12207122  0.62928321  1
  Zn  Zn81  1  0.37464484  0.74248425  0.12957820  1
  Zn  Zn82  1  0.19103518  0.19143731  0.16894993  1
  Zn  Zn83  1  0.18396653  0.18143667  0.67947597  1
  Zn  Zn84  1  0.18170568  0.69116299  0.19000580  1
  Zn  Zn85  1  0.19197852  0.69475283  0.69147808  1
  Zn  Zn86  1  0.73494011  0.22892958  0.25932725  1
  Zn  Zn87  1  0.69661282  0.20044200  0.69440530  1
  Zn  Zn88  1  0.68596764  0.68600410  0.18623491  1
  Zn  Zn89  1  0.69478206  0.69931573  0.68709441  1
  Zn  Zn90  1  0.32875652  0.29543505  0.30508270  1
  Zn  Zn91  1  0.32413677  0.31587684  0.81324456  1
  Zn  Zn92  1  0.31003451  0.80724499  0.30560690  1
  Zn  Zn93  1  0.32065624  0.80863305  0.81784398  1
  Zn  Zn94  1  0.74664047  0.36424249  0.39040375  1
  Zn  Zn95  1  0.81600192  0.30887207  0.81388248  1
  Zn  Zn96  1  0.81100151  0.81015566  0.31782199  1
  Zn  Zn97  1  0.81214005  0.81546003  0.80651663  1
  Zn  Zn98  1  0.18203953  0.43309024  0.43186528  1
  Zn  Zn99  1  0.19328349  0.43294494  0.93991883  1
  Zn  Zn100  1  0.18952704  0.94243280  0.43501538  1
  Zn  Zn101  1  0.19519377  0.94022652  0.93486624  1
  Zn  Zn102  1  0.63733843  0.51452316  0.37807577  1
  Zn  Zn103  1  0.68506923  0.43498229  0.93677837  1
  Zn  Zn104  1  0.68058574  0.93794185  0.42667989  1
  Zn  Zn105  1  0.70191504  0.93734644  0.94089293  1
  Zn  Zn106  1  0.33342577  0.08754695  0.03639561  1
  Zn  Zn107  1  0.32266872  0.05133627  0.53070481  1
  Zn  Zn108  1  0.31286634  0.54691049  0.07076780  1
  Zn  Zn109  1  0.31792900  0.56610744  0.55957040  1
  Zn  Zn110  1  0.81322813  0.05547068  0.05781392  1
  Zn  Zn111  1  0.81371100  0.06787842  0.56420876  1
  Zn  Zn112  1  0.81545724  0.56049911  0.06710535  1
  Zn  Zn113  1  0.81256590  0.56264641  0.57122456  1
  Zn  Zn114  1  0.44845266  0.42201642  0.19606505  1
  Zn  Zn115  1  0.44453888  0.43898193  0.68795398  1
  Zn  Zn116  1  0.49726786  1.13696624  0.11436718  1
  Zn  Zn117  1  0.49505393  0.95350624  0.69680088  1
  Zn  Zn118  1  0.93149266  0.43817109  0.19292116  1
  Zn  Zn119  1  0.93599576  0.43740713  0.68476938  1
  Zn  Zn120  1  0.93516814  0.94028978  0.18691597  1
  Zn  Zn121  1  0.93145782  0.94591509  0.69188333  1
  Zn  Zn122  1  0.05465361  0.19851211  0.31076480  1
  Zn  Zn123  1  0.06651936  0.05988116  0.80945115  1
  Zn  Zn124  1  0.05965179  0.56096609  0.31874224  1
  Zn  Zn125  1  0.06644060  0.56261404  0.81894530  1
  Zn  Zn126  1  0.56636487  0.05673253  0.29007705  1
  Zn  Zn127  1  0.57075460  0.05830937  0.82762659  1
  Zn  Zn128  1  0.43819619  0.55307132  0.32951424  1
  Zn  Zn129  1  0.59106917  0.58498036  0.77625804  1
  Zn  Zn130  1  0.43709960  0.18641831  0.42603780  1
  Zn  Zn131  1  0.44185221  0.18561242  0.93420332  1
  Zn  Zn132  1  0.42479009  0.69831276  0.44285143  1
  Zn  Zn133  1  0.44278536  0.68625528  0.93790526  1
  Zn  Zn134  1  0.86993894  0.22949033  0.39340377  1
  Zn  Zn135  1  0.93421076  0.17852206  0.93346322  1
  Zn  Zn136  1  0.93272777  0.68564173  0.43823624  1
  Zn  Zn137  1  0.94524864  0.68569432  0.93515866  1
  Zn  Zn138  1  0.06152519  0.31030924  0.06654372  1
  Zn  Zn139  1  0.06732118  0.32213750  0.54273632  1
  Zn  Zn140  1  0.06267619  0.80270383  0.06036475  1
  Zn  Zn141  1  0.06233555  0.81609007  0.56445248  1
  Zn  Zn142  1  0.56153622  0.31838549  0.06675912  1
  Zn  Zn143  1  0.56271890  0.30861154  0.57076582  1
  Zn  Zn144  1  0.56834253  0.80839413  0.06879014  1
  Zn  Zn145  1  0.55151055  0.82303338  0.54592969  1
  O  O146  1  0.11832541  0.11584685  0.10597769  1
  O  O147  1  0.11693939  0.11289758  0.61475248  1
  O  O148  1  0.12138341  0.63111106  0.11025254  1
  O  O149  1  0.12639104  0.62439117  0.62336044  1
  O  O150  1  0.59312550  0.05871440  0.11159763  1
  O  O151  1  0.66423838  0.15289919  0.56472411  1
  O  O152  1  0.62295773  0.61111768  0.12006822  1
  O  O153  1  0.62472352  0.61688833  0.66942162  1
  O  O154  1  0.38565075  0.36746469  0.39358146  1
  O  O155  1  0.38972412  0.38054147  0.88301499  1
  O  O156  1  0.38000493  0.86659090  0.37063269  1
  O  O157  1  0.38471481  0.87802020  0.88489190  1
  O  O158  1  0.88122506  0.39793551  0.37888325  1
  O  O159  1  0.88198469  0.38128845  0.88038573  1
  O  O160  1  0.88028347  0.87841954  0.38511421  1
  O  O161  1  0.86553364  0.89001318  0.86983454  1
  O  O162  1  0.24255640  0.02237150  0.33514597  1
  O  O163  1  0.26473281  -0.01513558  0.85681408  1
  O  O164  1  0.23716894  0.50855280  0.36654301  1
  O  O165  1  0.24672348  0.50729159  0.86253537  1
  O  O166  1  0.76265824  -0.00658891  0.36425124  1
  O  O167  1  0.75643449  0.00845333  0.86587258  1
  O  O168  1  0.75552938  0.48945631  0.38225967  1
  O  O169  1  0.76223515  0.50889388  0.87928422  1
  O  O170  1  0.25474784  0.47911431  0.13723705  1
  O  O171  1  0.24685221  0.49700472  0.63281550  1
  O  O172  1  0.23557165  0.98114711  0.11311422  1
  O  O173  1  0.24165756  1.01257646  0.62117027  1
  O  O174  1  0.74142102  0.48927540  0.12478728  1
  O  O175  1  0.75012485  0.48381217  0.62334347  1
  O  O176  1  0.76086007  0.99257408  0.14081355  1
  O  O177  1  0.74940718  0.99579399  0.63277977  1
  O  O178  1  0.02714382  0.40922919  0.25886170  1
  O  O179  1  0.00943373  0.37267384  0.75469788  1
  O  O180  1  0.00150961  0.86545667  0.25924647  1
  O  O181  1  -0.00341795  0.86250658  0.74416041  1
  O  O182  1  0.50449101  0.35339515  0.27787092  1
  O  O183  1  0.50495644  0.36654879  0.75508640  1
  O  O184  1  0.51991617  0.85235762  0.24217618  1
  O  O185  1  0.50374425  0.86404254  0.76833787  1
  O  O186  1  0.50730861  0.12806259  0.22812385  1
  O  O187  1  0.50773922  0.13521373  0.76281204  1
  O  O188  1  0.50136647  0.62570747  0.24365801  1
  O  O189  1  0.48767467  0.63811013  0.75697982  1
  O  O190  1  1.00640008  0.12569542  0.22715097  1
  O  O191  1  1.01312229  0.14843521  0.74786323  1
  O  O192  1  1.00336220  0.63735209  0.25226766  1
  O  O193  1  0.99787278  0.63108746  0.74863875  1
  O  O194  1  0.38102559  0.26849069  -0.00842365  1
  O  O195  1  0.36702725  0.25723733  0.51537899  1
  O  O196  1  0.36661268  0.75391311  -0.00002666  1
  O  O197  1  0.36847620  0.77688439  0.50126440  1
  O  O198  1  0.87439801  0.26160406  0.00068195  1
  O  O199  1  0.87983129  0.26140017  0.50945072  1
  O  O200  1  0.90964971  0.78042831  -0.00171564  1
  O  O201  1  0.85715100  0.75907491  0.49376071  1
  O  O202  1  0.14163766  0.23605943  0.51877912  1
  O  O203  1  0.12870043  0.24301002  0.99614635  1
  O  O204  1  0.12033711  0.74374131  0.49250150  1
  O  O205  1  0.13358354  0.73974416  0.99001167  1
  O  O206  1  0.61814596  0.21137846  0.52274204  1
  O  O207  1  0.63639903  0.25263987  1.00653052  1
  O  O208  1  0.62789105  0.75566138  0.48718234  1
  O  O209  1  0.61744209  0.73095766  0.99313827  1
  O  O210  1  0.51271899  0.25577032  0.15048843  1
  O  O211  1  0.48541233  0.24619002  0.63498220  1
  O  O212  1  0.50769243  0.72937494  0.13731091  1
  O  O213  1  0.51553282  0.76382132  0.64318769  1
  O  O214  1  0.98729912  0.24211962  0.12321753  1
  O  O215  1  0.99205063  0.26255227  0.63204209  1
  O  O216  1  1.00024611  0.74844398  0.14357665  1
  O  O217  1  1.01300054  0.74292904  0.64174252  1
  O  O218  1  -0.02639749  0.25557477  0.35930300  1
  O  O219  1  -0.00656620  0.26346056  0.86175363  1
  O  O220  1  0.00707315  0.75960390  0.37350117  1
  O  O221  1  0.01586856  0.74790317  0.86684634  1
  O  O222  1  0.52616495  0.26799661  0.41647098  1
  O  O223  1  0.49334873  0.25587732  0.85989299  1
  O  O224  1  0.51018795  0.73692877  0.36398054  1
  O  O225  1  0.50903561  0.75779215  0.87422964  1
  O  O226  1  0.24229280  0.13531474  0.50018704  1
  O  O227  1  0.23569686  0.11657663  0.98312779  1
  O  O228  1  0.23820834  0.61727587  0.49034572  1
  O  O229  1  0.24886054  0.62550866  0.99742069  1
  O  O230  1  0.72501269  0.12980473  0.51303131  1
  O  O231  1  0.75306414  0.13821761  0.99851329  1
  O  O232  1  0.74785690  0.64309351  0.51781183  1
  O  O233  1  0.74572561  0.61923111  0.99163072  1
  O  O234  1  0.26911448  0.38742051  0.01106442  1
  O  O235  1  0.26097200  0.36860832  0.50840589  1
  O  O236  1  0.25748074  0.86168934  0.00360239  1
  O  O237  1  0.29430549  0.94370792  0.47799551  1
  O  O238  1  0.75709832  0.36624976  0.00322639  1
  O  O239  1  0.74688263  0.37019976  0.50970547  1
  O  O240  1  0.74727305  0.87505938  0.02185931  1
  O  O241  1  0.75039026  0.88134544  0.50806126  1
  O  O242  1  0.08668274  0.46683188  0.25525661  1
  O  O243  1  0.13528688  0.49640258  0.74262090  1
  O  O244  1  0.11775607  0.98234342  0.23099627  1
  O  O245  1  0.12679763  0.99885027  0.73159730  1
  O  O246  1  0.62983260  0.50214842  0.24536911  1
  O  O247  1  0.61796727  0.47731496  0.74451524  1
  O  O248  1  0.64171204  0.97932184  0.25568379  1
  O  O249  1  0.64228190  0.99674142  0.75959930  1
  O  O250  1  0.40444257  -0.01142409  0.25505551  1
  O  O251  1  0.38205001  -0.00460051  0.75880206  1
  O  O252  1  0.38705019  0.49628775  0.25034512  1
  O  O253  1  0.36972135  0.51503630  0.74324293  1
  O  O254  1  0.86738147  0.00115640  0.26238220  1
  O  O255  1  0.85600636  0.00069445  0.75622051  1
  O  O256  1  0.87666574  0.50928640  0.26697181  1
  O  O257  1  0.88602553  0.51093395  0.76306732  1
  O  O258  1  0.09977201  0.36052295  0.43359711  1
  O  O259  1  0.11858702  0.38172023  0.86472023  1
  O  O260  1  0.12036265  0.87306492  0.37039260  1
  O  O261  1  0.13275090  0.85839834  0.87986101  1
  O  O262  1  0.62670116  0.38690196  0.38223337  1
  O  O263  1  0.61397223  0.37492347  0.86468648  1
  O  O264  1  0.63006913  0.85780565  0.35855718  1
  O  O265  1  0.61863089  0.86516800  0.89441342  1
  O  O266  1  0.34266025  0.10390563  0.15740089  1
  O  O267  1  0.36466409  0.13313259  0.62535903  1
  O  O268  1  0.39262386  0.62194288  0.11946236  1
  O  O269  1  0.36963770  0.63496284  0.63638869  1
  O  O270  1  0.88817205  0.13305734  0.11087345  1
  O  O271  1  0.87987975  0.14515833  0.61878824  1
  O  O272  1  0.88000052  0.61311295  0.14714172  1
  O  O273  1  0.88798301  0.62244440  0.63889446  1
  O  O274  1  0.25826873  0.26664954  0.11376133  1
  O  O275  1  0.26101498  0.25822551  0.62607984  1
  O  O276  1  0.25024808  0.75299097  0.11548862  1
  O  O277  1  0.25046209  0.79718088  0.66770004  1
  O  O278  1  0.76344609  0.25465875  0.10874648  1
  O  O279  1  0.76648264  0.26163885  0.62922261  1
  O  O280  1  0.75696511  0.74969298  0.12456845  1
  O  O281  1  0.73888821  0.77260990  0.61103428  1
  O  O282  1  0.25902597  0.25478059  0.39504044  1
  O  O283  1  0.25850651  0.23920485  0.87103766  1
  O  O284  1  0.23574246  0.73830996  0.36837253  1
  O  O285  1  0.24408707  0.74189236  0.88284264  1
  O  O286  1  0.75577047  0.25035937  0.37424535  1
  O  O287  1  0.75697111  0.23949269  0.88661046  1
  O  O288  1  0.73949995  0.74941628  0.39049133  1
  O  O289  1  0.74360735  0.74311123  0.87331860  1
  O  O290  1  0.01607390  0.13173726  0.00056335  1
  O  O291  1  0.01032138  0.11447048  0.50115007  1
  O  O292  1  0.00819118  0.61416635  0.00032053  1
  O  O293  1  0.00791778  0.62517419  0.51357849  1
  O  O294  1  0.44506027  0.11584872  0.02133418  1
  O  O295  1  0.41968908  0.08479334  0.47185579  1
  O  O296  1  0.50858315  0.61260327  0.00501085  1
  O  O297  1  0.47941527  0.61193494  0.49433006  1
  O  O298  1  0.49290208  0.38336753  0.50451248  1
  O  O299  1  0.50073542  0.38533050  0.99142045  1
  O  O300  1  0.47943729  0.90156610  0.49873351  1
  O  O301  1  0.48773112  0.86544978  1.00054850  1
  O  O302  1  0.98446942  0.40440863  0.53139681  1
  O  O303  1  0.99540561  0.37688451  0.99218412  1
  O  O304  1  0.99172309  0.88066483  0.49404757  1
  O  O305  1  0.96398952  0.83586089  0.99964782  1
  O  O306  1  0.50792674  0.48512891  0.39212152  1
  O  O307  1  0.50488384  0.49661316  0.88406573  1
  O  O308  1  0.44652699  1.00061635  0.31445778  1
  O  O309  1  0.48885827  0.98859755  0.87440484  1
  O  O310  1  1.00179401  0.49898542  0.39915689  1
  O  O311  1  0.99305130  0.49019335  0.88346259  1
  O  O312  1  0.98596659  0.98799960  0.38366346  1
  O  O313  1  0.98350188  1.00436347  0.86012762  1
  O  O314  1  0.00208008  0.01096121  0.12179683  1
  O  O315  1  0.00382055  -0.00048944  0.61392996  1
  O  O316  1  -0.00693046  0.49473084  0.10884663  1
  O  O317  1  0.00993219  0.51656577  0.62815160  1
  O  O318  1  0.59216044  0.00129217  0.05814379  1
  O  O319  1  0.52434556  0.02944006  0.62704144  1
  O  O320  1  0.51691458  0.50553819  0.12511806  1
  O  O321  1  0.50402302  0.49954086  0.61245062  1
  O  O322  1  0.26613664  0.36146257  0.23878324  1
  O  O323  1  0.24970184  0.38347652  0.74655348  1
  O  O324  1  0.23648726  0.86179495  0.23558164  1
  O  O325  1  0.25085449  0.84693366  0.72891114  1
  O  O326  1  0.74515431  0.35185368  0.23442301  1
  O  O327  1  0.73477019  0.36537802  0.75632157  1
  O  O328  1  0.74622200  0.87071340  0.24310998  1
  O  O329  1  0.74811222  0.88133911  0.72932743  1
  O  O330  1  0.28125222  0.11464563  0.20220452  1
  O  O331  1  0.23992692  0.12310758  0.76503598  1
  O  O332  1  0.23941566  0.62177967  0.26156625  1
  O  O333  1  0.26205566  0.62329476  0.75590767  1
  O  O334  1  0.73881496  0.11064411  0.24474841  1
  O  O335  1  0.74691857  0.11851120  0.75633636  1
  O  O336  1  0.76029607  0.62681270  0.25461784  1
  O  O337  1  0.76918394  0.63665766  0.76348392  1
  O  O338  1  0.29056812  0.07490692  0.35465787  1
  O  O339  1  0.35896996  0.10632564  0.87942903  1
  O  O340  1  0.35568171  0.62659848  0.37656380  1
  O  O341  1  0.36435512  0.63079149  0.87019158  1
  O  O342  1  0.87038766  0.11074434  0.38298581  1
  O  O343  1  0.85996215  0.11465531  0.87670472  1
  O  O344  1  0.88004085  0.61279913  0.36556868  1
  O  O345  1  0.87306351  0.61835316  0.87541190  1
  O  O346  1  0.13657655  0.37045042  0.12380698  1
  O  O347  1  0.13854921  0.38688207  0.63018097  1
  O  O348  1  0.12545795  0.87444597  0.12531550  1
  O  O349  1  0.12991482  0.89572477  0.60531946  1
  O  O350  1  0.63115131  0.39115670  0.12378315  1
  O  O351  1  0.63998756  0.36931997  0.63328254  1
  O  O352  1  0.64050420  0.85852561  0.14207394  1
  O  O353  1  0.62701199  0.88931432  0.61204826  1
  O  O354  1  0.14062862  0.23695087  0.25402534  1
  O  O355  1  0.11911733  0.26671682  0.73719172  1
  O  O356  1  0.11119403  0.75791875  0.26022086  1
  O  O357  1  0.11765852  0.74624492  0.76406842  1
  O  O358  1  0.61249833  0.22560858  0.28936203  1
  O  O359  1  0.60832899  0.25822466  0.73889487  1
  O  O360  1  0.62292997  0.74642691  0.26306769  1
  O  O361  1  0.61497906  0.74631783  0.76927946  1
  O  O362  1  0.41918549  0.22263007  0.30975993  1
  O  O363  1  0.38461382  0.24858015  0.74000363  1
  O  O364  1  0.39249397  0.74977124  0.24695530  1
  O  O365  1  0.39042951  0.74271511  0.75334703  1
  O  O366  1  0.86128509  0.23755016  0.23041472  1
  O  O367  1  0.88962162  0.25491300  0.74332444  1
  O  O368  1  0.88639403  0.73534825  0.26514897  1
  O  O369  1  0.89388961  0.74083718  0.76226541  1
  O  O370  1  0.37827323  0.48602917  0.50232425  1
  O  O371  1  0.39534531  0.49450223  1.00283394  1
  O  O372  1  0.35393556  0.90414264  0.60344290  1
  O  O373  1  0.36456441  0.97967051  0.99033130  1
  O  O374  1  0.88378226  0.52071049  0.49061473  1
  O  O375  1  0.88145308  0.48787304  0.99315605  1
  O  O376  1  0.87811457  0.99580042  0.49206185  1
  O  O377  1  0.87487744  0.99856909  0.98357311  1
  O  O378  1  0.11862410  -0.00832282  0.00268393  1
  O  O379  1  0.12120080  0.01219798  0.50026000  1
  O  O380  1  0.11768031  0.50611056  -0.00839231  1
  O  O381  1  0.11507242  0.51255837  0.51530336  1
  O  O382  1  0.62859464  0.02131732  -0.01080158  1
  O  O383  1  0.60440014  0.02560653  0.45202730  1
  O  O384  1  0.61739366  0.50804266  0.00110453  1
  O  O385  1  0.61166270  0.51489804  0.50157713  1
  O  O386  1  0.39326125  0.37136296  0.10959096  1
  O  O387  1  0.36678362  0.37463083  0.62180024  1
  O  O388  1  0.36549225  0.86875144  0.11178247  1
  O  O389  1  0.40438978  0.87540726  0.65101589  1
  O  O390  1  0.87089997  0.36481331  0.12092798  1
  O  O391  1  0.86095363  0.37025935  0.63185062  1
  O  O392  1  0.86513676  0.86884248  0.13636406  1
  O  O393  1  0.87086759  0.88090291  0.61073549  1
  O  O394  1  0.11808682  0.13437041  0.39177037  1
  O  O395  1  0.13396155  0.12326980  0.88190497  1
  O  O396  1  0.12906317  0.63194622  0.38381561  1
  O  O397  1  0.13862606  0.63038773  0.88450795  1
  O  O398  1  0.60132907  0.09121871  0.39425067  1
  O  O399  1  0.64762738  0.12386135  0.87981075  1
  O  O400  1  0.63130334  0.63185943  0.37635937  1
  O  O401  1  0.63688869  0.62933353  0.87910697  1
