# generated using pymatgen
data_V73Zn73O256
_symmetry_space_group_name_H-M   'P 1'
_cell_length_a   16.93192068
_cell_length_b   16.91296799
_cell_length_c   16.92336219
_cell_angle_alpha   89.96633208
_cell_angle_beta   89.84335805
_cell_angle_gamma   89.99917886
_symmetry_Int_Tables_number   1
_chemical_formula_structural   V73Zn73O256
_chemical_formula_sum   'V73 Zn73 O256'
_cell_volume   4846.30790889
_cell_formula_units_Z   1
loop_
 _symmetry_equiv_pos_site_id
 _symmetry_equiv_pos_as_xyz
  1  'x, y, z'
loop_
 _atom_site_type_symbol
 _atom_site_label
 _atom_site_symmetry_multiplicity
 _atom_site_fract_x
 _atom_site_fract_y
 _atom_site_fract_z
 _atom_site_occupancy
  V  V0  1  0.24887071  0.00131954  0.75309148  1
  V  V1  1  0.86967508  0.25596040  0.64505532  1
  V  V2  1  0.76379696  0.24860626  0.00093912  1
  V  V3  1  0.87005971  0.75722964  0.12648531  1
  V  V4  1  0.12987384  -0.00044370  0.12831413  1
  V  V5  1  0.62541386  0.49874924  0.14128947  1
  V  V6  1  0.39001244  0.13081108  0.24291886  1
  V  V7  1  0.11869759  0.50235378  0.11734518  1
  V  V8  1  0.63111154  0.25287179  0.35104297  1
  V  V9  1  0.61360990  0.00520976  0.11888876  1
  V  V10  1  -0.00147759  0.74171990  0.75408650  1
  V  V11  1  0.49626598  0.24978714  0.75086706  1
  V  V12  1  0.75600169  0.87094249  0.62232385  1
  V  V13  1  0.38129142  -0.01196724  0.88979140  1
  V  V14  1  0.74249425  0.12134181  0.87839918  1
  V  V15  1  -0.00547682  0.13223373  0.12701112  1
  V  V16  1  0.87967705  0.73599046  0.62105983  1
  V  V17  1  0.63048642  0.13093322  0.49664539  1
  V  V18  1  0.12984185  0.00112676  0.62435298  1
  V  V19  1  0.24427698  0.36646003  0.11050603  1
  V  V20  1  0.29946174  0.68375742  0.92993222  1
  V  V21  1  0.23706786  0.14192670  0.36242896  1
  V  V22  1  0.74983070  0.87621099  0.12746337  1
  V  V23  1  0.37501162  0.12167666  0.75145105  1
  V  V24  1  0.00292988  -0.00130984  0.49548215  1
  V  V25  1  0.87114120  0.61637139  0.77463668  1
  V  V26  1  0.38581617  0.24821077  0.11954416  1
  V  V27  1  0.51309272  0.74984725  0.73717233  1
  V  V28  1  0.37693213  0.49290450  0.87966081  1
  V  V29  1  0.49697606  0.00162879  0.48093671  1
  V  V30  1  0.87861168  0.87281334  0.49780920  1
  V  V31  1  0.50304462  0.86681414  0.89380642  1
  V  V32  1  -0.01026064  0.39999320  0.37717582  1
  V  V33  1  0.87316908  0.12704663  0.25313483  1
  V  V34  1  0.24706775  0.13530499  0.88117472  1
  V  V35  1  0.74947913  0.37551054  0.13317890  1
  V  V36  1  0.36298987  -0.00079849  0.36835282  1
  V  V37  1  0.61814108  0.25251316  0.88575829  1
  V  V38  1  0.49843600  0.37258426  0.33896305  1
  V  V39  1  0.12749730  0.14156744  0.50131030  1
  V  V40  1  -0.01015756  0.62339113  0.12811067  1
  V  V41  1  0.38416468  0.62880017  0.73747555  1
  V  V42  1  0.63961349  0.37356967  0.74159435  1
  V  V43  1  0.25122556  0.62466429  0.38473884  1
  V  V44  1  0.06773001  0.56077567  0.56535219  1
  V  V45  1  0.49615851  0.75953964  0.25140941  1
  V  V46  1  0.51075447  0.49608245  0.00064965  1
  V  V47  1  0.12027787  0.63008830  -0.00213578  1
  V  V48  1  -0.00137088  0.87543856  0.87904883  1
  V  V49  1  0.37927778  0.62914126  0.23374434  1
  V  V50  1  -0.00743646  0.75646461  0.25954365  1
  V  V51  1  -0.00216518  0.24925673  0.26351661  1
  V  V52  1  0.74654612  0.74926604  -0.01054241  1
  V  V53  1  -0.00602753  0.12683622  0.64034639  1
  V  V54  1  0.62862762  -0.00547431  0.63001577  1
  V  V55  1  0.12028562  0.37173628  0.25059384  1
  V  V56  1  0.87391597  -0.00045526  0.37714961  1
  V  V57  1  0.24922697  0.50510118  0.24482021  1
  V  V58  1  0.12584585  0.74817615  0.88549274  1
  V  V59  1  0.75820213  0.00179008  0.74914321  1
  V  V60  1  0.75053129  0.00039630  0.25523631  1
  V  V61  1  0.52344526  0.48762248  0.51084417  1
  V  V62  1  0.88052389  0.39748335  -0.01162243  1
  V  V63  1  0.13083970  0.74858709  0.38240662  1
  V  V64  1  0.24485441  0.50102695  0.74663005  1
  V  V65  1  0.13536197  0.87868013  0.25543026  1
  V  V66  1  0.12505312  0.13549163  -0.00163213  1
  V  V67  1  0.25427927  0.86137502  0.11203370  1
  V  V68  1  0.13770484  0.86232289  0.74358757  1
  V  V69  1  0.87709159  0.00365039  0.87381147  1
  V  V70  1  0.50213474  0.11423698  0.63722899  1
  V  V71  1  -0.00444171  -0.00394494  0.00353555  1
  V  V72  1  0.63796590  0.73829000  0.38199716  1
  Zn  Zn73  1  0.37797235  0.36347999  -0.01003145  1
  Zn  Zn74  1  0.61392407  0.88292903  0.26975819  1
  Zn  Zn75  1  0.23851118  0.84947697  0.59112616  1
  Zn  Zn76  1  0.38971309  0.50106550  0.38525510  1
  Zn  Zn77  1  0.62968050  0.62839170  0.00291155  1
  Zn  Zn78  1  0.38272086  0.84731059  0.52776992  1
  Zn  Zn79  1  0.63047794  0.86859718  0.76567237  1
  Zn  Zn80  1  0.85450470  0.37641583  0.49498804  1
  Zn  Zn81  1  0.69158960  0.30362172  0.55679280  1
  Zn  Zn82  1  0.18000838  0.18948412  0.18334408  1
  Zn  Zn83  1  0.21192011  0.42569630  0.58886431  1
  Zn  Zn84  1  0.18331493  0.69196638  0.18860482  1
  Zn  Zn85  1  0.18836828  0.67284362  0.69475520  1
  Zn  Zn86  1  0.69357053  0.18207739  0.17614742  1
  Zn  Zn87  1  0.68837990  0.18455667  0.69282323  1
  Zn  Zn88  1  0.65261189  0.70274100  0.17311649  1
  Zn  Zn89  1  0.70132102  0.69069971  0.70050906  1
  Zn  Zn90  1  0.30983222  0.31649536  0.30483500  1
  Zn  Zn91  1  0.30890262  0.31516930  0.80399918  1
  Zn  Zn92  1  0.35190418  0.78262490  0.36859475  1
  Zn  Zn93  1  0.31993461  0.81269673  0.73046071  1
  Zn  Zn94  1  0.81311415  0.30990319  0.31776601  1
  Zn  Zn95  1  0.81514292  0.31679402  0.81393474  1
  Zn  Zn96  1  0.80627428  0.81070309  0.31840072  1
  Zn  Zn97  1  0.81824730  0.81470421  0.80949575  1
  Zn  Zn98  1  0.17494431  0.44536499  0.42664077  1
  Zn  Zn99  1  0.19055873  0.45432665  0.93178129  1
  Zn  Zn100  1  0.19656627  0.93964031  0.43844907  1
  Zn  Zn101  1  0.18673509  0.94118267  0.93644619  1
  Zn  Zn102  1  0.67814858  0.43938778  0.40521932  1
  Zn  Zn103  1  0.68921376  0.42964037  0.93441864  1
  Zn  Zn104  1  0.68673967  0.93185920  0.43935292  1
  Zn  Zn105  1  0.69173887  0.92930664  0.94272222  1
  Zn  Zn106  1  0.31284355  0.06316498  0.06315969  1
  Zn  Zn107  1  0.33851770  0.13203834  0.53883115  1
  Zn  Zn108  1  0.31056324  0.55920915  0.06304511  1
  Zn  Zn109  1  0.34013276  0.56119714  0.55538990  1
  Zn  Zn110  1  0.81148523  0.06015751  0.06441295  1
  Zn  Zn111  1  0.81350911  0.06607992  0.56213113  1
  Zn  Zn112  1  0.80560198  0.56466916  0.06389063  1
  Zn  Zn113  1  0.72793438  0.48303396  0.55230945  1
  Zn  Zn114  1  0.43170143  0.44264587  0.17577079  1
  Zn  Zn115  1  0.47846561  0.45910806  0.71043043  1
  Zn  Zn116  1  0.42804862  0.93835694  0.18760137  1
  Zn  Zn117  1  0.43831027  0.93344971  0.69532176  1
  Zn  Zn118  1  0.93616315  0.42614891  0.17352120  1
  Zn  Zn119  1  0.89628586  0.47873725  0.64167262  1
  Zn  Zn120  1  0.94044077  0.93702008  0.19134722  1
  Zn  Zn121  1  0.94483356  0.93384499  0.68730157  1
  Zn  Zn122  1  0.06109108  0.06122331  0.31599280  1
  Zn  Zn123  1  0.06897597  0.05925800  0.81465640  1
  Zn  Zn124  1  0.06562362  0.56999218  0.30625973  1
  Zn  Zn125  1  0.03007235  0.52288910  0.75066044  1
  Zn  Zn126  1  0.56920581  0.07194077  0.30666925  1
  Zn  Zn127  1  0.55798633  0.06004840  0.94717899  1
  Zn  Zn128  1  0.56187141  0.56614039  0.31377783  1
  Zn  Zn129  1  0.56368887  0.56015965  0.81593979  1
  Zn  Zn130  1  0.42567918  0.20805011  0.40436291  1
  Zn  Zn131  1  0.43217835  0.18285800  0.94000696  1
  Zn  Zn132  1  0.48159493  0.68068663  0.46111750  1
  Zn  Zn133  1  0.46018358  0.68444160  0.93717285  1
  Zn  Zn134  1  0.92624122  0.18557014  0.44380893  1
  Zn  Zn135  1  0.93379309  0.18044995  0.93889163  1
  Zn  Zn136  1  0.93647637  0.67255000  0.44294060  1
  Zn  Zn137  1  0.93495911  0.68944603  0.94718871  1
  Zn  Zn138  1  0.05281035  0.31346055  0.06104545  1
  Zn  Zn139  1  0.01368232  0.29766812  0.54216639  1
  Zn  Zn140  1  0.06142257  0.81350878  0.06883960  1
  Zn  Zn141  1  0.05569229  0.80967152  0.56421667  1
  Zn  Zn142  1  0.56376282  0.31877500  0.06434297  1
  Zn  Zn143  1  0.48863211  0.28445054  0.54076030  1
  Zn  Zn144  1  0.56441094  0.81573604  0.07290628  1
  Zn  Zn145  1  0.56587183  0.81709864  0.54986411  1
  O  O146  1  0.11389821  0.11802413  0.11957676  1
  O  O147  1  0.11059503  0.11577469  0.61005708  1
  O  O148  1  0.11741224  0.62028030  0.11811035  1
  O  O149  1  0.11862312  0.63100953  0.61733875  1
  O  O150  1  0.62826574  0.10433259  0.12876184  1
  O  O151  1  0.62244454  0.11108817  0.62371889  1
  O  O152  1  0.64100953  0.60229936  0.12218610  1
  O  O153  1  0.65179991  0.61307002  0.62243914  1
  O  O154  1  0.39304934  0.37369534  0.35798164  1
  O  O155  1  0.37071208  0.38837803  0.87468278  1
  O  O156  1  0.36633737  0.90074970  0.36208442  1
  O  O157  1  0.38826915  0.88584816  0.87287290  1
  O  O158  1  0.88613455  0.37788756  0.37443287  1
  O  O159  1  0.87003899  0.38011546  0.88806037  1
  O  O160  1  0.87112639  0.88319581  0.38820108  1
  O  O161  1  0.89087682  0.88543600  0.87043411  1
  O  O162  1  0.26073231  0.01974466  0.37902328  1
  O  O163  1  0.25698325  0.00754709  0.87119418  1
  O  O164  1  0.23243298  0.51504843  0.35506400  1
  O  O165  1  0.26771026  0.50703823  0.86480155  1
  O  O166  1  0.76023028  -0.00423663  0.36712634  1
  O  O167  1  0.75804633  0.00028275  0.87194087  1
  O  O168  1  0.75325848  0.53074559  0.36566732  1
  O  O169  1  0.71488923  0.52890486  0.87388076  1
  O  O170  1  0.23914755  0.48932072  0.12767049  1
  O  O171  1  0.26986489  0.50703296  0.64240939  1
  O  O172  1  0.23138180  1.00161585  0.12179932  1
  O  O173  1  0.23390274  1.00460275  0.63926727  1
  O  O174  1  0.73774633  0.48520671  0.11768540  1
  O  O175  1  0.68461123  0.54574520  0.64156216  1
  O  O176  1  0.74836858  0.99175872  0.13337162  1
  O  O177  1  0.75048652  0.99366254  0.63134372  1
  O  O178  1  -0.00029434  0.36837346  0.25142470  1
  O  O179  1  0.09918292  0.35691625  0.70386467  1
  O  O180  1  0.00806669  0.86106738  0.24840614  1
  O  O181  1  0.01283933  0.86596127  0.75910392  1
  O  O182  1  0.49901318  0.37459403  0.23995040  1
  O  O183  1  0.49006253  0.34916517  0.74445620  1
  O  O184  1  0.49253866  0.86291912  0.25016181  1
  O  O185  1  0.50513603  0.85980854  0.75739665  1
  O  O186  1  0.48798790  0.13396778  0.25105464  1
  O  O187  1  0.49013835  0.12726611  0.74956698  1
  O  O188  1  0.47925494  0.61533712  0.24757907  1
  O  O189  1  0.49911273  0.63769721  0.76205455  1
  O  O190  1  0.99552164  0.13027929  0.24664360  1
  O  O191  1  1.00276469  0.11141046  0.73857262  1
  O  O192  1  1.00933515  0.64306409  0.23448063  1
  O  O193  1  0.99610857  0.63902885  0.76141309  1
  O  O194  1  0.36886096  0.24947147  0.01407784  1
  O  O195  1  0.39397926  0.22752358  0.50760907  1
  O  O196  1  0.36087880  0.73792023  -0.01579677  1
  O  O197  1  0.39399648  0.75168099  0.46979109  1
  O  O198  1  0.86543368  0.25552534  -0.00540066  1
  O  O199  1  0.89710976  0.26634182  0.51737957  1
  O  O200  1  0.86276942  0.75038795  0.01761597  1
  O  O201  1  0.89014098  0.75642385  0.51376195  1
  O  O202  1  0.11044707  0.23888174  0.50453881  1
  O  O203  1  0.11368152  0.23509082  1.00319417  1
  O  O204  1  0.11571088  0.75995703  0.48052081  1
  O  O205  1  0.11946610  0.74527952  0.99538171  1
  O  O206  1  0.61002586  0.23306254  0.51253984  1
  O  O207  1  0.62997435  0.25677332  0.98855273  1
  O  O208  1  0.59060133  0.73124829  0.48149656  1
  O  O209  1  0.64171818  0.74986636  1.01065966  1
  O  O210  1  0.48337969  0.25940776  0.12391662  1
  O  O211  1  0.50796177  0.22896925  0.64398537  1
  O  O212  1  0.52955209  0.73804914  0.15180853  1
  O  O213  1  0.50898157  0.75557219  0.63793764  1
  O  O214  1  0.99917473  0.23680500  0.13535131  1
  O  O215  1  0.99392673  0.23251701  0.63714709  1
  O  O216  1  0.98943677  0.74676327  0.13413510  1
  O  O217  1  0.98793882  0.75739904  0.64121447  1
  O  O218  1  -0.00325752  0.25456503  0.36481369  1
  O  O219  1  -0.00743203  0.26692393  0.87125671  1
  O  O220  1  0.00768526  0.73723778  0.36311208  1
  O  O221  1  0.00253760  0.75923843  0.87595765  1
  O  O222  1  0.51325941  0.26570604  0.36791089  1
  O  O223  1  0.51272095  0.23824860  0.86618425  1
  O  O224  1  0.50824781  0.73330555  0.35110083  1
  O  O225  1  0.50426666  0.76391768  0.87094213  1
  O  O226  1  0.23296525  0.13273395  0.49370802  1
  O  O227  1  0.24120952  0.12280632  0.98924498  1
  O  O228  1  0.26008202  0.61516631  0.48265164  1
  O  O229  1  0.24036357  0.62629887  0.99692696  1
  O  O230  1  0.72986226  0.11934882  0.50378387  1
  O  O231  1  0.75858307  0.13813718  0.99492488  1
  O  O232  1  0.80100258  0.56881466  0.41589160  1
  O  O233  1  0.75089253  0.64455861  1.00381276  1
  O  O234  1  0.24479422  0.38166333  0.00879760  1
  O  O235  1  0.27214713  0.40496097  0.48584349  1
  O  O236  1  0.23618153  0.87656268  0.01313088  1
  O  O237  1  0.27041645  0.87387553  0.49080306  1
  O  O238  1  0.75867015  0.36354569  -0.00115578  1
  O  O239  1  0.73599783  0.38195537  0.48890524  1
  O  O240  1  0.75020492  0.86391998  0.01836174  1
  O  O241  1  0.76626134  0.88222452  0.51244360  1
  O  O242  1  0.12820119  0.49496020  0.23394345  1
  O  O243  1  0.14674219  0.52163022  0.75206887  1
  O  O244  1  0.11125205  0.98584970  0.24369172  1
  O  O245  1  0.12949934  0.98748341  0.74514750  1
  O  O246  1  0.62417296  0.49824428  0.23987106  1
  O  O247  1  0.59201767  0.46693345  0.75507022  1
  O  O248  1  0.63567147  0.99986308  0.24783525  1
  O  O249  1  0.64231250  0.98835950  0.73600734  1
  O  O250  1  0.37862815  0.01996472  0.25778455  1
  O  O251  1  0.36725333  0.00469054  0.76292235  1
  O  O252  1  0.35998930  0.50630388  0.24296519  1
  O  O253  1  0.39050804  0.51428544  0.76646932  1
  O  O254  1  0.87320464  0.00465654  0.26011741  1
  O  O255  1  0.86769142  -0.00827107  0.75836188  1
  O  O256  1  0.87070744  0.50246449  0.25561187  1
  O  O257  1  0.90358834  0.51830683  0.75064034  1
  O  O258  1  0.10772537  0.38459939  0.35685244  1
  O  O259  1  0.10079552  0.40035066  0.86654479  1
  O  O260  1  0.13580584  0.86578658  0.36336053  1
  O  O261  1  0.11704046  0.86735923  0.86875839  1
  O  O262  1  0.61523564  0.36214049  0.35384276  1
  O  O263  1  0.62807600  0.35546697  0.86655362  1
  O  O264  1  0.62278768  0.85861774  0.38368396  1
  O  O265  1  0.60757905  0.88797629  0.87807257  1
  O  O266  1  0.36709631  0.13539878  0.13413912  1
  O  O267  1  0.38644644  0.11091991  0.64125578  1
  O  O268  1  0.36893598  0.62527312  0.13395475  1
  O  O269  1  0.39096645  0.62284085  0.63889034  1
  O  O270  1  0.88666422  0.11307785  0.13816317  1
  O  O271  1  0.88913731  0.12775235  0.62122515  1
  O  O272  1  0.88615252  0.63302219  0.12545617  1
  O  O273  1  0.87777151  0.63900950  0.62679191  1
  O  O274  1  0.24321904  0.26474476  0.12303688  1
  O  O275  1  0.31449176  0.33393029  0.62342419  1
  O  O276  1  0.24407216  0.76159031  0.12370516  1
  O  O277  1  0.21869958  0.78168530  0.67703101  1
  O  O278  1  0.74285924  0.25925948  0.10674751  1
  O  O279  1  0.76407697  0.24078674  0.62393683  1
  O  O280  1  0.75548017  0.75862157  0.13498489  1
  O  O281  1  0.76939302  0.75955883  0.63226399  1
  O  O282  1  0.24868528  0.24152791  0.37050675  1
  O  O283  1  0.25464437  0.23401968  0.86839373  1
  O  O284  1  0.24030561  0.73675850  0.37066872  1
  O  O285  1  0.23664091  0.74519516  0.87355202  1
  O  O286  1  0.72986524  0.25559249  0.37486165  1
  O  O287  1  0.74189515  0.24072890  0.88400798  1
  O  O288  1  0.73946282  0.75028046  0.38715932  1
  O  O289  1  0.75438869  0.76505707  0.89078584  1
  O  O290  1  0.00304832  0.11804165  0.00762489  1
  O  O291  1  0.00821956  0.11405589  0.50139114  1
  O  O292  1  0.00678542  0.63383598  0.01966452  1
  O  O293  1  0.00731986  0.60437470  0.49743500  1
  O  O294  1  0.49871777  0.12969113  0.00850038  1
  O  O295  1  0.51217007  0.10664518  0.51958126  1
  O  O296  1  0.51511586  0.60778856  -0.00382380  1
  O  O297  1  0.45168922  0.56770064  0.48325684  1
  O  O298  1  0.50404035  0.38733223  0.49403260  1
  O  O299  1  0.49246121  0.38952124  1.00363860  1
  O  O300  1  0.49034191  0.90218276  0.51174957  1
  O  O301  1  0.49899777  0.86407660  0.99373845  1
  O  O302  1  1.00534380  0.39151535  0.47758574  1
  O  O303  1  0.97971062  0.37882690  1.00946052  1
  O  O304  1  0.98920557  0.88775693  0.50802138  1
  O  O305  1  1.00894349  0.88564849  0.99171241  1
  O  O306  1  0.50741068  0.47915541  0.36778592  1
  O  O307  1  0.48730463  0.50256864  0.88813960  1
  O  O308  1  0.49879475  1.00616184  0.37831904  1
  O  O309  1  0.48754311  0.99280201  0.88198032  1
  O  O310  1  0.99395787  0.49867866  0.35874282  1
  O  O311  1  1.03646608  0.43521202  0.84681487  1
  O  O312  1  0.98968922  1.00017114  0.38525419  1
  O  O313  1  0.99642004  0.99570139  0.88233443  1
  O  O314  1  0.00588041  0.00540136  0.11947779  1
  O  O315  1  0.00653169  0.00698431  0.61737408  1
  O  O316  1  0.00372577  0.51531144  0.13462854  1
  O  O317  1  0.01342910  0.50449641  0.63470076  1
  O  O318  1  0.51560719  -0.00994204  0.13304776  1
  O  O319  1  0.51355169  0.00202801  0.63687190  1
  O  O320  1  0.51432405  0.49666198  0.11478134  1
  O  O321  1  0.51031828  0.49577574  0.60944229  1
  O  O322  1  0.23705769  0.38351816  0.24019775  1
  O  O323  1  0.25119302  0.39788434  0.75299372  1
  O  O324  1  0.23243954  0.87745577  0.23554748  1
  O  O325  1  0.24008486  0.89103714  0.77185498  1
  O  O326  1  0.75919817  0.36700196  0.23177590  1
  O  O327  1  0.73817348  0.38264592  0.75662099  1
  O  O328  1  0.75408987  0.88839265  0.24573772  1
  O  O329  1  0.75061642  0.88063747  0.74048057  1
  O  O330  1  0.23524251  0.12693696  0.26123147  1
  O  O331  1  0.25786569  0.11404253  0.76478981  1
  O  O332  1  0.25249939  0.61764809  0.24303338  1
  O  O333  1  0.27646147  0.61928535  0.74975885  1
  O  O334  1  0.76337878  0.11201885  0.24111242  1
  O  O335  1  0.74487894  0.10966663  0.76293247  1
  O  O336  1  0.81850638  0.54816402  0.23073985  1
  O  O337  1  0.77339099  0.62174399  0.75306609  1
  O  O338  1  0.35939133  0.12911577  0.35380702  1
  O  O339  1  0.36439685  0.11465522  0.87222110  1
  O  O340  1  0.35317393  0.61430436  0.35409693  1
  O  O341  1  0.37073236  0.62248816  0.87872232  1
  O  O342  1  0.87791450  0.11292312  0.36737324  1
  O  O343  1  0.86599053  0.11063785  0.87593403  1
  O  O344  1  0.84829663  0.62286072  0.37883222  1
  O  O345  1  0.87785874  0.62510923  0.87395203  1
  O  O346  1  0.12737950  0.38216049  0.12682772  1
  O  O347  1  0.12210462  0.35155811  0.63242282  1
  O  O348  1  0.12716089  0.88187473  0.13395854  1
  O  O349  1  0.11824120  0.88474087  0.63262795  1
  O  O350  1  0.63804595  0.38319836  0.12272794  1
  O  O351  1  0.63186448  0.36075199  0.64133023  1
  O  O352  1  0.63715720  0.88597380  0.13687383  1
  O  O353  1  0.64107294  0.88172881  0.61314661  1
  O  O354  1  0.11221930  0.26369153  0.24296353  1
  O  O355  1  0.04578225  0.25327377  0.82149231  1
  O  O356  1  0.11618730  0.76211902  0.25732093  1
  O  O357  1  0.11354216  0.74964572  0.76875712  1
  O  O358  1  0.62805855  0.23289850  0.25406058  1
  O  O359  1  0.61828711  0.25368776  0.76028550  1
  O  O360  1  0.62345685  0.76125075  0.26643864  1
  O  O361  1  0.61937262  0.74894500  0.75165602  1
  O  O362  1  0.36510700  0.23929234  0.23427877  1
  O  O363  1  0.38580784  0.23579742  0.76177667  1
  O  O364  1  0.38485807  0.73813241  0.25580660  1
  O  O365  1  0.39439679  0.73451442  0.75671503  1
  O  O366  1  0.88085030  0.23489086  0.25603152  1
  O  O367  1  0.86594863  0.24042464  0.74556103  1
  O  O368  1  0.88679161  0.75434415  0.24960411  1
  O  O369  1  0.88162212  0.73971040  0.74659511  1
  O  O370  1  0.33466055  0.46273188  0.48611485  1
  O  O371  1  0.37931657  0.49975436  0.99091521  1
  O  O372  1  0.38929171  1.02438330  0.47706295  1
  O  O373  1  0.36761389  0.99865035  0.98833934  1
  O  O374  1  0.84128531  0.48239267  0.54584814  1
  O  O375  1  0.86903021  0.49728207  0.99706126  1
  O  O376  1  0.88212272  0.99614039  0.49439578  1
  O  O377  1  0.88741472  1.00300920  0.99220664  1
  O  O378  1  0.11250697  0.01037355  0.00717692  1
  O  O379  1  0.11843008  -0.00179915  0.50637300  1
  O  O380  1  0.12636424  0.51140020  0.01032401  1
  O  O381  1  0.13533147  0.49139204  0.52318512  1
  O  O382  1  0.62926772  -0.00445482  0.01370136  1
  O  O383  1  0.61589241  0.00669504  0.50391574  1
  O  O384  1  0.61482323  0.49044864  0.00116316  1
  O  O385  1  0.62478733  0.50642297  0.49012211  1
  O  O386  1  0.35687910  0.36515756  0.12385374  1
  O  O387  1  0.37980885  0.36792859  0.61579940  1
  O  O388  1  0.35108365  0.88596261  0.12679736  1
  O  O389  1  0.35987022  0.87370515  0.63845824  1
  O  O390  1  0.85627843  0.38152654  0.10793380  1
  O  O391  1  0.88616340  0.35531820  0.64360987  1
  O  O392  1  0.86665942  0.86737780  0.13371238  1
  O  O393  1  0.87152006  0.87234321  0.61899667  1
  O  O394  1  0.13037243  0.12138675  0.38736274  1
  O  O395  1  0.13805501  0.11935040  0.88250429  1
  O  O396  1  0.13532117  0.63873862  0.36835793  1
  O  O397  1  0.11391073  0.63608700  0.89289639  1
  O  O398  1  0.61384684  0.14029067  0.38966363  1
  O  O399  1  0.63750618  0.13074779  0.88376990  1
  O  O400  1  0.63261016  0.63713777  0.36163612  1
  O  O401  1  0.65965333  0.58652107  0.87846712  1
