# generated using pymatgen
data_V73Zn73O256
_symmetry_space_group_name_H-M   'P 1'
_cell_length_a   16.99652749
_cell_length_b   16.99375955
_cell_length_c   16.95042126
_cell_angle_alpha   90.37906391
_cell_angle_beta   89.86416048
_cell_angle_gamma   90.40207690
_symmetry_Int_Tables_number   1
_chemical_formula_structural   V73Zn73O256
_chemical_formula_sum   'V73 Zn73 O256'
_cell_volume   4895.63233208
_cell_formula_units_Z   1
loop_
 _symmetry_equiv_pos_site_id
 _symmetry_equiv_pos_as_xyz
  1  'x, y, z'
loop_
 _atom_site_type_symbol
 _atom_site_label
 _atom_site_symmetry_multiplicity
 _atom_site_fract_x
 _atom_site_fract_y
 _atom_site_fract_z
 _atom_site_occupancy
  V  V0  1  0.87257063  0.86559290  0.49594652  1
  V  V1  1  0.61239092  -0.00138815  0.61842538  1
  V  V2  1  0.12316894  0.85508951  0.74255976  1
  V  V3  1  0.75169901  0.87181964  0.12045125  1
  V  V4  1  0.87723261  0.73176786  0.63823670  1
  V  V5  1  0.33507601  0.01511845  0.38197485  1
  V  V6  1  0.74851031  0.74525442  -0.00811878  1
  V  V7  1  0.75272650  0.25330068  0.02325019  1
  V  V8  1  0.63084429  0.24407471  0.86646613  1
  V  V9  1  0.50982486  0.74430221  0.24992621  1
  V  V10  1  0.88252340  0.24945346  0.61446621  1
  V  V11  1  0.36343623  0.75625956  0.62153299  1
  V  V12  1  0.74885575  -0.00112081  0.74190537  1
  V  V13  1  0.37790073  0.25164884  0.62075201  1
  V  V14  1  0.33136207  0.82460629  -0.00667698  1
  V  V15  1  0.50360197  0.62939222  0.60261386  1
  V  V16  1  0.61757985  0.24382954  0.37941902  1
  V  V17  1  0.62435218  -0.00277754  0.12144856  1
  V  V18  1  0.88020146  0.00361352  0.86947779  1
  V  V19  1  0.62373134  0.87038142  0.24907304  1
  V  V20  1  0.86650589  0.51852746  0.37352431  1
  V  V21  1  0.65188417  0.73642309  0.38292815  1
  V  V22  1  0.86265771  0.36462544  0.49059169  1
  V  V23  1  0.62821781  0.37122564  0.25046482  1
  V  V24  1  0.75611397  0.00041075  0.24849775  1
  V  V25  1  0.27983072  0.25170692  0.00062726  1
  V  V26  1  0.48937430  0.49254895  -0.00056874  1
  V  V27  1  -0.00813229  0.01052331  0.50307806  1
  V  V28  1  0.62806704  0.12182940  -0.00060762  1
  V  V29  1  0.87789822  0.87759368  -0.00971177  1
  V  V30  1  0.85397169  0.48803841  0.89325404  1
  V  V31  1  0.38912286  0.49753501  0.83098098  1
  V  V32  1  0.63114565  0.38735402  0.74485041  1
  V  V33  1  0.50520703  0.36903496  0.87698432  1
  V  V34  1  0.48796794  0.74083186  0.75045180  1
  V  V35  1  0.49299443  0.12279029  0.13435349  1
  V  V36  1  0.62477790  0.62137829  -0.00522909  1
  V  V37  1  0.12694752  0.76113928  0.36929566  1
  V  V38  1  0.05121090  0.52392934  0.00881966  1
  V  V39  1  0.36134112  0.62847176  0.25647024  1
  V  V40  1  0.22339725  0.64363810  0.86497954  1
  V  V41  1  0.87927355  0.12883238  0.23354141  1
  V  V42  1  0.89386901  0.36405956  0.01439961  1
  V  V43  1  0.75280938  0.12802032  0.86989895  1
  V  V44  1  0.13587869  0.40384288  0.27001968  1
  V  V45  1  0.37355679  0.11685768  0.75118609  1
  V  V46  1  0.60182848  0.11836715  0.50060103  1
  V  V47  1  0.49432233  0.62624484  0.12701647  1
  V  V48  1  0.49374022  -0.00552835  -0.01062737  1
  V  V49  1  0.01740817  0.00548727  0.00892472  1
  V  V50  1  0.00573337  0.88200240  0.36634787  1
  V  V51  1  0.24204484  0.37360269  0.64003015  1
  V  V52  1  0.62440870  0.49104188  0.12510845  1
  V  V53  1  0.13012742  0.00462140  0.63410573  1
  V  V54  1  0.62353993  0.74752676  0.87145867  1
  V  V55  1  0.25291923  0.25528016  0.49561741  1
  V  V56  1  0.26077196  0.41535657  0.11898266  1
  V  V57  1  0.75623059  0.12332391  0.38018253  1
  V  V58  1  0.62155688  0.87402539  0.74896035  1
  V  V59  1  0.51079516  0.86944299  0.40230676  1
  V  V60  1  0.88777085  0.74272914  0.12249014  1
  V  V61  1  0.75309660  0.51363121  0.24447462  1
  V  V62  1  0.23327178  0.77511147  0.51560930  1
  V  V63  1  0.11950513  0.49934648  0.64136752  1
  V  V64  1  0.74672604  0.37246616  0.62398612  1
  V  V65  1  -0.01299612  0.37091650  0.36747042  1
  V  V66  1  0.12047489  0.24955975  0.36696824  1
  V  V67  1  0.50359760  0.24222238  0.73963994  1
  V  V68  1  0.11918860  0.13963298  0.51368104  1
  V  V69  1  0.88143310  0.13760912  0.74300591  1
  V  V70  1  0.25193544  0.10706880  0.87857389  1
  V  V71  1  0.24689030  0.62784208  0.40623352  1
  V  V72  1  0.50092436  0.38870568  0.39103786  1
  Zn  Zn73  1  -0.00675403  0.87454533  0.85602363  1
  Zn  Zn74  1  0.48726154  0.26030187  0.24016753  1
  Zn  Zn75  1  0.74822430  0.86732995  0.60822721  1
  Zn  Zn76  1  0.95532055  0.29286691  0.19324445  1
  Zn  Zn77  1  0.48522054  0.87477007  0.87658192  1
  Zn  Zn78  1  -0.00083570  0.50996204  0.51750001  1
  Zn  Zn79  1  0.36886688  0.50466279  0.39607370  1
  Zn  Zn80  1  0.85579766  0.62964137  0.78393307  1
  Zn  Zn81  1  0.17453250  0.92017488  0.08022707  1
  Zn  Zn82  1  0.13693616  0.21163435  0.15842987  1
  Zn  Zn83  1  0.19461370  0.18719278  0.68963204  1
  Zn  Zn84  1  0.20385603  0.77282350  0.17780629  1
  Zn  Zn85  1  0.18384839  0.67405692  0.69101214  1
  Zn  Zn86  1  0.67681064  0.18235393  0.19827148  1
  Zn  Zn87  1  0.69292970  0.18520565  0.67464617  1
  Zn  Zn88  1  0.68746868  0.68562362  0.17884949  1
  Zn  Zn89  1  0.69514158  0.68049265  0.68128633  1
  Zn  Zn90  1  0.32442431  0.33581496  0.28781781  1
  Zn  Zn91  1  0.31885990  0.30785044  0.81654241  1
  Zn  Zn92  1  0.33530790  0.82745977  0.31780198  1
  Zn  Zn93  1  0.30253972  0.81553974  0.81104512  1
  Zn  Zn94  1  0.80096031  0.30247982  0.30375823  1
  Zn  Zn95  1  0.83471502  0.33599420  0.80260049  1
  Zn  Zn96  1  0.82745668  0.81155597  0.30692657  1
  Zn  Zn97  1  0.80898813  0.81116242  0.80415273  1
  Zn  Zn98  1  0.19087120  0.44045025  0.45393611  1
  Zn  Zn99  1  0.25366580  0.47892785  0.95711062  1
  Zn  Zn100  1  0.18056576  0.94898016  0.44661880  1
  Zn  Zn101  1  0.18653052  0.92869533  0.90949900  1
  Zn  Zn102  1  0.69274036  0.43445333  0.43014621  1
  Zn  Zn103  1  0.68115622  0.42666765  0.94502921  1
  Zn  Zn104  1  0.68639116  0.94037760  0.43272919  1
  Zn  Zn105  1  0.68944185  0.93535976  0.93026389  1
  Zn  Zn106  1  0.31082034  0.05934992  0.05845867  1
  Zn  Zn107  1  0.31427799  0.06616147  0.56047298  1
  Zn  Zn108  1  0.28274288  0.63836555  0.05749311  1
  Zn  Zn109  1  0.31359630  0.56593876  0.58450607  1
  Zn  Zn110  1  0.81187606  0.06226903  0.05913020  1
  Zn  Zn111  1  0.81012017  0.06030605  0.56300626  1
  Zn  Zn112  1  0.80744341  0.55649602  0.06218134  1
  Zn  Zn113  1  0.80884829  0.55206355  0.56550042  1
  Zn  Zn114  1  0.43836054  0.45120424  0.20504484  1
  Zn  Zn115  1  0.43924735  0.44265010  0.56928306  1
  Zn  Zn116  1  0.30119599  0.94540509  0.20429165  1
  Zn  Zn117  1  0.43460083  0.93164159  0.68712827  1
  Zn  Zn118  1  0.94300435  0.45944851  0.18353196  1
  Zn  Zn119  1  0.94140904  0.49279063  0.71060880  1
  Zn  Zn120  1  0.94074701  0.93308464  0.18136513  1
  Zn  Zn121  1  0.94060074  0.93926275  0.67960029  1
  Zn  Zn122  1  0.06181415  0.06929007  0.31424324  1
  Zn  Zn123  1  0.06525130  0.08741816  0.81513482  1
  Zn  Zn124  1  0.05968334  0.56857612  0.36124475  1
  Zn  Zn125  1  0.04552878  0.56155521  0.82250609  1
  Zn  Zn126  1  0.55525694  0.04978924  0.31731237  1
  Zn  Zn127  1  0.56076647  0.06200903  0.80682448  1
  Zn  Zn128  1  0.57130791  0.56439276  0.31676470  1
  Zn  Zn129  1  0.55943752  0.56292361  0.80821724  1
  Zn  Zn130  1  0.40359322  0.20913023  0.39049967  1
  Zn  Zn131  1  0.43929220  0.18364524  0.93886584  1
  Zn  Zn132  1  0.42915086  0.71535520  0.43328334  1
  Zn  Zn133  1  0.43081513  0.67429402  0.93197871  1
  Zn  Zn134  1  0.93583398  0.18767091  0.42942735  1
  Zn  Zn135  1  0.95698076  0.18863900  1.05702376  1
  Zn  Zn136  1  0.94882410  0.69177388  0.44771157  1
  Zn  Zn137  1  0.93331528  0.65535365  0.97936245  1
  Zn  Zn138  1  0.06781863  0.36531136  0.08729630  1
  Zn  Zn139  1  0.05914834  0.34478787  0.55910184  1
  Zn  Zn140  1  0.09372246  0.72703988  0.06577621  1
  Zn  Zn141  1  0.05203007  0.82232091  0.56873782  1
  Zn  Zn142  1  0.56028120  0.30535771  0.06119176  1
  Zn  Zn143  1  0.56837164  0.30356340  0.55950025  1
  Zn  Zn144  1  0.55697979  0.81154103  0.06218648  1
  Zn  Zn145  1  0.58293164  0.78135667  0.57035770  1
  O  O146  1  0.12826118  0.09792222  0.21581280  1
  O  O147  1  0.11539063  0.13164773  0.61587814  1
  O  O148  1  0.05374079  0.63319219  0.19824912  1
  O  O149  1  0.12851162  0.59699695  0.62451350  1
  O  O150  1  0.62676735  0.11348383  0.11511608  1
  O  O151  1  0.62737934  0.11481786  0.60894315  1
  O  O152  1  0.61654319  0.61264377  0.11504388  1
  O  O153  1  0.60408558  0.66804065  0.61518471  1
  O  O154  1  0.39906014  0.38718889  0.37599555  1
  O  O155  1  0.40481357  0.37374659  0.86072830  1
  O  O156  1  0.41294182  0.83185921  0.39793355  1
  O  O157  1  0.37319489  0.85491009  0.89946179  1
  O  O158  1  0.87109624  0.35969125  0.37598275  1
  O  O159  1  0.86295743  0.37047123  0.90900600  1
  O  O160  1  0.89455909  0.87175850  0.38172948  1
  O  O161  1  0.87158781  0.88567446  0.87281059  1
  O  O162  1  0.23267166  0.01763415  0.37455669  1
  O  O163  1  0.26380859  0.00877790  0.88248326  1
  O  O164  1  0.24384361  0.52483813  0.39708143  1
  O  O165  1  0.29186092  0.47058546  0.85031609  1
  O  O166  1  0.74010822  0.01393429  0.35789828  1
  O  O167  1  0.75492252  0.00967122  0.86369655  1
  O  O168  1  0.75752086  0.49684951  0.35640634  1
  O  O169  1  0.75471959  0.49235230  0.88844335  1
  O  O170  1  0.26673663  0.51227220  0.10941092  1
  O  O171  1  0.23682371  0.48140028  0.62841902  1
  O  O172  1  0.24716547  0.99545344  0.12324332  1
  O  O173  1  0.22846270  1.01682609  0.62209179  1
  O  O174  1  0.73700201  0.49842892  0.13391665  1
  O  O175  1  0.76348609  0.47188286  0.63184093  1
  O  O176  1  0.74253234  0.99074194  0.12485096  1
  O  O177  1  0.74132417  0.99677807  0.63211383  1
  O  O178  1  0.00963373  0.37903150  0.25241851  1
  O  O179  1  0.06146235  0.27555410  0.75381005  1
  O  O180  1  -0.00017204  0.88813464  0.26686066  1
  O  O181  1  0.00807800  0.87785905  0.74222820  1
  O  O182  1  0.51304192  0.37965944  0.26450943  1
  O  O183  1  0.52579088  0.35481891  0.75732714  1
  O  O184  1  0.52061888  0.85966281  0.24370148  1
  O  O185  1  0.50812861  0.86690811  0.75696134  1
  O  O186  1  0.51166386  0.11302569  0.23419553  1
  O  O187  1  0.49059461  0.13483975  0.75404315  1
  O  O188  1  0.51483035  0.63098094  0.24089456  1
  O  O189  1  0.51000344  0.64151149  0.74038096  1
  O  O190  1  0.97494378  0.11552249  0.25560733  1
  O  O191  1  0.97813764  0.12599667  0.75028067  1
  O  O192  1  1.00317492  0.62339862  0.25082651  1
  O  O193  1  0.95962923  0.59371687  0.75822016  1
  O  O194  1  0.38032354  0.25212196  0.01178723  1
  O  O195  1  0.35628626  0.23773338  0.49835315  1
  O  O196  1  0.35644388  0.72103456  0.00529283  1
  O  O197  1  0.35627382  0.75998266  0.51939435  1
  O  O198  1  0.86174760  0.25343832  0.01580686  1
  O  O199  1  0.87147315  0.25045676  0.50466443  1
  O  O200  1  0.86284431  0.76042646  -0.00399000  1
  O  O201  1  0.87296294  0.76400677  0.49455494  1
  O  O202  1  0.11813743  0.24786982  0.49859145  1
  O  O203  1  0.11273628  0.34262205  0.90196419  1
  O  O204  1  0.13170175  0.75870832  0.51234674  1
  O  O205  1  0.07795587  0.76022359  0.94168535  1
  O  O206  1  0.62462357  0.22801450  0.49345187  1
  O  O207  1  0.63379839  0.23686388  0.99049496  1
  O  O208  1  0.65182607  0.75528381  0.48162397  1
  O  O209  1  0.62805212  0.74292875  0.99186416  1
  O  O210  1  0.50971069  0.22837407  0.12673490  1
  O  O211  1  0.49430285  0.25120177  0.63133952  1
  O  O212  1  0.51166559  0.73555815  0.13294847  1
  O  O213  1  0.48416891  0.75602210  0.64098201  1
  O  O214  1  1.03395273  0.25163295  0.11956968  1
  O  O215  1  0.98043063  0.26340667  0.61601246  1
  O  O216  1  0.98347466  0.75793807  0.10584065  1
  O  O217  1  0.97293531  0.75403043  0.61171579  1
  O  O218  1  0.00665120  0.26043798  0.37235366  1
  O  O219  1  0.01224014  0.28869694  0.80802391  1
  O  O220  1  0.01764562  0.76606817  0.38507680  1
  O  O221  1  0.01072349  0.74875364  0.91008575  1
  O  O222  1  0.51195159  0.26274721  0.38332006  1
  O  O223  1  0.51638679  0.25013625  0.87175462  1
  O  O224  1  0.53151548  0.75422726  0.36275515  1
  O  O225  1  0.50823529  0.74900616  0.86745173  1
  O  O226  1  0.22640392  0.14346243  0.50548898  1
  O  O227  1  0.27486219  0.13768243  0.98262396  1
  O  O228  1  0.24934905  0.63948019  0.50564553  1
  O  O229  1  0.26261872  0.59522111  0.95150346  1
  O  O230  1  0.75390103  0.11690740  0.48039397  1
  O  O231  1  0.74651535  0.13393060  0.99077210  1
  O  O232  1  0.70129386  0.58158300  0.51418286  1
  O  O233  1  0.73402418  0.63419986  1.00648722  1
  O  O234  1  0.27013968  0.37710141  0.02208226  1
  O  O235  1  0.24560973  0.35878268  0.51545682  1
  O  O236  1  0.23390364  0.86134346  -0.00923188  1
  O  O237  1  0.23866322  0.87332190  0.51348686  1
  O  O238  1  0.73855826  0.35207458  0.00978453  1
  O  O239  1  0.75157157  0.37297373  0.50767868  1
  O  O240  1  0.75385667  0.86797978  0.00284494  1
  O  O241  1  0.77144859  0.89137782  0.48981084  1
  O  O242  1  0.11399553  0.49928693  0.28298904  1
  O  O243  1  0.10526932  0.49340496  0.74141684  1
  O  O244  1  0.21127643  1.09665476  0.24004368  1
  O  O245  1  0.11325012  1.02128369  0.73206696  1
  O  O246  1  0.63533343  0.49334067  0.24354900  1
  O  O247  1  0.62310319  0.48472701  0.75161481  1
  O  O248  1  0.63416229  0.98969322  0.23794097  1
  O  O249  1  0.62991586  0.99459444  0.74132019  1
  O  O250  1  0.36071922  -0.05023548  0.30155899  1
  O  O251  1  0.38205637  0.01861147  0.74125131  1
  O  O252  1  0.38863872  0.52832763  0.27923179  1
  O  O253  1  0.40440621  0.48815185  0.73548901  1
  O  O254  1  0.86092612  0.00728421  0.23531241  1
  O  O255  1  0.86523623  0.00861526  0.74907934  1
  O  O256  1  0.85958220  0.49905096  0.25137235  1
  O  O257  1  0.87804055  0.45285556  0.79352602  1
  O  O258  1  0.10501052  0.37164361  0.37708346  1
  O  O259  1  0.14118531  0.38808491  0.85409771  1
  O  O260  1  0.11734458  0.87099900  0.38582413  1
  O  O261  1  0.10817746  0.87877997  0.84858508  1
  O  O262  1  0.62201318  0.36403722  0.37244114  1
  O  O263  1  0.62811838  0.36192455  0.86188804  1
  O  O264  1  0.62745511  0.86675640  0.36308915  1
  O  O265  1  0.62412739  0.86492584  0.86509720  1
  O  O266  1  0.39609546  0.11134380  0.12334823  1
  O  O267  1  0.36372794  0.13905869  0.63760408  1
  O  O268  1  0.38839046  0.62157098  0.14535273  1
  O  O269  1  0.38884437  0.64516966  0.62827550  1
  O  O270  1  0.87900132  0.12535853  0.12787976  1
  O  O271  1  0.86578621  0.13758635  0.63259349  1
  O  O272  1  0.87840533  0.64084729  0.09371058  1
  O  O273  1  0.86998706  0.63232790  0.61311243  1
  O  O274  1  0.21376237  0.24499028  0.07992605  1
  O  O275  1  0.25588079  0.25453880  0.61725546  1
  O  O276  1  0.19467099  0.68869182  0.10456139  1
  O  O277  1  0.25446461  0.74262613  0.62377948  1
  O  O278  1  0.73733308  0.24141879  0.11965577  1
  O  O279  1  0.76070992  0.26080841  0.62499304  1
  O  O280  1  0.75095531  0.75848436  0.11011293  1
  O  O281  1  0.77087389  0.75684252  0.62788197  1
  O  O282  1  0.22933827  0.26169852  0.39348904  1
  O  O283  1  0.25659595  0.26359371  0.90071751  1
  O  O284  1  0.23948662  0.75736353  0.40221094  1
  O  O285  1  0.24189242  0.74269214  0.87767508  1
  O  O286  1  0.73045053  0.22973310  0.36378492  1
  O  O287  1  0.74196556  0.23848967  0.87388760  1
  O  O288  1  0.74804814  0.75213352  0.35621616  1
  O  O289  1  0.73804387  0.75488420  0.88321586  1
  O  O290  1  0.00195727  0.10504996  -0.00360075  1
  O  O291  1  0.00660711  0.11897875  0.48939067  1
  O  O292  1  0.03888698  0.62719941  0.02265561  1
  O  O293  1  0.01202261  0.60287573  0.45959080  1
  O  O294  1  0.51464096  0.11550614  0.00317425  1
  O  O295  1  0.50680504  0.11727358  0.49713633  1
  O  O296  1  0.50635605  0.61331973  0.00851800  1
  O  O297  1  0.49236237  0.65353875  0.50519902  1
  O  O298  1  0.50939957  0.37836479  0.49674233  1
  O  O299  1  0.51942949  0.38010984  0.98657332  1
  O  O300  1  0.53006166  0.86072069  0.49899503  1
  O  O301  1  0.51439263  0.89099114  0.99577511  1
  O  O302  1  0.97418951  0.37839352  0.48293049  1
  O  O303  1  0.99118239  0.35166404  0.99874857  1
  O  O304  1  0.98881632  0.89173894  0.49314601  1
  O  O305  1  0.98052892  0.89408800  0.98348331  1
  O  O306  1  0.52055564  0.48798042  0.38389039  1
  O  O307  1  0.50399019  0.48637690  0.88001949  1
  O  O308  1  0.50853652  0.96825397  0.37905163  1
  O  O309  1  0.50983031  0.99750887  0.88527451  1
  O  O310  1  0.96898444  0.48348297  0.36088263  1
  O  O311  1  1.00349441  0.50221316  0.92041539  1
  O  O312  1  1.01822218  0.99085672  0.38710976  1
  O  O313  1  0.98392380  1.00962105  0.87483498  1
  O  O314  1  0.00189716  -0.00779109  0.10730185  1
  O  O315  1  0.00586726  0.00554441  0.60715652  1
  O  O316  1  0.01867588  0.47791394  0.09918790  1
  O  O317  1  0.00663488  0.47389794  0.62551040  1
  O  O318  1  0.51821025  0.00776195  0.10772188  1
  O  O319  1  0.51428594  -0.01021979  0.62815842  1
  O  O320  1  0.50588230  0.50473003  0.12137921  1
  O  O321  1  0.50806655  0.52983869  0.60821961  1
  O  O322  1  0.23262321  0.39809865  0.29657327  1
  O  O323  1  0.25925114  0.35844218  0.73644669  1
  O  O324  1  0.26740230  0.84157246  0.23377745  1
  O  O325  1  0.22465615  0.87267077  0.75308807  1
  O  O326  1  0.73193707  0.37623241  0.25056659  1
  O  O327  1  0.73653595  0.36512033  0.74176717  1
  O  O328  1  0.74821384  0.88116918  0.23641896  1
  O  O329  1  0.73878894  0.88797742  0.75280653  1
  O  O330  1  0.25066149  0.15435920  0.21231746  1
  O  O331  1  0.26422755  0.13363002  0.76643922  1
  O  O332  1  0.26519758  0.63531628  0.25409486  1
  O  O333  1  0.24981172  0.62229654  0.76797692  1
  O  O334  1  0.75642893  0.11610390  0.24975151  1
  O  O335  1  0.75173992  0.11563232  0.75226260  1
  O  O336  1  0.74835315  0.61178431  0.24143284  1
  O  O337  1  0.74847540  0.62406737  0.75757026  1
  O  O338  1  0.37572235  0.10458558  0.36261786  1
  O  O339  1  0.37345085  0.13315875  0.85868723  1
  O  O340  1  0.35446833  0.64125521  0.37706506  1
  O  O341  1  0.40025497  0.59671545  0.85664177  1
  O  O342  1  0.85836835  0.13148390  0.36071964  1
  O  O343  1  0.86248793  0.12050010  0.85680580  1
  O  O344  1  0.87223979  0.61519097  0.37753583  1
  O  O345  1  0.87410629  0.59379788  0.90057158  1
  O  O346  1  0.15920488  0.38931353  0.15791032  1
  O  O347  1  0.14001392  0.36163065  0.64139419  1
  O  O348  1  0.12199505  0.83025915  0.11651396  1
  O  O349  1  0.11786615  0.89650857  0.63395529  1
  O  O350  1  0.61093694  0.38453560  0.13436826  1
  O  O351  1  0.63494639  0.36653561  0.63446115  1
  O  O352  1  0.63536837  0.87869779  0.12639647  1
  O  O353  1  0.63112600  0.87727287  0.63573109  1
  O  O354  1  0.13192850  0.26654011  0.26706378  1
  O  O355  1  0.11478147  0.21393296  0.77135306  1
  O  O356  1  0.12938653  0.75852555  0.27269174  1
  O  O357  1  0.11487142  0.75700607  0.72800289  1
  O  O358  1  0.61276452  0.25505452  0.25949105  1
  O  O359  1  0.62116931  0.23556043  0.75610855  1
  O  O360  1  0.62878542  0.75658173  0.24737059  1
  O  O361  1  0.61880947  0.75935273  0.75722204  1
  O  O362  1  0.38475898  0.24611531  0.28262817  1
  O  O363  1  0.38865632  0.24522738  0.73984578  1
  O  O364  1  0.40207537  0.73346768  0.26371720  1
  O  O365  1  0.38747997  0.74906891  0.75948597  1
  O  O366  1  0.87063576  0.23518466  0.24222206  1
  O  O367  1  0.87011965  0.24290724  0.73944083  1
  O  O368  1  0.87402316  0.75197712  0.22188203  1
  O  O369  1  0.87833572  0.74381482  0.74444495  1
  O  O370  1  0.36717091  0.50216705  0.50818492  1
  O  O371  1  0.39285454  0.49030778  0.99946865  1
  O  O372  1  0.35331842  0.99586611  0.48155320  1
  O  O373  1  0.39729772  1.00584193  0.99667490  1
  O  O374  1  0.86198522  0.48916842  0.47969088  1
  O  O375  1  0.86660183  0.47404962  1.00642234  1
  O  O376  1  0.88968906  1.00630157  0.49819028  1
  O  O377  1  0.86526747  0.99326123  0.98436114  1
  O  O378  1  0.11657733  -0.01428822  -0.00499897  1
  O  O379  1  0.11558291  0.02115506  0.51190898  1
  O  O380  1  0.14344837  0.48798562  -0.00216633  1
  O  O381  1  0.10828796  0.45957274  0.52670151  1
  O  O382  1  0.63243729  0.00881841  0.00268327  1
  O  O383  1  0.62969644  0.00991106  0.50550964  1
  O  O384  1  0.62010225  0.50436723  0.00775899  1
  O  O385  1  0.65178489  0.52527018  0.50077598  1
  O  O386  1  0.34359819  0.38722099  0.17536887  1
  O  O387  1  0.36874819  0.35631148  0.61636896  1
  O  O388  1  0.37000345  0.86566788  0.07238967  1
  O  O389  1  0.36536361  0.85473725  0.64710640  1
  O  O390  1  0.89225801  0.36933984  0.12187862  1
  O  O391  1  0.86267883  0.36024805  0.60974128  1
  O  O392  1  0.86574312  0.86927329  0.11093580  1
  O  O393  1  0.87299512  0.87869070  0.60484696  1
  O  O394  1  0.11648474  0.14778589  0.38223182  1
  O  O395  1  0.15198966  0.11690529  0.88098122  1
  O  O396  1  0.14487187  0.64802609  0.37762542  1
  O  O397  1  0.12305293  0.62820114  0.86886528  1
  O  O398  1  0.62413007  0.12368348  0.38416385  1
  O  O399  1  0.63408198  0.12590627  0.87977087  1
  O  O400  1  0.63700156  0.63688163  0.37104186  1
  O  O401  1  0.61476005  0.63286390  0.88655133  1
