# generated using pymatgen
data_V73Zn73O256
_symmetry_space_group_name_H-M   'P 1'
_cell_length_a   16.89876649
_cell_length_b   16.90206504
_cell_length_c   16.93919475
_cell_angle_alpha   90.09036263
_cell_angle_beta   89.98095786
_cell_angle_gamma   89.90116662
_symmetry_Int_Tables_number   1
_chemical_formula_structural   V73Zn73O256
_chemical_formula_sum   'V73 Zn73 O256'
_cell_volume   4838.22792592
_cell_formula_units_Z   1
loop_
 _symmetry_equiv_pos_site_id
 _symmetry_equiv_pos_as_xyz
  1  'x, y, z'
loop_
 _atom_site_type_symbol
 _atom_site_label
 _atom_site_symmetry_multiplicity
 _atom_site_fract_x
 _atom_site_fract_y
 _atom_site_fract_z
 _atom_site_occupancy
  V  V0  1  0.12826425  0.87077349  0.76046508  1
  V  V1  1  0.49900112  0.35306942  0.37384628  1
  V  V2  1  0.88425654  -0.01204014  0.88443223  1
  V  V3  1  0.87050300  0.49665906  0.87453657  1
  V  V4  1  0.75987365  0.87025551  0.12187903  1
  V  V5  1  0.89631369  0.62587042  0.23894187  1
  V  V6  1  0.37560193  0.83976105  0.01388708  1
  V  V7  1  0.49314710  0.73507791  0.23980848  1
  V  V8  1  0.87095346  0.61939706  0.75162003  1
  V  V9  1  0.86439457  0.25443787  0.12092246  1
  V  V10  1  0.36811155  0.22419542  0.63700389  1
  V  V11  1  0.37481265  0.86958105  0.49971961  1
  V  V12  1  0.75204531  0.25301912  0.50231612  1
  V  V13  1  0.01034774  0.60911092  0.62154318  1
  V  V14  1  0.50287714  0.61981239  0.62369435  1
  V  V15  1  0.00326486  -0.00168496  0.49762148  1
  V  V16  1  0.00843315  0.49628742  0.00710546  1
  V  V17  1  0.37861467  0.51174010  0.86443981  1
  V  V18  1  0.86914087  0.86625246  0.49763024  1
  V  V19  1  0.63541303  0.62162378  0.50029278  1
  V  V20  1  0.51189916  0.24661985  0.74393398  1
  V  V21  1  0.74819238  0.00395350  0.24823334  1
  V  V22  1  0.22731945  0.64271248  0.87196779  1
  V  V23  1  0.89735291  0.49332085  0.37381648  1
  V  V24  1  0.00313257  0.75473547  0.75918243  1
  V  V25  1  0.00743126  0.36876420  0.86981019  1
  V  V26  1  0.86002462  0.37002363  0.00081169  1
  V  V27  1  0.51263619  0.75936950  0.75085546  1
  V  V28  1  0.88874046  -0.02760072  0.35531287  1
  V  V29  1  0.64344007  0.49638100  0.13377074  1
  V  V30  1  0.01212153  0.12195741  0.10506845  1
  V  V31  1  0.50861997  0.00001507  0.50124703  1
  V  V32  1  0.25137794  0.90100251  0.13734979  1
  V  V33  1  0.12695467  0.23353471  0.89052187  1
  V  V34  1  0.12208513  0.00667326  0.62593527  1
  V  V35  1  0.24812686  0.39905504  0.65632366  1
  V  V36  1  -0.00045487  0.24379481  0.74158447  1
  V  V37  1  0.34621126  0.38535812  -0.01100032  1
  V  V38  1  0.74697101  0.12715770  0.89048602  1
  V  V39  1  0.36985411  0.62763167  0.74742721  1
  V  V40  1  0.13769775  0.23884559  0.36136539  1
  V  V41  1  0.74967016  0.62198199  0.87723992  1
  V  V42  1  0.88601003  0.37677387  0.49929971  1
  V  V43  1  0.37334958  0.26335503  0.12074421  1
  V  V44  1  0.62985721  0.49284766  0.63916265  1
  V  V45  1  0.63353496  0.74637757  0.38086865  1
  V  V46  1  0.63036561  0.25819550  0.89531732  1
  V  V47  1  0.24047415  0.87085255  0.62177388  1
  V  V48  1  0.11381775  0.63425566  0.01210815  1
  V  V49  1  0.63003658  0.12555011  0.49926698  1
  V  V50  1  0.49455515  0.49296068  0.49247873  1
  V  V51  1  0.36400488  0.00429980  0.37946740  1
  V  V52  1  0.88301211  0.13516907  0.24723758  1
  V  V53  1  0.63186058  0.36423862  0.25345523  1
  V  V54  1  0.87755229  0.74572052  0.62450551  1
  V  V55  1  0.49971482  0.01849120  -0.00600943  1
  V  V56  1  0.24867914  0.73181650  0.49130605  1
  V  V57  1  0.50359329  0.87092201  0.37492693  1
  V  V58  1  0.62761385  0.76337796  0.87423229  1
  V  V59  1  0.76292079  0.75090445  0.00531290  1
  V  V60  1  0.08699061  0.37224693  0.24513206  1
  V  V61  1  0.62164433  0.62672138  0.00974314  1
  V  V62  1  0.61277564  0.00732299  0.12321394  1
  V  V63  1  0.75025777  0.13096981  0.37392004  1
  V  V64  1  0.74969639  0.60735243  0.36500908  1
  V  V65  1  0.63036451  0.00266048  0.63412480  1
  V  V66  1  0.49042196  0.50404196  0.01421702  1
  V  V67  1  0.27377300  0.12494862  0.88489414  1
  V  V68  1  0.62301995  0.87182473  0.24841022  1
  V  V69  1  0.38203117  0.74859194  0.62192263  1
  V  V70  1  0.39417676  0.11178506  0.23279086  1
  V  V71  1  0.75005447  0.37215027  0.63705052  1
  V  V72  1  0.74376050  0.86541315  0.63290436  1
  Zn  Zn73  1  0.28394938  0.02477838  0.73980820  1
  Zn  Zn74  1  0.34954423  0.35363364  0.49943812  1
  Zn  Zn75  1  -0.02026900  0.79396863  0.30215323  1
  Zn  Zn76  1  0.51660276  0.38796901  0.86504423  1
  Zn  Zn77  1  0.39439109  0.97483875  0.87136698  1
  Zn  Zn78  1  0.86691727  0.12206174  0.74441574  1
  Zn  Zn79  1  -0.01335035  0.13476050  0.61930652  1
  Zn  Zn80  1  0.75124119  -0.00146298  0.75722536  1
  Zn  Zn81  1  0.30593545  0.59911711  0.27731732  1
  Zn  Zn82  1  0.16906181  0.23468052  0.14659865  1
  Zn  Zn83  1  0.18432888  0.19359044  0.70596468  1
  Zn  Zn84  1  0.22841173  0.70345993  0.17568233  1
  Zn  Zn85  1  0.18804087  0.68662980  0.67804442  1
  Zn  Zn86  1  0.68394769  0.19105507  0.18083568  1
  Zn  Zn87  1  0.69110681  0.18715740  0.69373758  1
  Zn  Zn88  1  0.68706431  0.68627226  0.19042888  1
  Zn  Zn89  1  0.69001521  0.68275949  0.68901537  1
  Zn  Zn90  1  0.32616553  0.28409435  0.31396596  1
  Zn  Zn91  1  0.31519691  0.30274551  0.81469653  1
  Zn  Zn92  1  0.31094671  0.81104371  0.31200735  1
  Zn  Zn93  1  0.32219878  0.81535711  0.80706046  1
  Zn  Zn94  1  0.81268003  0.31572647  0.31546338  1
  Zn  Zn95  1  0.81461805  0.30317239  0.81445573  1
  Zn  Zn96  1  0.80579181  0.80086869  0.30466045  1
  Zn  Zn97  1  0.81264273  0.81116491  0.81443874  1
  Zn  Zn98  1  0.19913605  0.40915284  0.39783497  1
  Zn  Zn99  1  0.18317286  0.45761384  0.89803071  1
  Zn  Zn100  1  0.18802324  1.06923902  0.44174457  1
  Zn  Zn101  1  0.23469975  0.91956483  0.92060242  1
  Zn  Zn102  1  0.67969442  0.43262078  0.43981956  1
  Zn  Zn103  1  0.68173631  0.44146854  0.94328379  1
  Zn  Zn104  1  0.69617612  0.93683510  0.43806168  1
  Zn  Zn105  1  0.69196297  0.94331650  0.94343852  1
  Zn  Zn106  1  0.31455474  0.07030723  0.05996284  1
  Zn  Zn107  1  0.31638970  0.06045142  0.56388204  1
  Zn  Zn108  1  0.31860152  0.63479929  0.05140150  1
  Zn  Zn109  1  0.27633260  0.52324868  0.52957809  1
  Zn  Zn110  1  0.81597107  0.05827425  0.06282785  1
  Zn  Zn111  1  0.81579145  0.05414942  0.56005724  1
  Zn  Zn112  1  0.81596913  0.56146597  0.06162196  1
  Zn  Zn113  1  0.81465137  0.55544134  0.56101879  1
  Zn  Zn114  1  0.43320881  0.42102346  0.18928021  1
  Zn  Zn115  1  0.43207604  0.42382277  0.68689792  1
  Zn  Zn116  1  0.42715002  0.93239199  0.18419886  1
  Zn  Zn117  1  0.44846702  0.93905807  0.68413134  1
  Zn  Zn118  1  0.92906483  0.44134771  0.18743855  1
  Zn  Zn119  1  0.93223209  0.43104955  0.68823241  1
  Zn  Zn120  1  0.95191894  0.93326857  0.17390645  1
  Zn  Zn121  1  0.93511254  0.93852115  0.69237288  1
  Zn  Zn122  1  0.05845285  0.06650843  0.30940556  1
  Zn  Zn123  1  0.06170006  0.06108503  0.81155794  1
  Zn  Zn124  1  0.10695617  0.58453131  0.22581154  1
  Zn  Zn125  1  0.05600739  0.55845074  0.80358230  1
  Zn  Zn126  1  0.56115386  0.06557722  0.31518358  1
  Zn  Zn127  1  0.56358254  0.07246296  0.82023407  1
  Zn  Zn128  1  0.55928574  0.55540662  0.31067642  1
  Zn  Zn129  1  0.56230644  0.57234699  0.81484598  1
  Zn  Zn130  1  0.44005123  0.18803983  0.45221938  1
  Zn  Zn131  1  0.44870972  0.20915339  0.95304185  1
  Zn  Zn132  1  0.43211806  0.67708583  0.42679526  1
  Zn  Zn133  1  0.44854764  0.69201608  0.93375289  1
  Zn  Zn134  1  0.93213876  0.18282295  0.44216794  1
  Zn  Zn135  1  0.93132764  0.18120567  0.93477573  1
  Zn  Zn136  1  0.93863682  0.67460966  0.43733970  1
  Zn  Zn137  1  0.94424363  0.68882813  0.94156108  1
  Zn  Zn138  1  0.04489014  0.30937381  0.06246327  1
  Zn  Zn139  1  0.07640181  0.31984085  0.56125902  1
  Zn  Zn140  1  0.11791107  0.81887401  0.07015496  1
  Zn  Zn141  1  0.05685412  0.79954284  0.48194700  1
  Zn  Zn142  1  0.55578843  0.32305594  0.06329366  1
  Zn  Zn143  1  0.56189083  0.30938090  0.56584501  1
  Zn  Zn144  1  0.56304580  0.81429361  0.06097093  1
  Zn  Zn145  1  0.56642020  0.80988672  0.56120945  1
  O  O146  1  0.10986673  0.14016530  0.12283971  1
  O  O147  1  0.12339437  0.10614193  0.63637870  1
  O  O148  1  0.12244202  0.62036312  0.10972587  1
  O  O149  1  0.10984692  0.62397751  0.62853342  1
  O  O150  1  0.62751046  0.10528088  0.13067286  1
  O  O151  1  0.63919038  0.10774193  0.61399126  1
  O  O152  1  0.63402880  0.61264920  0.11811824  1
  O  O153  1  0.62356214  0.61538414  0.61951923  1
  O  O154  1  0.39328953  0.35563642  0.38412924  1
  O  O155  1  0.37214628  0.40661486  0.87559685  1
  O  O156  1  0.38686722  0.88292001  0.38263253  1
  O  O157  1  0.35671753  0.86589150  0.90264535  1
  O  O158  1  0.87659676  0.38334488  0.38407050  1
  O  O159  1  0.87439650  0.37846676  0.88575185  1
  O  O160  1  0.85243628  0.86692146  0.39274256  1
  O  O161  1  0.86618942  0.88719743  0.87600204  1
  O  O162  1  0.26540824  -0.00341147  0.38587972  1
  O  O163  1  0.27483801  0.01434194  0.87196548  1
  O  O164  1  0.21619416  0.52603839  0.36540711  1
  O  O165  1  0.27514235  0.53574025  0.87547752  1
  O  O166  1  0.76516896  0.00017057  0.36244580  1
  O  O167  1  0.74937636  0.01211566  0.87576189  1
  O  O168  1  0.74172950  0.50765219  0.37203469  1
  O  O169  1  0.75817794  0.51172040  0.88762356  1
  O  O170  1  0.27357965  0.43629181  0.22278383  1
  O  O171  1  0.24904262  0.49944834  0.64134845  1
  O  O172  1  0.29302904  0.99735948  0.14257570  1
  O  O173  1  0.23991142  0.98865817  0.62824541  1
  O  O174  1  0.74177592  0.49315034  0.12161443  1
  O  O175  1  0.73733168  0.48988111  0.62221878  1
  O  O176  1  0.73908933  0.98937504  0.13169943  1
  O  O177  1  0.74069113  0.98623856  0.62645704  1
  O  O178  1  -0.01302803  0.36190711  0.24696984  1
  O  O179  1  -0.01015176  0.36512218  0.76437226  1
  O  O180  1  -0.06045036  0.90196750  0.28425085  1
  O  O181  1  0.01037378  0.86141187  0.74425919  1
  O  O182  1  0.50811660  0.38455024  0.27021224  1
  O  O183  1  0.49543068  0.36202126  0.75631523  1
  O  O184  1  0.50971472  0.87380228  0.25936891  1
  O  O185  1  0.51250454  0.85731348  0.73689071  1
  O  O186  1  0.49015544  0.13263496  0.25941052  1
  O  O187  1  0.50133283  0.14565823  0.76102678  1
  O  O188  1  0.50641081  0.63616695  0.25308927  1
  O  O189  1  0.49798055  0.63320145  0.73638608  1
  O  O190  1  0.98331845  0.13049528  0.25178956  1
  O  O191  1  0.99885027  0.13506914  0.74439685  1
  O  O192  1  0.99600506  0.62039439  0.24342157  1
  O  O193  1  0.98835143  0.63239154  0.74612361  1
  O  O194  1  0.35557192  0.28792348  -0.03619501  1
  O  O195  1  0.38578519  0.24870216  0.52953017  1
  O  O196  1  0.37189433  0.73377219  0.00788973  1
  O  O197  1  0.38291119  0.75262920  0.50653461  1
  O  O198  1  0.87302772  0.26274107  0.00449712  1
  O  O199  1  0.86525810  0.26454071  0.49411607  1
  O  O200  1  0.86221522  0.74283189  0.00027620  1
  O  O201  1  0.87931783  0.75937006  0.51023153  1
  O  O202  1  0.09050942  0.24154297  0.47078471  1
  O  O203  1  0.11663849  0.25367193  0.98855379  1
  O  O204  1  0.15012551  0.74804316  0.50855401  1
  O  O205  1  0.08855219  0.73248599  1.00228434  1
  O  O206  1  0.63526060  0.23375394  0.50832966  1
  O  O207  1  0.62668651  0.25969292  0.99460777  1
  O  O208  1  0.61909950  0.73461403  0.49107280  1
  O  O209  1  0.63202378  0.74260804  0.99479623  1
  O  O210  1  0.46618200  0.25298821  0.06720305  1
  O  O211  1  0.49708757  0.25086840  0.63826884  1
  O  O212  1  0.51241401  0.75066524  0.14198780  1
  O  O213  1  0.50114409  0.73966414  0.62759406  1
  O  O214  1  0.97535924  0.23167023  0.11834133  1
  O  O215  1  1.01344259  0.25269558  0.63853916  1
  O  O216  1  1.01928272  0.82693204  0.14461080  1
  O  O217  1  0.98344772  0.73336083  0.63759387  1
  O  O218  1  0.02805667  0.24426059  0.41126737  1
  O  O219  1  0.00049364  0.25822159  0.87533277  1
  O  O220  1  0.01408099  0.74458576  0.39397267  1
  O  O221  1  -0.00617658  0.74790591  0.85777146  1
  O  O222  1  0.50940818  0.25373257  0.38338457  1
  O  O223  1  0.52109627  0.25761808  0.87388195  1
  O  O224  1  0.51107721  0.75805257  0.36988045  1
  O  O225  1  0.51642206  0.74712392  0.86337249  1
  O  O226  1  0.24384725  0.12677665  0.51550986  1
  O  O227  1  0.24872803  0.12068046  0.98420942  1
  O  O228  1  0.26651346  0.63397034  0.50762504  1
  O  O229  1  0.22369234  0.63079189  0.98378719  1
  O  O230  1  0.75065100  0.12976308  0.49233941  1
  O  O231  1  0.75213504  0.12337093  0.99064951  1
  O  O232  1  0.74117998  0.61712167  0.48988438  1
  O  O233  1  0.74412123  0.63175195  0.99728584  1
  O  O234  1  0.24953210  0.40678776  -0.02049445  1
  O  O235  1  0.25702478  0.41746750  0.49041385  1
  O  O236  1  0.27532916  0.89123405  0.02015843  1
  O  O237  1  0.26871862  0.86332378  0.50813789  1
  O  O238  1  0.76237934  0.38144261  0.00162293  1
  O  O239  1  0.74988709  0.36403272  0.50294980  1
  O  O240  1  0.74381776  0.86679326  0.01643648  1
  O  O241  1  0.76180903  0.87857597  0.51591252  1
  O  O242  1  0.10315880  0.47160786  0.23969498  1
  O  O243  1  0.14224423  0.49185933  0.79772994  1
  O  O244  1  0.12179314  0.96697126  0.26936812  1
  O  O245  1  0.11530311  0.98086309  0.73570807  1
  O  O246  1  0.62601726  0.49902548  0.23623084  1
  O  O247  1  0.62302998  0.50739107  0.73737726  1
  O  O248  1  0.63018126  0.99216546  0.24547015  1
  O  O249  1  0.62042241  1.00491538  0.73445156  1
  O  O250  1  0.38706638  0.00661919  0.27023124  1
  O  O251  1  0.37274259  -0.03971531  0.75915028  1
  O  O252  1  0.34186264  0.47627658  0.24698180  1
  O  O253  1  0.38838256  0.51457209  0.75705589  1
  O  O254  1  0.86137027  0.01972422  0.24821389  1
  O  O255  1  0.87017083  0.00018514  0.76193960  1
  O  O256  1  0.88038577  0.51077860  0.26547728  1
  O  O257  1  0.87577488  0.50742585  0.76361059  1
  O  O258  1  0.11157101  0.35727974  0.35285524  1
  O  O259  1  0.10755957  0.36341682  0.87901535  1
  O  O260  1  0.11342709  0.89988334  0.29987813  1
  O  O261  1  0.14201822  0.88098011  0.85815471  1
  O  O262  1  0.61614886  0.37509470  0.36353739  1
  O  O263  1  0.63541191  0.36449101  0.87568186  1
  O  O264  1  0.62509629  0.86792193  0.37009358  1
  O  O265  1  0.63819871  0.86163632  0.87948700  1
  O  O266  1  0.38324745  0.14104933  0.13271375  1
  O  O267  1  0.38070378  0.12246650  0.63631881  1
  O  O268  1  0.31665691  0.62740938  0.16046169  1
  O  O269  1  0.38821995  0.63507729  0.63147583  1
  O  O270  1  0.87170056  0.13041993  0.13682924  1
  O  O271  1  0.87407325  0.11764004  0.62900720  1
  O  O272  1  0.87232218  0.61818406  0.14173213  1
  O  O273  1  0.86531013  0.62716120  0.63788327  1
  O  O274  1  0.27404931  0.24749564  0.10872514  1
  O  O275  1  0.26727207  0.23754778  0.64210542  1
  O  O276  1  0.22146501  0.78394723  0.10562021  1
  O  O277  1  0.26589459  0.75341612  0.61771375  1
  O  O278  1  0.76446693  0.24279059  0.11905295  1
  O  O279  1  0.74476812  0.26396950  0.61703552  1
  O  O280  1  0.74463092  0.76236229  0.12256401  1
  O  O281  1  0.75810609  0.75770187  0.62991108  1
  O  O282  1  0.23399690  0.26307804  0.38395689  1
  O  O283  1  0.23279090  0.23836058  0.87164965  1
  O  O284  1  0.26385867  0.74943899  0.39323225  1
  O  O285  1  0.25188532  0.73923471  0.86849191  1
  O  O286  1  0.75290430  0.23848363  0.38454802  1
  O  O287  1  0.74183558  0.24079518  0.87530184  1
  O  O288  1  0.73760931  0.73694692  0.37431787  1
  O  O289  1  0.74656759  0.74045955  0.88565572  1
  O  O290  1  -0.00397513  0.12095180  0.00588309  1
  O  O291  1  -0.01342703  0.10299399  0.50608075  1
  O  O292  1  0.00265631  0.60599397  -0.00749380  1
  O  O293  1  -0.01676244  0.61772507  0.52504875  1
  O  O294  1  0.50980364  0.11583218  -0.00364822  1
  O  O295  1  0.51785126  0.10916213  0.49536901  1
  O  O296  1  0.51340203  0.61783023  -0.00119977  1
  O  O297  1  0.50936465  0.61476062  0.50900331  1
  O  O298  1  0.51252982  0.38277520  0.48903380  1
  O  O299  1  0.49568339  0.40058244  0.98898153  1
  O  O300  1  0.49800539  0.87641683  0.49236748  1
  O  O301  1  0.47704516  0.86504871  1.00429625  1
  O  O302  1  0.98344983  0.37461191  0.51432101  1
  O  O303  1  0.98887128  0.38196395  0.98762922  1
  O  O304  1  0.98350536  0.88523166  0.50021948  1
  O  O305  1  1.03884492  0.90223346  0.99338096  1
  O  O306  1  0.50318333  0.49822911  0.39102026  1
  O  O307  1  0.49368100  0.50845331  0.88110285  1
  O  O308  1  0.50707550  0.98509190  0.38606761  1
  O  O309  1  0.50948415  0.99814644  0.88974233  1
  O  O310  1  0.99166580  0.50190872  0.38219069  1
  O  O311  1  0.98667380  0.48521619  0.87891391  1
  O  O312  1  0.99380389  1.00435510  0.38646557  1
  O  O313  1  0.98402398  1.00109580  0.86831441  1
  O  O314  1  -0.00073646  0.02365617  0.13418503  1
  O  O315  1  0.01029298  -0.00765496  0.61530209  1
  O  O316  1  -0.00279717  0.48901508  0.10578971  1
  O  O317  1  -0.00194496  0.51031280  0.64302164  1
  O  O318  1  0.50813202  -0.00385701  0.12340933  1
  O  O319  1  0.52017613  -0.01271003  0.61112398  1
  O  O320  1  0.48995775  0.49949224  0.11525993  1
  O  O321  1  0.51320918  0.50274839  0.62024731  1
  O  O322  1  0.25062155  0.38062284  0.27573596  1
  O  O323  1  0.25429696  0.38039875  0.75620519  1
  O  O324  1  0.25830744  0.87143391  0.23643401  1
  O  O325  1  0.23586737  0.86051551  0.73697694  1
  O  O326  1  0.73250193  0.37308279  0.25764123  1
  O  O327  1  0.76125852  0.37029229  0.73478677  1
  O  O328  1  0.74265296  0.88017916  0.24303936  1
  O  O329  1  0.75203920  0.87566032  0.73547615  1
  O  O330  1  0.32905738  0.16954239  0.28080850  1
  O  O331  1  0.24113403  0.12178201  0.77431583  1
  O  O332  1  0.19678151  0.64402132  0.26243240  1
  O  O333  1  0.26345735  0.63757243  0.75486364  1
  O  O334  1  0.74712663  0.11937719  0.25701129  1
  O  O335  1  0.74888890  0.12000665  0.76237618  1
  O  O336  1  0.75541474  0.62616648  0.26396065  1
  O  O337  1  0.76007136  0.63020089  0.76605950  1
  O  O338  1  0.38593725  0.09928543  0.40178102  1
  O  O339  1  0.37220391  0.14411117  0.88580586  1
  O  O340  1  0.37784641  0.60725977  0.36222350  1
  O  O341  1  0.38817477  0.62776978  0.85816737  1
  O  O342  1  0.86709745  0.12480880  0.36110887  1
  O  O343  1  0.86000522  0.11874449  0.87116531  1
  O  O344  1  0.86310937  0.60830942  0.37734664  1
  O  O345  1  0.86941516  0.61696017  0.87215493  1
  O  O346  1  0.11710412  0.34216688  0.14455300  1
  O  O347  1  0.16004301  0.35953569  0.61993218  1
  O  O348  1  0.15245476  0.92011563  0.11690355  1
  O  O349  1  0.13701505  0.87953055  0.62426540  1
  O  O350  1  0.61362409  0.39007808  0.13677808  1
  O  O351  1  0.63480327  0.38540653  0.62408612  1
  O  O352  1  0.62987486  0.88164316  0.13755137  1
  O  O353  1  0.63906179  0.87934896  0.61802460  1
  O  O354  1  0.12548672  0.24711182  0.25918509  1
  O  O355  1  0.10520782  0.24774034  0.77136313  1
  O  O356  1  0.04721605  0.78357341  0.20475957  1
  O  O357  1  0.11244543  0.75790595  0.74323144  1
  O  O358  1  0.61890373  0.26575717  0.23540995  1
  O  O359  1  0.61664377  0.25372585  0.75013900  1
  O  O360  1  0.62044075  0.75714096  0.26031912  1
  O  O361  1  0.62365394  0.73849513  0.76278550  1
  O  O362  1  0.39248443  0.29428055  0.21484136  1
  O  O363  1  0.38811576  0.25116574  0.74189545  1
  O  O364  1  0.39542221  0.75402944  0.25699500  1
  O  O365  1  0.38970411  0.74684519  0.73908247  1
  O  O366  1  0.86408321  0.24159997  0.23959922  1
  O  O367  1  0.89376248  0.24521173  0.75589847  1
  O  O368  1  0.88455104  0.73041329  0.26410838  1
  O  O369  1  0.88182134  0.74180597  0.74631742  1
  O  O370  1  0.39759004  0.49896570  0.51189763  1
  O  O371  1  0.38472606  0.51535913  0.98970766  1
  O  O372  1  0.38813521  0.98537910  0.50029391  1
  O  O373  1  0.39731003  1.00562608  1.00153565  1
  O  O374  1  0.86666745  0.48578000  0.48565034  1
  O  O375  1  0.88194098  0.49028680  0.99322484  1
  O  O376  1  0.88067134  0.98403958  0.48535694  1
  O  O377  1  0.87310924  1.00034797  0.98608847  1
  O  O378  1  0.07143518  -0.03291883  -0.01452860  1
  O  O379  1  0.11113898  -0.00274268  0.50767028  1
  O  O380  1  0.10975612  0.50580303  -0.01191719  1
  O  O381  1  0.13270365  0.54794003  0.46621220  1
  O  O382  1  0.61248544  -0.01354416  0.01739404  1
  O  O383  1  0.62634553  0.00311415  0.50557627  1
  O  O384  1  0.61505800  0.50630029  0.01511655  1
  O  O385  1  0.61805759  0.50693418  0.50980025  1
  O  O386  1  0.36943419  0.37821428  0.09352678  1
  O  O387  1  0.35184624  0.37269280  0.62283380  1
  O  O388  1  0.37116081  0.85803174  0.11941521  1
  O  O389  1  0.37722734  0.86283995  0.61674928  1
  O  O390  1  0.87710203  0.36427786  0.11331118  1
  O  O391  1  0.85733261  0.38735328  0.60945242  1
  O  O392  1  0.85746796  0.88096932  0.12924489  1
  O  O393  1  0.86713582  0.86617192  0.61945396  1
  O  O394  1  0.13622535  0.12853252  0.36054690  1
  O  O395  1  0.11639791  0.13226716  0.88328129  1
  O  O396  1  0.15429723  0.57148266  0.39841743  1
  O  O397  1  0.12603740  0.63593554  0.87024436  1
  O  O398  1  0.64189610  0.11051040  0.38595397  1
  O  O399  1  0.63759907  0.14010594  0.87856458  1
  O  O400  1  0.63368787  0.62600469  0.38016217  1
  O  O401  1  0.63609332  0.62717841  0.88867634  1
