# generated using pymatgen
data_V73Zn73O256
_symmetry_space_group_name_H-M   'P 1'
_cell_length_a   16.94308131
_cell_length_b   16.90575939
_cell_length_c   16.91219852
_cell_angle_alpha   90.37158417
_cell_angle_beta   89.87678605
_cell_angle_gamma   89.93209137
_symmetry_Int_Tables_number   1
_chemical_formula_structural   V73Zn73O256
_chemical_formula_sum   'V73 Zn73 O256'
_cell_volume   4844.14011643
_cell_formula_units_Z   1
loop_
 _symmetry_equiv_pos_site_id
 _symmetry_equiv_pos_as_xyz
  1  'x, y, z'
loop_
 _atom_site_type_symbol
 _atom_site_label
 _atom_site_symmetry_multiplicity
 _atom_site_fract_x
 _atom_site_fract_y
 _atom_site_fract_z
 _atom_site_occupancy
  V  V0  1  0.24912143  0.24369820  0.48971444  1
  V  V1  1  0.74930657  0.49735661  0.74330595  1
  V  V2  1  0.74117786  0.74539006  0.49010981  1
  V  V3  1  -0.00079635  0.25047306  0.72497345  1
  V  V4  1  0.88299475  0.61449763  0.27069575  1
  V  V5  1  0.11499944  0.50544190  0.12873311  1
  V  V6  1  0.74805956  -0.00915515  0.24216149  1
  V  V7  1  0.14319689  0.51309650  0.61434496  1
  V  V8  1  0.63569533  0.48681540  0.13441961  1
  V  V9  1  0.86759925  0.37426480  0.51106311  1
  V  V10  1  0.49965978  0.50945688  0.50661171  1
  V  V11  1  0.11995262  0.36828266  0.26318171  1
  V  V12  1  0.66333621  0.32015113  0.72438872  1
  V  V13  1  0.26427144  0.51339906  0.76521507  1
  V  V14  1  0.37290101  0.89992344  0.00610374  1
  V  V15  1  0.37318957  0.75554428  0.61209344  1
  V  V16  1  0.37436685  0.62811231  0.25309127  1
  V  V17  1  0.37322562  0.74660752  0.12906806  1
  V  V18  1  0.12046473  0.24267367  0.87131616  1
  V  V19  1  0.49700290  0.61732367  0.12619219  1
  V  V20  1  0.89499456  0.73479413  0.13035596  1
  V  V21  1  0.12810548  0.73246235  0.41634938  1
  V  V22  1  0.61702200  0.74660336  0.34784440  1
  V  V23  1  0.75134599  0.75029300  0.01327094  1
  V  V24  1  0.64391622  0.18039182  0.48294749  1
  V  V25  1  0.12889301  0.37817417  0.74576005  1
  V  V26  1  0.25886382  0.36671102  0.62772808  1
  V  V27  1  0.87978261  0.87783569  0.00784322  1
  V  V28  1  0.37547010  0.36827339  0.50351006  1
  V  V29  1  0.09092549  0.86797544  0.25355691  1
  V  V30  1  0.24471871  0.50892397  0.25495186  1
  V  V31  1  0.88462140  0.86811720  0.51246579  1
  V  V32  1  0.24498693  0.37567113  0.12568736  1
  V  V33  1  0.87412487  -0.02466404  0.38059746  1
  V  V34  1  0.24725018  0.11574192  0.88439347  1
  V  V35  1  0.86776771  0.38094003  -0.00240760  1
  V  V36  1  0.48087305  0.24687801  0.72958557  1
  V  V37  1  -0.00440065  0.50301496  -0.00156295  1
  V  V38  1  0.87493828  0.61736826  0.75673273  1
  V  V39  1  0.49215412  0.87746626  0.35745344  1
  V  V40  1  0.38046510  0.24027753  0.13052255  1
  V  V41  1  0.23716918  0.24981785  -0.00103820  1
  V  V42  1  0.25142168  0.74727731  0.00035960  1
  V  V43  1  0.37627983  0.38711590  -0.00475707  1
  V  V44  1  0.57101068  -0.00541374  0.56799283  1
  V  V45  1  0.40573467  0.64313505  0.76045295  1
  V  V46  1  -0.00201111  0.50844386  0.48993480  1
  V  V47  1  0.24241651  -0.00195102  0.74049179  1
  V  V48  1  0.62122174  0.51913432  0.63105249  1
  V  V49  1  0.00118889  0.74563131  0.75259316  1
  V  V50  1  0.87865909  0.25518146  0.12671747  1
  V  V51  1  0.60704854  0.23981337  0.87894440  1
  V  V52  1  0.13114189  0.74093013  0.87808253  1
  V  V53  1  0.75029972  -0.01339752  0.75274498  1
  V  V54  1  0.00167002  0.62227390  0.62740994  1
  V  V55  1  -0.00456782  0.37995983  0.86995003  1
  V  V56  1  0.75673873  0.12830223  0.87409660  1
  V  V57  1  0.61828879  0.76279048  0.87598925  1
  V  V58  1  0.00168293  0.88102841  0.88293164  1
  V  V59  1  0.11157441  0.00633331  0.12024660  1
  V  V60  1  0.62001053  0.61621887  0.00407023  1
  V  V61  1  0.24167119  0.88261996  0.13996819  1
  V  V62  1  0.36996179  0.50893358  0.38069162  1
  V  V63  1  -0.00655840  0.12483391  0.10053854  1
  V  V64  1  0.13474973  0.87685424  0.75147947  1
  V  V65  1  -0.00592379  0.36149697  0.37159649  1
  V  V66  1  0.50536930  0.37520308  0.35887408  1
  V  V67  1  0.37027345  0.11623924  0.73671752  1
  V  V68  1  0.75114833  0.61805699  0.87696308  1
  V  V69  1  0.87948388  0.13091861  0.26512237  1
  V  V70  1  0.12588596  0.62217877  0.00205501  1
  V  V71  1  0.75180257  0.25352883  -0.00151878  1
  V  V72  1  0.88272630  0.12436081  0.72918251  1
  Zn  Zn73  1  0.89108802  0.01220744  0.87960395  1
  Zn  Zn74  1  0.51137161  0.80974964  0.72958100  1
  Zn  Zn75  1  0.63764577  0.61465296  0.48474843  1
  Zn  Zn76  1  0.11347502  0.13033559  0.49240031  1
  Zn  Zn77  1  0.85613971  0.74820780  0.63354713  1
  Zn  Zn78  1  0.39328131  0.01453063  0.33821637  1
  Zn  Zn79  1  0.72147887  0.87697882  0.61959344  1
  Zn  Zn80  1  0.24237299  0.12893859  0.35123961  1
  Zn  Zn81  1  0.48601577  0.38310566  0.86945612  1
  Zn  Zn82  1  0.17464289  0.18950084  0.18226075  1
  Zn  Zn83  1  0.18575893  0.18231552  0.68090582  1
  Zn  Zn84  1  0.17938054  0.69213096  0.19073635  1
  Zn  Zn85  1  0.18928455  0.69255593  0.68178838  1
  Zn  Zn86  1  0.70699928  0.19349040  0.19948197  1
  Zn  Zn87  1  0.69034506  0.13593787  0.66102730  1
  Zn  Zn88  1  0.69875097  0.67004811  0.18925865  1
  Zn  Zn89  1  0.67881425  0.69557444  0.69433052  1
  Zn  Zn90  1  0.31455972  0.31781330  0.31328423  1
  Zn  Zn91  1  0.31113486  0.30724782  0.81422005  1
  Zn  Zn92  1  0.30126001  0.81210009  0.32346684  1
  Zn  Zn93  1  0.32610037  0.81743641  0.82106306  1
  Zn  Zn94  1  0.83809191  0.27303725  0.35591255  1
  Zn  Zn95  1  0.82214035  0.30996066  0.80596546  1
  Zn  Zn96  1  0.81151394  0.80286706  0.30589789  1
  Zn  Zn97  1  0.81566742  0.80259596  0.82436293  1
  Zn  Zn98  1  0.18603472  0.54394546  0.44411438  1
  Zn  Zn99  1  0.18298937  0.43386851  0.93687527  1
  Zn  Zn100  1  0.18278067  0.97480834  0.38364761  1
  Zn  Zn101  1  0.18629168  0.93378679  0.94441578  1
  Zn  Zn102  1  0.67003804  0.39393276  0.45932682  1
  Zn  Zn103  1  0.66962913  0.42940117  0.92016150  1
  Zn  Zn104  1  0.69734445  0.92170595  0.42318036  1
  Zn  Zn105  1  0.70557693  0.93706077  0.93055290  1
  Zn  Zn106  1  0.31518650  0.06127269  0.18103894  1
  Zn  Zn107  1  0.37179001  0.07206855  0.52877769  1
  Zn  Zn108  1  0.30593142  0.56266884  0.06343281  1
  Zn  Zn109  1  0.32344522  0.56774515  0.58358690  1
  Zn  Zn110  1  0.80718408  0.06485040  0.06367090  1
  Zn  Zn111  1  0.79944201  0.05172650  0.55527352  1
  Zn  Zn112  1  0.81004499  0.55890623  0.07073792  1
  Zn  Zn113  1  0.81477108  0.56062972  0.56196918  1
  Zn  Zn114  1  0.43295880  0.44058976  0.18069178  1
  Zn  Zn115  1  0.43788585  0.44237815  0.69216199  1
  Zn  Zn116  1  0.45958605  0.92394967  0.17146902  1
  Zn  Zn117  1  0.41748493  0.94272489  0.66706202  1
  Zn  Zn118  1  0.93415999  0.43767647  0.18930317  1
  Zn  Zn119  1  0.93902771  0.43851698  0.68002095  1
  Zn  Zn120  1  0.92707700  0.94575362  0.18420831  1
  Zn  Zn121  1  0.94214738  0.93598506  0.69013700  1
  Zn  Zn122  1  0.05260822  0.06093362  0.31081263  1
  Zn  Zn123  1  0.03274443  0.07205728  0.62210044  1
  Zn  Zn124  1  0.05764197  0.58055611  0.31273304  1
  Zn  Zn125  1  0.06995987  0.56002736  0.81197953  1
  Zn  Zn126  1  0.60055604  0.04599439  0.36179053  1
  Zn  Zn127  1  0.54639702  0.02469695  0.74570057  1
  Zn  Zn128  1  0.55934877  0.56193007  0.31444323  1
  Zn  Zn129  1  0.56594772  0.55165202  0.82684386  1
  Zn  Zn130  1  0.46277517  0.18860120  0.43326753  1
  Zn  Zn131  1  0.41507429  0.19042487  0.94123493  1
  Zn  Zn132  1  0.44448520  0.69496204  0.43535420  1
  Zn  Zn133  1  0.43514468  0.68347987  0.93676159  1
  Zn  Zn134  1  0.93866838  0.19044137  0.47042258  1
  Zn  Zn135  1  0.93595775  0.19691771  0.92722932  1
  Zn  Zn136  1  0.94611870  0.70185596  0.43702967  1
  Zn  Zn137  1  0.93837031  0.68624282  0.93935301  1
  Zn  Zn138  1  0.05754022  0.31753853  0.06362657  1
  Zn  Zn139  1  0.07512744  0.32878524  0.54729718  1
  Zn  Zn140  1  0.06484853  0.81136045  0.06510506  1
  Zn  Zn141  1  0.08416652  0.87540528  0.55537473  1
  Zn  Zn142  1  0.55928584  0.30906853  0.06339878  1
  Zn  Zn143  1  0.55440107  0.31668954  0.56444086  1
  Zn  Zn144  1  0.53899277  0.80422049  0.03195844  1
  Zn  Zn145  1  0.54619791  0.80728765  0.54708165  1
  O  O146  1  0.10513569  0.11647055  0.12273673  1
  O  O147  1  0.13394083  0.11873537  0.60684096  1
  O  O148  1  0.12586136  0.61373445  0.11705273  1
  O  O149  1  0.11005790  0.61801590  0.64489026  1
  O  O150  1  0.61943314  0.16027804  0.13109996  1
  O  O151  1  0.59932436  0.06413015  0.64147906  1
  O  O152  1  0.61761075  0.62363568  0.11697769  1
  O  O153  1  0.62156471  0.61872170  0.62410635  1
  O  O154  1  0.37882978  0.38879387  0.38723384  1
  O  O155  1  0.37087792  0.36895385  0.89025175  1
  O  O156  1  0.38765377  0.87560641  0.35424697  1
  O  O157  1  0.37992206  0.87004713  0.90891032  1
  O  O158  1  0.89227371  0.37728019  0.36754678  1
  O  O159  1  0.88756054  0.37172761  0.88062348  1
  O  O160  1  0.87590705  0.87198812  0.38306297  1
  O  O161  1  0.89201166  0.86610924  0.88653239  1
  O  O162  1  0.28092075  0.01924833  0.35504911  1
  O  O163  1  0.23403042  0.01490720  0.87910337  1
  O  O164  1  0.25911755  0.49943403  0.36755561  1
  O  O165  1  0.24261567  0.49124316  0.86122524  1
  O  O166  1  0.76846206  0.00018506  0.36992168  1
  O  O167  1  0.76661882  0.01402217  0.87539587  1
  O  O168  1  0.74670939  0.49450019  0.31706498  1
  O  O169  1  0.73766136  0.51164073  0.86186029  1
  O  O170  1  0.23746574  0.49278327  0.13330476  1
  O  O171  1  0.25399148  0.48372742  0.65133907  1
  O  O172  1  0.23230626  0.98683615  0.12861376  1
  O  O173  1  0.24200337  0.99504771  0.64534980  1
  O  O174  1  0.73658776  0.49794480  0.12926369  1
  O  O175  1  0.73572388  0.50540578  0.63267106  1
  O  O176  1  0.75836803  1.00087344  0.13973700  1
  O  O177  1  0.75156539  0.98925511  0.64596486  1
  O  O178  1  0.01060674  0.38081261  0.25911744  1
  O  O179  1  0.00669538  0.37335745  0.75165927  1
  O  O180  1  -0.00855338  0.87193306  0.24210007  1
  O  O181  1  0.01060169  0.86319840  0.76693587  1
  O  O182  1  0.48844350  0.38432403  0.26030802  1
  O  O183  1  0.47405643  0.35075511  0.75548432  1
  O  O184  1  0.51040776  0.86360336  0.25295640  1
  O  O185  1  0.49766476  0.92179450  0.74401658  1
  O  O186  1  0.56472500  0.10825560  0.16630633  1
  O  O187  1  0.47596072  0.12263677  0.75293447  1
  O  O188  1  0.48184957  0.61983411  0.24060416  1
  O  O189  1  0.50352053  0.62100741  0.76512855  1
  O  O190  1  0.98094623  0.12249074  0.23931989  1
  O  O191  1  0.98919932  0.13306446  0.72515800  1
  O  O192  1  0.98601770  0.62947310  0.24492156  1
  O  O193  1  0.99174562  0.62423595  0.75218722  1
  O  O194  1  0.35434377  0.26199915  0.00984512  1
  O  O195  1  0.37750969  0.26716735  0.49732672  1
  O  O196  1  0.36171207  0.73957708  0.01307962  1
  O  O197  1  0.37078008  0.72336634  0.51447181  1
  O  O198  1  0.87053429  0.26216190  0.00322021  1
  O  O199  1  0.86074554  0.27239051  0.47926363  1
  O  O200  1  0.86771729  0.74971408  0.00721708  1
  O  O201  1  0.86302211  0.75644176  0.50440154  1
  O  O202  1  0.14558742  0.25334884  0.49521633  1
  O  O203  1  0.12769444  0.26355573  0.98636080  1
  O  O204  1  0.12383711  0.75735341  0.51404380  1
  O  O205  1  0.13038952  0.74071422  0.99705483  1
  O  O206  1  0.64544028  0.28553664  0.49962810  1
  O  O207  1  0.63449610  0.26075773  0.98168230  1
  O  O208  1  0.63636106  0.74436776  0.49909948  1
  O  O209  1  0.64004150  0.74401027  1.00432943  1
  O  O210  1  0.48006715  0.24878781  0.11530943  1
  O  O211  1  0.48658016  0.25110112  0.63138864  1
  O  O212  1  0.48022161  0.73581268  0.11581696  1
  O  O213  1  0.48943757  0.75546199  0.62911391  1
  O  O214  1  0.99141047  0.23839201  0.11637035  1
  O  O215  1  1.01075760  0.26798113  0.62805326  1
  O  O216  1  0.99329987  0.74186849  0.11611679  1
  O  O217  1  1.00213570  0.73722630  0.64780808  1
  O  O218  1  0.00225887  0.26398939  0.38321862  1
  O  O219  1  0.00588272  0.26098337  0.86065749  1
  O  O220  1  0.03242197  0.75241658  0.38403400  1
  O  O221  1  0.01036940  0.74785693  0.86980295  1
  O  O222  1  0.50036554  0.27521909  0.37574538  1
  O  O223  1  0.50423608  0.24546284  0.88745128  1
  O  O224  1  0.51089951  0.74868927  0.36038262  1
  O  O225  1  0.52032535  0.75985067  0.91252721  1
  O  O226  1  0.26533119  0.14696282  0.50703909  1
  O  O227  1  0.24119781  0.14046200  0.98736608  1
  O  O228  1  0.21508553  0.57414226  0.54988302  1
  O  O229  1  0.23594048  0.63247023  1.00536880  1
  O  O230  1  0.71794309  0.13395811  0.54386794  1
  O  O231  1  0.75997460  0.13425162  0.98361979  1
  O  O232  1  0.75316566  0.64062521  0.50882506  1
  O  O233  1  0.74570659  0.63298209  0.99617669  1
  O  O234  1  0.24950669  0.37128196  0.00824567  1
  O  O235  1  0.26662224  0.36827450  0.50806714  1
  O  O236  1  0.25423655  0.86521492  0.01267420  1
  O  O237  1  0.25101326  0.91106458  0.52431034  1
  O  O238  1  0.75913629  0.36876573  -0.01914759  1
  O  O239  1  0.77526701  0.40720272  0.48751250  1
  O  O240  1  0.76843325  0.85629151  -0.00908252  1
  O  O241  1  0.75516395  0.85927663  0.50342503  1
  O  O242  1  0.12794624  0.50014514  0.24485186  1
  O  O243  1  0.13243681  0.48964355  0.74145648  1
  O  O244  1  0.10478119  0.98617853  0.22930509  1
  O  O245  1  0.13051179  0.98023619  0.75622901  1
  O  O246  1  0.61473664  0.50705091  0.23142532  1
  O  O247  1  0.63429643  0.50698503  0.73734976  1
  O  O248  1  0.65072841  1.01231253  0.26380753  1
  O  O249  1  0.65353595  0.99667624  0.77628984  1
  O  O250  1  0.40196362  0.00692132  0.22254691  1
  O  O251  1  0.35486971  0.00803897  0.75253086  1
  O  O252  1  0.36270277  0.50724139  0.25745936  1
  O  O253  1  0.37000098  0.51142337  0.75621215  1
  O  O254  1  0.86934439  0.01012167  0.26351794  1
  O  O255  1  0.87855353  0.01159759  0.75387690  1
  O  O256  1  0.88545730  0.51185523  0.25508546  1
  O  O257  1  0.86439061  0.50822363  0.74207928  1
  O  O258  1  0.11514579  0.38069746  0.36372429  1
  O  O259  1  0.11559989  0.36859470  0.86205520  1
  O  O260  1  0.11165336  0.89280080  0.35070551  1
  O  O261  1  0.11527520  0.86093629  0.87927707  1
  O  O262  1  0.60291425  0.40118470  0.37106175  1
  O  O263  1  0.64431479  0.33298719  0.84121764  1
  O  O264  1  0.62408213  0.85161898  0.36796401  1
  O  O265  1  0.63472746  0.86076945  0.88710206  1
  O  O266  1  0.36298222  0.14308803  0.11351962  1
  O  O267  1  0.36341900  0.11533240  0.63740887  1
  O  O268  1  0.37664370  0.62592106  0.13205023  1
  O  O269  1  0.38150458  0.63339204  0.65503739  1
  O  O270  1  0.88476929  0.13419413  0.12028804  1
  O  O271  1  0.86204668  0.11732998  0.63217435  1
  O  O272  1  0.87953206  0.63420929  0.11833851  1
  O  O273  1  0.88456369  0.62735006  0.63872845  1
  O  O274  1  0.23845490  0.26364399  0.11516588  1
  O  O275  1  0.24995875  0.26321710  0.61904558  1
  O  O276  1  0.24911069  0.75500580  0.11713687  1
  O  O277  1  0.27539570  0.74663434  0.64446299  1
  O  O278  1  0.76179404  0.24519307  0.10547689  1
  O  O279  1  0.71801504  0.24900532  0.68087861  1
  O  O280  1  0.75842240  0.74633932  0.11344451  1
  O  O281  1  0.74010555  0.76183391  0.62530347  1
  O  O282  1  0.26297711  0.24323907  0.38447731  1
  O  O283  1  0.23768457  0.24815793  0.88148320  1
  O  O284  1  0.21852177  0.76772923  0.38111318  1
  O  O285  1  0.24082742  0.75813470  0.88954720  1
  O  O286  1  0.72099424  0.28506974  0.34320290  1
  O  O287  1  0.76341894  0.23864083  0.87976380  1
  O  O288  1  0.74096792  0.74990580  0.38531126  1
  O  O289  1  0.73837910  0.73604214  0.88227204  1
  O  O290  1  -0.00804517  0.12625964  0.00120910  1
  O  O291  1  0.00115162  0.11822617  0.51816076  1
  O  O292  1  0.01009213  0.61178089  -0.00722251  1
  O  O293  1  -0.00501304  0.61558080  0.51396300  1
  O  O294  1  0.49279097  0.09781535  -0.01883373  1
  O  O295  1  0.54974934  0.15840075  0.51249996  1
  O  O296  1  0.51481163  0.62559246  0.00610541  1
  O  O297  1  0.50739035  0.61036581  0.49520550  1
  O  O298  1  0.48802618  0.38857469  0.49832539  1
  O  O299  1  0.47648053  0.37113191  1.00397748  1
  O  O300  1  0.50093432  0.86327864  0.46272123  1
  O  O301  1  0.47379691  0.89547906  1.05134888  1
  O  O302  1  0.99011094  0.38389361  0.48797367  1
  O  O303  1  0.99168925  0.38260106  0.98920642  1
  O  O304  1  0.98196120  0.86249125  0.49990875  1
  O  O305  1  0.99180546  0.86355949  0.99165007  1
  O  O306  1  0.48538823  0.49681270  0.38422061  1
  O  O307  1  0.56203537  0.46057903  0.88784517  1
  O  O308  1  0.50568517  0.98387831  0.35794886  1
  O  O309  1  0.50655336  1.03956178  0.93726222  1
  O  O310  1  1.00638224  0.50173530  0.38955845  1
  O  O311  1  1.00871656  0.48914584  0.88332562  1
  O  O312  1  0.96728320  1.01357508  0.37773324  1
  O  O313  1  1.00379011  0.97962860  0.87973964  1
  O  O314  1  -0.00217684  0.01418476  0.11772239  1
  O  O315  1  0.02350321  -0.03843314  0.61908387  1
  O  O316  1  0.00858624  0.49044668  0.11184164  1
  O  O317  1  0.01298703  0.50862526  0.62274527  1
  O  O318  1  0.54189874  0.05319954  0.12125578  1
  O  O319  1  0.46727190  0.00005699  0.57114183  1
  O  O320  1  0.50183979  0.51323158  0.12050380  1
  O  O321  1  0.51359667  0.49599433  0.62307208  1
  O  O322  1  0.23806375  0.38794577  0.24574618  1
  O  O323  1  0.24222982  0.37012878  0.74631678  1
  O  O324  1  0.24224187  0.87237508  0.23888738  1
  O  O325  1  0.24292872  0.88635121  0.77321735  1
  O  O326  1  0.74880595  0.42950486  0.28608035  1
  O  O327  1  0.75123418  0.38494576  0.75057961  1
  O  O328  1  0.76159077  0.89011488  0.25218501  1
  O  O329  1  0.76814217  0.88648539  0.76477423  1
  O  O330  1  0.24273394  0.12552584  0.23838217  1
  O  O331  1  0.24830163  0.11431816  0.75867242  1
  O  O332  1  0.25343011  0.61412906  0.24207324  1
  O  O333  1  0.24279201  0.61045326  0.75384688  1
  O  O334  1  0.77384217  0.11601187  0.24502213  1
  O  O335  1  0.76316371  0.11184489  0.75693947  1
  O  O336  1  0.77920059  0.62643870  0.24841989  1
  O  O337  1  0.75574666  0.62016834  0.75678691  1
  O  O338  1  0.40397169  0.09691808  0.42423181  1
  O  O339  1  0.35038896  0.12757966  0.86928018  1
  O  O340  1  0.37863577  0.61784360  0.36659148  1
  O  O341  1  0.37232762  0.63405450  0.85823851  1
  O  O342  1  0.87695740  0.15501551  0.36474838  1
  O  O343  1  0.87211805  0.12761922  0.86099685  1
  O  O344  1  0.88422824  0.63297177  0.37128286  1
  O  O345  1  0.86391600  0.62708816  0.86818801  1
  O  O346  1  0.12762028  0.38574576  0.13273212  1
  O  O347  1  0.13956795  0.38805716  0.62887194  1
  O  O348  1  0.12745915  0.87921558  0.13243030  1
  O  O349  1  0.13802188  0.85192305  0.65635885  1
  O  O350  1  0.61810321  0.38859740  0.11820509  1
  O  O351  1  0.61692850  0.37162886  0.65052061  1
  O  O352  1  0.63111787  0.91360739  0.07908358  1
  O  O353  1  0.60364063  0.90163310  0.60296690  1
  O  O354  1  0.12604310  0.26999156  0.24793446  1
  O  O355  1  0.11797104  0.25968336  0.75003606  1
  O  O356  1  0.11602173  0.76786361  0.24254130  1
  O  O357  1  0.12211736  0.75024371  0.76580113  1
  O  O358  1  0.68843439  0.28703903  0.27289269  1
  O  O359  1  0.58747057  0.23679711  0.75469581  1
  O  O360  1  0.63243645  0.74149190  0.24956042  1
  O  O361  1  0.60970088  0.75040133  0.77184403  1
  O  O362  1  0.36379086  0.25904025  0.22950378  1
  O  O363  1  0.37385438  0.23014859  0.75295451  1
  O  O364  1  0.35619020  0.73608159  0.24061042  1
  O  O365  1  0.40116846  0.75335720  0.75860879  1
  O  O366  1  0.86674197  0.24181065  0.23434836  1
  O  O367  1  0.88677841  0.23649754  0.74493056  1
  O  O368  1  0.87703189  0.74388300  0.23280966  1
  O  O369  1  0.88382774  0.73723602  0.75415361  1
  O  O370  1  0.37980971  0.50249013  0.49799000  1
  O  O371  1  0.36426839  0.48720038  1.00274658  1
  O  O372  1  0.30680089  0.95065226  0.49274074  1
  O  O373  1  0.35410023  0.99423868  1.00908089  1
  O  O374  1  0.89415278  0.49359815  0.51058500  1
  O  O375  1  0.88323915  0.49205572  1.00552578  1
  O  O376  1  0.86122059  0.97821116  0.49317317  1
  O  O377  1  0.86943204  0.98011526  1.00032443  1
  O  O378  1  0.11914071  -0.01369928  0.02136435  1
  O  O379  1  0.17374606  -0.06503738  0.49846326  1
  O  O380  1  0.11828893  0.50398070  0.00750503  1
  O  O381  1  0.10488193  0.48504245  0.51113278  1
  O  O382  1  0.64039155  -0.03016999  0.03086551  1
  O  O383  1  0.62163340  0.00299772  0.47783058  1
  O  O384  1  0.63662139  0.51605452  0.01226218  1
  O  O385  1  0.61979291  0.49523341  0.51844572  1
  O  O386  1  0.35798643  0.37425239  0.11715244  1
  O  O387  1  0.37175876  0.38508573  0.61255857  1
  O  O388  1  0.35208573  0.86237428  0.12453202  1
  O  O389  1  0.37163308  0.85785394  0.61252783  1
  O  O390  1  0.88213024  0.36641617  0.11171391  1
  O  O391  1  0.87556523  0.37137502  0.61130758  1
  O  O392  1  0.88386247  0.86135966  0.11025088  1
  O  O393  1  0.87392580  0.86890842  0.61782697  1
  O  O394  1  0.13468217  0.08688094  0.38802672  1
  O  O395  1  0.13276094  0.14233141  0.86538938  1
  O  O396  1  0.13013810  0.62579266  0.39028256  1
  O  O397  1  0.12442330  0.63145289  0.88668783  1
  O  O398  1  0.64799362  0.14903109  0.38655182  1
  O  O399  1  0.64643711  0.14172912  0.86746182  1
  O  O400  1  0.62232262  0.63769054  0.37293246  1
  O  O401  1  0.63100946  0.63288647  0.89276457  1
