# generated using pymatgen
data_V73Zn73O256
_symmetry_space_group_name_H-M   'P 1'
_cell_length_a   16.91135383
_cell_length_b   16.85805871
_cell_length_c   16.86124816
_cell_angle_alpha   89.82392977
_cell_angle_beta   89.74594526
_cell_angle_gamma   90.18560583
_symmetry_Int_Tables_number   1
_chemical_formula_structural   V73Zn73O256
_chemical_formula_sum   'V73 Zn73 O256'
_cell_volume   4806.92161924
_cell_formula_units_Z   1
loop_
 _symmetry_equiv_pos_site_id
 _symmetry_equiv_pos_as_xyz
  1  'x, y, z'
loop_
 _atom_site_type_symbol
 _atom_site_label
 _atom_site_symmetry_multiplicity
 _atom_site_fract_x
 _atom_site_fract_y
 _atom_site_fract_z
 _atom_site_occupancy
  V  V0  1  0.76351548  0.88092674  0.61892630  1
  V  V1  1  0.13850637  0.28825096  0.37125796  1
  V  V2  1  0.37547486  0.00452910  0.87331007  1
  V  V3  1  0.25795729  0.87041619  0.60932873  1
  V  V4  1  0.48835857  0.73814172  0.74815996  1
  V  V5  1  -0.00457961  0.48062609  0.50613541  1
  V  V6  1  0.12764135  0.62570027  -0.01358114  1
  V  V7  1  0.61708966  0.50757529  0.62873341  1
  V  V8  1  0.63098387  0.01184946  0.62438606  1
  V  V9  1  0.87430561  0.62727493  0.24981091  1
  V  V10  1  0.00244376  0.75611946  0.75609890  1
  V  V11  1  0.00654135  0.13073313  0.15774809  1
  V  V12  1  0.74931175  0.36574837  0.11930989  1
  V  V13  1  0.69054674  -0.07804386  0.19737561  1
  V  V14  1  0.01670060  0.74655957  0.25577977  1
  V  V15  1  0.25519292  0.00391623  0.74668236  1
  V  V16  1  0.11575285  0.37324207  0.75291442  1
  V  V17  1  0.61984449  0.37555976  0.25066734  1
  V  V18  1  0.87374798  0.63263018  0.73754818  1
  V  V19  1  0.76192335  0.75535213  0.50728502  1
  V  V20  1  0.36773664  -0.00044789  0.38907911  1
  V  V21  1  0.23809524  0.49478697  0.25655603  1
  V  V22  1  0.87455415  0.48249983  0.37901861  1
  V  V23  1  0.37798209  0.25799404  0.65038338  1
  V  V24  1  -0.00930900  0.49450099  -0.01828146  1
  V  V25  1  0.37425010  0.86878733  0.00368071  1
  V  V26  1  0.50725785  0.11837150  0.12456936  1
  V  V27  1  0.00628273  0.61986665  0.12297018  1
  V  V28  1  0.36193103  0.12207964  0.24798959  1
  V  V29  1  0.86817512  0.37038833  -0.01470714  1
  V  V30  1  0.75907382  0.63047645  0.87523481  1
  V  V31  1  0.50927090  0.00378784  0.50187282  1
  V  V32  1  0.75727215  0.77121871  -0.00361524  1
  V  V33  1  0.75137166  0.50376300  0.75308626  1
  V  V34  1  -0.00372072  0.87852510  0.38815439  1
  V  V35  1  0.37992853  0.52222440  0.36358394  1
  V  V36  1  0.13042645  0.86721373  0.75872137  1
  V  V37  1  0.49204642  0.50098807  0.50384743  1
  V  V38  1  0.50722319  -0.00124038  0.00558415  1
  V  V39  1  0.37668109  0.74342102  0.61169562  1
  V  V40  1  0.62073337  0.76276320  0.37042556  1
  V  V41  1  0.26009979  0.26118153  0.50481245  1
  V  V42  1  0.50715578  0.87134526  0.87441038  1
  V  V43  1  0.25056008  0.74296147  -0.01250289  1
  V  V44  1  0.61752128  0.24224093  0.39148186  1
  V  V45  1  0.48913759  0.12983558  0.63879701  1
  V  V46  1  0.61265415  0.22803531  0.91621750  1
  V  V47  1  0.48953433  0.24874047  0.24851428  1
  V  V48  1  0.75510682  0.37719026  0.61957637  1
  V  V49  1  0.62109322  0.36050849  0.75462232  1
  V  V50  1  0.11702650  0.24429021  0.87225356  1
  V  V51  1  0.61643299  0.86942991  0.74449885  1
  V  V52  1  0.37400713  0.51707843  0.87476192  1
  V  V53  1  0.11136219  0.00214620  0.61715593  1
  V  V54  1  0.24878659  0.38483987  0.63159213  1
  V  V55  1  0.13361149  0.88452331  0.26004054  1
  V  V56  1  0.12756961  0.48074544  0.11880392  1
  V  V57  1  0.87871150  0.76458643  0.11983232  1
  V  V58  1  0.24949372  0.51181297  0.75920344  1
  V  V59  1  0.63247651  0.63582097  -0.00371459  1
  V  V60  1  0.62771412  0.50990313  0.12659404  1
  V  V61  1  0.75117754  -0.01744414  0.78983389  1
  V  V62  1  0.76271627  0.25388550  0.50067521  1
  V  V63  1  0.13083330  0.62621908  0.48051676  1
  V  V64  1  0.50170348  0.50224214  -0.00365504  1
  V  V65  1  0.01127716  0.63049173  0.61796092  1
  V  V66  1  0.24380263  0.12873336  0.38773830  1
  V  V67  1  0.49216682  0.63957861  0.13440615  1
  V  V68  1  0.25278838  0.24656005  0.00850761  1
  V  V69  1  0.61834367  0.62950049  0.50460290  1
  V  V70  1  0.25067621  0.87096620  0.13123530  1
  V  V71  1  0.75095413  0.62901304  0.37571855  1
  V  V72  1  0.48805084  0.37747961  0.38069552  1
  Zn  Zn73  1  0.36149679  0.37675027  0.00704302  1
  Zn  Zn74  1  0.87436972  0.13301687  0.77380155  1
  Zn  Zn75  1  0.12527083  0.00183736  0.11991477  1
  Zn  Zn76  1  0.77626581  0.18001400  -0.02867685  1
  Zn  Zn77  1  0.80982561  0.08128888  0.32200505  1
  Zn  Zn78  1  0.49135819  0.36701680  0.86605375  1
  Zn  Zn79  1  0.49570206  0.87555597  0.38348206  1
  Zn  Zn80  1  0.75139911  0.49288283  0.25320727  1
  Zn  Zn81  1  0.24279624  0.12441158  0.87565688  1
  Zn  Zn82  1  0.17561357  0.19541978  0.18849607  1
  Zn  Zn83  1  0.18592831  0.18977784  0.68431104  1
  Zn  Zn84  1  0.23213686  0.69610933  0.21459495  1
  Zn  Zn85  1  0.18941915  0.68823922  0.67917874  1
  Zn  Zn86  1  0.67720478  0.19187249  0.18358226  1
  Zn  Zn87  1  0.71524580  0.18433224  0.69286859  1
  Zn  Zn88  1  0.69001107  0.70491210  0.18546320  1
  Zn  Zn89  1  0.68458050  0.69332949  0.68794464  1
  Zn  Zn90  1  0.30890579  0.31967415  0.30289158  1
  Zn  Zn91  1  0.30668886  0.32218136  0.82837224  1
  Zn  Zn92  1  0.32143562  0.81181824  0.32149893  1
  Zn  Zn93  1  0.31599669  0.81309423  0.80973578  1
  Zn  Zn94  1  0.80167999  0.28656732  0.30775167  1
  Zn  Zn95  1  0.80259188  0.27867331  0.82992681  1
  Zn  Zn96  1  0.81952064  0.81443165  0.31589134  1
  Zn  Zn97  1  0.82187885  0.82146389  0.80878745  1
  Zn  Zn98  1  0.20106983  0.46192873  0.45667181  1
  Zn  Zn99  1  0.18557608  0.43180689  0.93549186  1
  Zn  Zn100  1  0.17884772  0.93777068  0.43996611  1
  Zn  Zn101  1  0.19279205  0.93097786  0.93452941  1
  Zn  Zn102  1  0.68041277  0.43956707  0.43671838  1
  Zn  Zn103  1  0.68541040  0.44041471  0.93531449  1
  Zn  Zn104  1  0.70127896  0.94765637  0.42099805  1
  Zn  Zn105  1  0.72448510  0.99642428  1.00665002  1
  Zn  Zn106  1  0.30615275  0.06136522  0.05777897  1
  Zn  Zn107  1  0.31273284  0.06818835  0.56608785  1
  Zn  Zn108  1  0.31155853  0.56330748  0.07010211  1
  Zn  Zn109  1  0.31366343  0.56410877  0.56314121  1
  Zn  Zn110  1  0.81152691  0.07468305  0.14782015  1
  Zn  Zn111  1  0.80280787  0.05670109  0.51781707  1
  Zn  Zn112  1  0.81261915  0.56235213  0.06230064  1
  Zn  Zn113  1  0.81172604  0.56172493  0.56190045  1
  Zn  Zn114  1  0.43072219  0.43919892  0.18341165  1
  Zn  Zn115  1  0.43657714  0.44445367  0.69512988  1
  Zn  Zn116  1  0.42584100  0.94420589  0.19196238  1
  Zn  Zn117  1  0.43707556  0.93608770  0.68234024  1
  Zn  Zn118  1  0.93044077  0.44364752  0.17932471  1
  Zn  Zn119  1  0.93352075  0.44216352  0.68746914  1
  Zn  Zn120  1  0.93925417  0.94763330  0.19959293  1
  Zn  Zn121  1  0.93901946  0.95846033  0.71389848  1
  Zn  Zn122  1  0.06585297  0.05796711  0.32279539  1
  Zn  Zn123  1  0.06631599  0.08672384  0.76542643  1
  Zn  Zn124  1  0.05808308  0.54844916  0.31280014  1
  Zn  Zn125  1  0.06261475  0.56181015  0.80358626  1
  Zn  Zn126  1  0.55304708  0.06932431  0.31606209  1
  Zn  Zn127  1  0.56880151  0.05935058  0.81800942  1
  Zn  Zn128  1  0.56241239  0.56903432  0.31310634  1
  Zn  Zn129  1  0.56788615  0.57093905  0.81769417  1
  Zn  Zn130  1  0.43544354  0.18555300  0.44843907  1
  Zn  Zn131  1  0.43611929  0.18909257  0.93822021  1
  Zn  Zn132  1  0.43831993  0.69159433  0.43863913  1
  Zn  Zn133  1  0.44106468  0.68894490  0.94190208  1
  Zn  Zn134  1  0.95943884  0.21437014  0.33245127  1
  Zn  Zn135  1  0.94290019  0.19767669  0.94396759  1
  Zn  Zn136  1  0.94099766  0.68985440  0.43755410  1
  Zn  Zn137  1  0.93847464  0.68691226  0.93357419  1
  Zn  Zn138  1  0.05707127  0.30428893  0.04806026  1
  Zn  Zn139  1  0.03344788  0.27374221  0.51233764  1
  Zn  Zn140  1  0.07557656  0.80402498  0.07260060  1
  Zn  Zn141  1  0.07750325  0.80552541  0.56483439  1
  Zn  Zn142  1  0.53056278  0.32326493  0.07122399  1
  Zn  Zn143  1  0.55735045  0.31942237  0.57221970  1
  Zn  Zn144  1  0.56836150  0.81772349  0.06322590  1
  Zn  Zn145  1  0.56122543  0.81599329  0.56228154  1
  O  O146  1  0.11872859  0.11436154  0.13588212  1
  O  O147  1  0.11477258  0.10460928  0.65210125  1
  O  O148  1  0.11181427  0.61129591  0.11153309  1
  O  O149  1  0.11195745  0.61690634  0.62240142  1
  O  O150  1  0.60538801  0.11749045  0.13125190  1
  O  O151  1  0.62886617  0.11448317  0.64093870  1
  O  O152  1  0.62964296  0.62582007  0.11680857  1
  O  O153  1  0.63093772  0.61942091  0.61528831  1
  O  O154  1  0.38616919  0.38393594  0.37121885  1
  O  O155  1  0.38020621  0.39150982  0.88430707  1
  O  O156  1  0.37104354  0.89561421  0.37895689  1
  O  O157  1  0.38114728  0.88062345  0.88504490  1
  O  O158  1  0.85730221  0.38667086  0.36649373  1
  O  O159  1  0.85465085  0.36830326  0.88617200  1
  O  O160  1  0.89584228  0.86709716  0.37606353  1
  O  O161  1  0.91264490  0.86678540  0.91549356  1
  O  O162  1  0.25940595  0.01586075  0.39161285  1
  O  O163  1  0.25587193  -0.00132095  0.86508499  1
  O  O164  1  0.26814301  0.50211357  0.36028377  1
  O  O165  1  0.26120759  0.49958958  0.87023403  1
  O  O166  1  0.68973421  -0.01070509  0.29145025  1
  O  O167  1  0.73293040  -0.00924665  0.88703359  1
  O  O168  1  0.75659043  0.51220530  0.37573795  1
  O  O169  1  0.74300125  0.51597820  0.86239776  1
  O  O170  1  0.22711588  0.48880090  0.10129062  1
  O  O171  1  0.26798294  0.49027145  0.64425141  1
  O  O172  1  0.23898223  0.97719692  0.10526461  1
  O  O173  1  0.25429729  0.99041341  0.63461970  1
  O  O174  1  0.73901925  0.49942327  0.13176817  1
  O  O175  1  0.73799448  0.49739715  0.62931203  1
  O  O176  1  0.74311098  0.97037027  0.12426692  1
  O  O177  1  0.74223134  0.98740673  0.60461043  1
  O  O178  1  -0.01365311  0.36306010  0.24718688  1
  O  O179  1  0.01772213  0.38879850  0.73903699  1
  O  O180  1  0.01654531  0.86275975  0.25587405  1
  O  O181  1  0.01334584  0.86258269  0.74526920  1
  O  O182  1  0.50277365  0.36764128  0.25705896  1
  O  O183  1  0.51633223  0.38069607  0.74940251  1
  O  O184  1  0.47427290  0.85812162  0.25829382  1
  O  O185  1  0.50163678  0.87470979  0.75651070  1
  O  O186  1  0.48557936  0.12855446  0.24391507  1
  O  O187  1  0.50347455  0.11389982  0.73695684  1
  O  O188  1  0.51055651  0.63031853  0.23398212  1
  O  O189  1  0.50135528  0.63967409  0.75177653  1
  O  O190  1  1.00671480  0.13488972  0.26458094  1
  O  O191  1  0.95858673  0.06123786  0.76452106  1
  O  O192  1  0.99623737  0.62952375  0.24437918  1
  O  O193  1  0.99464115  0.62822523  0.73682335  1
  O  O194  1  0.35837557  0.25137820  -0.00746255  1
  O  O195  1  0.36636106  0.25406084  0.51226991  1
  O  O196  1  0.36284896  0.75666401  -0.00155510  1
  O  O197  1  0.38261529  0.75717261  0.51156520  1
  O  O198  1  0.87594114  0.27112301  0.00859805  1
  O  O199  1  0.85831736  0.26460986  0.49449152  1
  O  O200  1  0.87535404  0.74771192  0.01120588  1
  O  O201  1  0.85997695  0.74360365  0.50018336  1
  O  O202  1  0.15110110  0.26587595  0.49201439  1
  O  O203  1  0.13320797  0.25002857  0.97927745  1
  O  O204  1  0.13925578  0.72385763  0.50475086  1
  O  O205  1  0.13274835  0.73471544  0.99952007  1
  O  O206  1  0.60605166  0.25278316  0.49165422  1
  O  O207  1  0.59705196  0.24392874  1.01488871  1
  O  O208  1  0.63212784  0.74389326  0.49771443  1
  O  O209  1  0.64935766  0.74873733  1.00817653  1
  O  O210  1  0.49581062  0.23060941  0.14070079  1
  O  O211  1  0.48832063  0.24158859  0.62879148  1
  O  O212  1  0.50374326  0.73755820  0.11151180  1
  O  O213  1  0.48631419  0.75937513  0.63498656  1
  O  O214  1  1.02674812  0.22829033  0.12450552  1
  O  O215  1  0.98647272  0.19122643  0.58442519  1
  O  O216  1  0.99490587  0.73962624  0.12951136  1
  O  O217  1  1.00574338  0.73554435  0.63184666  1
  O  O218  1  0.03618552  0.26576369  0.39472702  1
  O  O219  1  0.01602801  0.25177709  0.87700658  1
  O  O220  1  0.00234881  0.74926637  0.35801319  1
  O  O221  1  0.00634836  0.73975842  0.85545746  1
  O  O222  1  0.50158980  0.25765786  0.37232570  1
  O  O223  1  0.51434501  0.25270260  0.87940510  1
  O  O224  1  0.51660680  0.75776396  0.38773876  1
  O  O225  1  0.48907652  0.75938801  0.86015771  1
  O  O226  1  0.25591274  0.14088365  0.49414752  1
  O  O227  1  0.24908320  0.13456377  0.99250593  1
  O  O228  1  0.22377683  0.57979482  0.49733543  1
  O  O229  1  0.23866290  0.63258744  1.00506325  1
  O  O230  1  0.74540941  0.15518717  0.51321184  1
  O  O231  1  0.76573666  0.09682573  1.04172091  1
  O  O232  1  0.74284760  0.63472540  0.49500988  1
  O  O233  1  0.75088581  0.63047953  0.99097393  1
  O  O234  1  0.24722015  0.35743749  -0.00594669  1
  O  O235  1  0.25710201  0.38183091  0.52399848  1
  O  O236  1  0.25367863  0.85931212  0.00450903  1
  O  O237  1  0.24866150  0.87717744  0.51046491  1
  O  O238  1  0.75803170  0.39230994  0.01122627  1
  O  O239  1  0.74035808  0.38122754  0.51421007  1
  O  O240  1  0.75777582  0.86853476  -0.00304113  1
  O  O241  1  0.74905549  0.86322095  0.50713052  1
  O  O242  1  0.13058218  0.49423727  0.23559751  1
  O  O243  1  0.14154002  0.48892773  0.76099338  1
  O  O244  1  0.13286901  0.98467296  0.25762188  1
  O  O245  1  0.13877788  0.98281623  0.74255853  1
  O  O246  1  0.62555428  0.49275681  0.24609227  1
  O  O247  1  0.63286725  0.51192449  0.74093945  1
  O  O248  1  0.61283801  0.98961240  0.25390132  1
  O  O249  1  0.63694980  0.98775128  0.74811154  1
  O  O250  1  0.37702485  0.01451763  0.27169238  1
  O  O251  1  0.36180199  -0.01373367  0.75839178  1
  O  O252  1  0.39515433  0.50754566  0.26424526  1
  O  O253  1  0.36746070  0.50405922  0.76596095  1
  O  O254  1  0.85691582  0.01051931  0.23908296  1
  O  O255  1  0.84765314  -0.06384764  0.78836974  1
  O  O256  1  0.87388749  0.51037148  0.26207839  1
  O  O257  1  0.85880474  0.51431461  0.74296676  1
  O  O258  1  0.15248167  0.38763655  0.37581254  1
  O  O259  1  0.12689371  0.36534061  0.86019063  1
  O  O260  1  0.12783604  0.86719984  0.36401411  1
  O  O261  1  0.13051178  0.87077588  0.85778731  1
  O  O262  1  0.60946109  0.37660642  0.36607948  1
  O  O263  1  0.62617320  0.38000894  0.85792116  1
  O  O264  1  0.62788205  0.86599264  0.38338690  1
  O  O265  1  0.60919404  0.87266271  0.86141907  1
  O  O266  1  0.36669009  0.11368810  0.14573282  1
  O  O267  1  0.38311102  0.13539551  0.63319046  1
  O  O268  1  0.39344296  0.62226249  0.11980800  1
  O  O269  1  0.36913088  0.64288862  0.62071334  1
  O  O270  1  0.91288798  0.12828281  0.11989984  1
  O  O271  1  0.89468396  0.09448071  0.58495130  1
  O  O272  1  0.88607484  0.62327656  0.13409182  1
  O  O273  1  0.87816710  0.62902552  0.63225313  1
  O  O274  1  0.24132095  0.24490993  0.10890065  1
  O  O275  1  0.26256297  0.25856633  0.62718907  1
  O  O276  1  0.24602473  0.76295934  0.11638885  1
  O  O277  1  0.26172903  0.76147695  0.62681934  1
  O  O278  1  0.73331903  0.26784678  0.11249324  1
  O  O279  1  0.73283181  0.27233843  0.61080449  1
  O  O280  1  0.77077640  0.74786693  0.11210796  1
  O  O281  1  0.74562269  0.76382690  0.61542370  1
  O  O282  1  0.25244297  0.24963325  0.38384465  1
  O  O283  1  0.23895301  0.24329564  0.87519238  1
  O  O284  1  0.26314934  0.72120737  0.31920101  1
  O  O285  1  0.25177479  0.75118736  0.88821931  1
  O  O286  1  0.72171547  0.27128222  0.39416102  1
  O  O287  1  0.71466831  0.25805177  0.90757971  1
  O  O288  1  0.74341507  0.74649270  0.38878788  1
  O  O289  1  0.76716993  0.75091429  0.88821652  1
  O  O290  1  -0.01100407  0.08103253  -0.02997082  1
  O  O291  1  -0.04897757  0.13243177  0.54259132  1
  O  O292  1  0.00623833  0.61597249  0.00169957  1
  O  O293  1  0.00842825  0.62799846  0.50702661  1
  O  O294  1  0.48429283  0.11379839  0.01892903  1
  O  O295  1  0.49762259  0.11567017  0.52005923  1
  O  O296  1  0.51596003  0.62318572  0.00217363  1
  O  O297  1  0.51176317  0.61767245  0.49542234  1
  O  O298  1  0.50440996  0.39040824  0.49314144  1
  O  O299  1  0.52773368  0.40330932  0.98150717  1
  O  O300  1  0.49943521  0.89779778  0.50493327  1
  O  O301  1  0.49201155  0.87610852  0.99502747  1
  O  O302  1  0.99489150  0.38264577  0.52184553  1
  O  O303  1  0.98358819  0.38606607  0.99778308  1
  O  O304  1  1.01423481  0.85251546  0.48409001  1
  O  O305  1  1.04665040  0.89891164  1.00564371  1
  O  O306  1  0.49493285  0.49856085  0.38297804  1
  O  O307  1  0.48897279  0.51221191  0.87917431  1
  O  O308  1  0.49142623  1.00391127  0.38984812  1
  O  O309  1  0.49342476  0.99017065  0.88327284  1
  O  O310  1  0.98226042  0.49257952  0.38353764  1
  O  O311  1  0.99700566  0.50413766  0.88306600  1
  O  O312  1  1.01034443  0.97956075  0.38280911  1
  O  O313  1  0.95812081  0.91999937  0.89334544  1
  O  O314  1  0.01280267  0.01594735  0.14492242  1
  O  O315  1  0.01506193  -0.02182017  0.62432379  1
  O  O316  1  0.00559502  0.50426679  0.11685175  1
  O  O317  1  -0.01651277  0.51610750  0.60948457  1
  O  O318  1  0.49003832  0.00856459  0.12242334  1
  O  O319  1  0.50581130  0.01096106  0.62074844  1
  O  O320  1  0.51548184  0.51611714  0.11622961  1
  O  O321  1  0.50630494  0.49905522  0.61763293  1
  O  O322  1  0.27800255  0.40362848  0.22960448  1
  O  O323  1  0.24698092  0.38529495  0.74715237  1
  O  O324  1  0.24628581  0.87132390  0.24001576  1
  O  O325  1  0.24233196  0.87633631  0.74311329  1
  O  O326  1  0.73698129  0.36755266  0.24068948  1
  O  O327  1  0.73413130  0.39008760  0.73908877  1
  O  O328  1  0.75038925  0.84979945  0.23795272  1
  O  O329  1  0.73259572  0.87107608  0.73351081  1
  O  O330  1  0.25961408  0.13431662  0.26867540  1
  O  O331  1  0.25052875  0.10537901  0.74675933  1
  O  O332  1  0.26391034  0.58324177  0.21346473  1
  O  O333  1  0.24059478  0.61045991  0.74615113  1
  O  O334  1  0.76036421  0.13985765  0.23223678  1
  O  O335  1  0.76789240  0.07364624  0.74890911  1
  O  O336  1  0.75958281  0.63207837  0.25924573  1
  O  O337  1  0.75531087  0.62944818  0.75412874  1
  O  O338  1  0.36798071  0.11992742  0.37385750  1
  O  O339  1  0.37916576  0.10613834  0.87745525  1
  O  O340  1  0.38239267  0.62151111  0.37029210  1
  O  O341  1  0.37068701  0.61706113  0.88373399  1
  O  O342  1  0.85270896  0.19043420  0.34343184  1
  O  O343  1  0.85242569  0.17188008  0.88308022  1
  O  O344  1  0.86714521  0.62731517  0.36681282  1
  O  O345  1  0.86598904  0.62968994  0.86020610  1
  O  O346  1  0.10917839  0.38371713  0.11555947  1
  O  O347  1  0.14681786  0.37602829  0.63986873  1
  O  O348  1  0.13443542  0.87338477  0.14333586  1
  O  O349  1  0.14162254  0.88169491  0.62899195  1
  O  O350  1  0.62699948  0.38848287  0.13309928  1
  O  O351  1  0.62557879  0.38996562  0.63692269  1
  O  O352  1  0.61912091  0.87004001  0.14713120  1
  O  O353  1  0.62185446  0.89097051  0.63142165  1
  O  O354  1  0.14477765  0.26573674  0.27282730  1
  O  O355  1  0.12695825  0.26475988  0.75213241  1
  O  O356  1  0.11606894  0.74512294  0.24042648  1
  O  O357  1  0.11849263  0.75863518  0.74005501  1
  O  O358  1  0.60999842  0.25974421  0.25879835  1
  O  O359  1  0.63297907  0.26138531  0.74912510  1
  O  O360  1  0.62871786  0.74597601  0.27218649  1
  O  O361  1  0.60512158  0.76098323  0.73686692  1
  O  O362  1  0.38158226  0.23732381  0.26094448  1
  O  O363  1  0.37084323  0.25056699  0.74839416  1
  O  O364  1  0.42381755  0.79531555  0.25516797  1
  O  O365  1  0.38383112  0.75241521  0.74040819  1
  O  O366  1  0.93927131  0.30119522  0.24477980  1
  O  O367  1  0.81590035  0.22315484  0.73414984  1
  O  O368  1  0.88791337  0.74192150  0.23750980  1
  O  O369  1  0.89138930  0.74777849  0.74894752  1
  O  O370  1  0.38647502  0.51089419  0.48715705  1
  O  O371  1  0.38538047  0.50397180  0.99335774  1
  O  O372  1  0.38449206  1.00975175  0.49410323  1
  O  O373  1  0.37895192  0.98649639  0.99290142  1
  O  O374  1  0.87925238  0.50350207  0.48663651  1
  O  O375  1  0.88536085  0.49545578  1.00075015  1
  O  O376  1  0.79058063  1.01485057  0.41510797  1
  O  O377  1  0.93604202  1.03037612  0.98103816  1
  O  O378  1  0.09977122  -0.04135799  0.00309555  1
  O  O379  1  0.13208166  0.00693862  0.51822791  1
  O  O380  1  0.10987036  0.50329458  0.00110424  1
  O  O381  1  0.09552663  0.50407975  0.49315687  1
  O  O382  1  0.60514501  -0.00886781  0.00358969  1
  O  O383  1  0.61484146  0.00508560  0.50636361  1
  O  O384  1  0.62666551  0.51788354  0.00681163  1
  O  O385  1  0.61658223  0.51013066  0.50823445  1
  O  O386  1  0.42677017  0.37032372  0.09952490  1
  O  O387  1  0.37181322  0.36351095  0.63881934  1
  O  O388  1  0.36126212  0.88106481  0.11639800  1
  O  O389  1  0.36250582  0.87083349  0.62526712  1
  O  O390  1  0.85228429  0.38069353  0.12522334  1
  O  O391  1  0.85366498  0.38116081  0.63155029  1
  O  O392  1  0.89284273  0.86167505  0.12711540  1
  O  O393  1  0.85964628  0.88848469  0.63081527  1
  O  O394  1  0.14449091  0.12532408  0.37799237  1
  O  O395  1  0.12305094  0.13873233  0.85081605  1
  O  O396  1  0.11772286  0.61878423  0.38019348  1
  O  O397  1  0.12343537  0.61752393  0.88785828  1
  O  O398  1  0.61867346  0.14322360  0.37328754  1
  O  O399  1  0.61667118  0.12787507  0.89527515  1
  O  O400  1  0.63475169  0.63198944  0.38484967  1
  O  O401  1  0.64029365  0.63373312  0.88622782  1
