# generated using pymatgen
data_V73Zn73O256
_symmetry_space_group_name_H-M   'P 1'
_cell_length_a   16.88436141
_cell_length_b   16.95738408
_cell_length_c   16.95572691
_cell_angle_alpha   89.77189101
_cell_angle_beta   90.28825077
_cell_angle_gamma   89.66940938
_symmetry_Int_Tables_number   1
_chemical_formula_structural   V73Zn73O256
_chemical_formula_sum   'V73 Zn73 O256'
_cell_volume   4854.49090745
_cell_formula_units_Z   1
loop_
 _symmetry_equiv_pos_site_id
 _symmetry_equiv_pos_as_xyz
  1  'x, y, z'
loop_
 _atom_site_type_symbol
 _atom_site_label
 _atom_site_symmetry_multiplicity
 _atom_site_fract_x
 _atom_site_fract_y
 _atom_site_fract_z
 _atom_site_occupancy
  V  V0  1  0.49634448  0.87621036  0.87181032  1
  V  V1  1  -0.02204980  -0.00240744  -0.00855918  1
  V  V2  1  0.62620939  0.74898336  0.87526899  1
  V  V3  1  0.62396756  0.62827815  0.00435115  1
  V  V4  1  0.12561677  0.50084842  0.11281724  1
  V  V5  1  0.50222190  0.86778349  0.37113666  1
  V  V6  1  0.12331368  0.74452652  0.37652160  1
  V  V7  1  0.24796766  0.74644535  0.49860733  1
  V  V8  1  0.49749008  0.63914848  0.12897379  1
  V  V9  1  0.75927219  0.49748312  0.74947780  1
  V  V10  1  0.24870033  0.24991792  0.50800990  1
  V  V11  1  0.65226029  -0.01058755  0.68478481  1
  V  V12  1  0.24802739  0.00207754  0.24643332  1
  V  V13  1  0.11998861  0.87066777  0.24641933  1
  V  V14  1  0.01431982  0.37197824  0.87910610  1
  V  V15  1  0.87757534  0.37788673  0.52837449  1
  V  V16  1  0.38021472  0.36759898  0.50662621  1
  V  V17  1  0.01112503  0.24568771  0.74435246  1
  V  V18  1  0.12679589  0.87052695  0.75393430  1
  V  V19  1  0.75860636  0.62062315  0.87928476  1
  V  V20  1  0.37231718  0.86105419  0.00038109  1
  V  V21  1  -0.00777832  0.87366118  0.86603287  1
  V  V22  1  0.37737916  0.36628984  0.00628380  1
  V  V23  1  0.37127050  0.75265783  0.62359253  1
  V  V24  1  0.74698985  0.00786081  0.24334893  1
  V  V25  1  0.24692096  0.12206534  0.37084661  1
  V  V26  1  0.37839765  0.49240696  0.87128555  1
  V  V27  1  0.62841101  0.74744241  0.39632332  1
  V  V28  1  0.86814203  0.25815660  0.12641675  1
  V  V29  1  0.24276102  0.62840248  0.88236451  1
  V  V30  1  0.01161452  0.63660666  0.62645278  1
  V  V31  1  0.62639763  0.49788766  0.62834239  1
  V  V32  1  0.87165560  0.12905751  0.76149938  1
  V  V33  1  0.87460681  0.63813751  0.73995669  1
  V  V34  1  0.13941661  0.23490120  0.89223388  1
  V  V35  1  0.82290525  0.32276837  -0.05072207  1
  V  V36  1  0.00522305  0.12495096  0.60157150  1
  V  V37  1  0.50354720  0.49752304  0.00602310  1
  V  V38  1  0.50522067  0.50134899  0.50420419  1
  V  V39  1  -0.00879219  0.87923140  0.38380143  1
  V  V40  1  0.74935736  0.50771026  0.24407093  1
  V  V41  1  0.25307870  0.49862502  0.24493520  1
  V  V42  1  0.38732156  0.49159000  0.37046115  1
  V  V43  1  0.01375734  0.51366870  0.50123884  1
  V  V44  1  0.37843837  0.63644466  0.24456558  1
  V  V45  1  0.12452351  0.00093865  0.11307904  1
  V  V46  1  0.62558319  0.86804946  0.24275890  1
  V  V47  1  -0.00440365  0.24274624  0.24962044  1
  V  V48  1  -0.00501873  0.62200994  0.12384835  1
  V  V49  1  0.12664562  0.00149963  0.60865191  1
  V  V50  1  0.24868910  0.62167703  0.37420555  1
  V  V51  1  0.75816242  0.12758566  0.41028084  1
  V  V52  1  0.25048754  0.86384538  0.12144940  1
  V  V53  1  0.61765631  0.37382813  0.26397474  1
  V  V54  1  0.75194714  0.62487492  0.39351388  1
  V  V55  1  0.12307527  0.24396671  0.37275500  1
  V  V56  1  0.12303451  0.37491874  0.24822016  1
  V  V57  1  0.75544101  0.86840319  0.11381655  1
  V  V58  1  0.37044499  0.62323368  0.74960667  1
  V  V59  1  0.50677162  0.00829876  0.50599631  1
  V  V60  1  0.36978137  0.01311776  0.87786523  1
  V  V61  1  -0.00694613  0.38014366  0.37486407  1
  V  V62  1  0.37195108  0.87300119  0.49878309  1
  V  V63  1  -0.01958382  0.49582807  -0.00499265  1
  V  V64  1  0.24329215  0.00613673  0.74816264  1
  V  V65  1  0.62521436  0.36583469  0.76282548  1
  V  V66  1  0.37395115  -0.00051162  0.36735934  1
  V  V67  1  -0.01906732  0.74411935  0.24546782  1
  V  V68  1  -0.00783118  0.12208943  0.12327895  1
  V  V69  1  0.49151892  0.01538414  0.01684218  1
  V  V70  1  0.49690758  0.24277059  0.74803632  1
  V  V71  1  0.37562098  0.12257480  0.72569866  1
  V  V72  1  0.49921756  0.75265015  0.75028719  1
  Zn  Zn73  1  0.86138891  0.74404306  0.08121799  1
  Zn  Zn74  1  0.21300253  0.74541408  -0.00828820  1
  Zn  Zn75  1  0.88379806  0.00902064  0.35881159  1
  Zn  Zn76  1  0.74533670  0.38332947  0.12271348  1
  Zn  Zn77  1  0.25213939  0.36452276  0.11964344  1
  Zn  Zn78  1  0.87494885  0.50873502  0.37351080  1
  Zn  Zn79  1  0.63662840  0.24731939  0.38490691  1
  Zn  Zn80  1  0.18067251  0.43664864  0.68778088  1
  Zn  Zn81  1  0.50209489  0.63560084  0.61317987  1
  Zn  Zn82  1  0.18804085  0.16668218  0.05708315  1
  Zn  Zn83  1  0.18285348  0.18520744  0.69320641  1
  Zn  Zn84  1  0.18175013  0.68330460  0.18552145  1
  Zn  Zn85  1  0.19041254  0.68814985  0.68996684  1
  Zn  Zn86  1  0.68004216  0.19957011  0.19139928  1
  Zn  Zn87  1  0.66872320  0.18080077  0.67453308  1
  Zn  Zn88  1  0.68661498  0.69148123  0.19069983  1
  Zn  Zn89  1  0.67584690  0.67596275  0.69528743  1
  Zn  Zn90  1  0.30067366  0.32238511  0.32622600  1
  Zn  Zn91  1  0.31189834  0.30455675  0.81350850  1
  Zn  Zn92  1  0.30979762  0.81357645  0.31179582  1
  Zn  Zn93  1  0.30556280  0.81333194  0.81209491  1
  Zn  Zn94  1  0.80406423  0.31115330  0.31488565  1
  Zn  Zn95  1  0.82814603  0.31972345  0.78340096  1
  Zn  Zn96  1  0.80603586  0.81341186  0.32070038  1
  Zn  Zn97  1  0.84952998  0.77659430  0.88086868  1
  Zn  Zn98  1  0.18976217  0.43505091  0.44027559  1
  Zn  Zn99  1  0.19940672  0.43389417  0.92859014  1
  Zn  Zn100  1  0.18422670  0.92851528  0.43195217  1
  Zn  Zn101  1  0.19054655  0.93952684  0.93345735  1
  Zn  Zn102  1  0.69559666  0.43340395  0.44046095  1
  Zn  Zn103  1  0.68306310  0.44361492  0.93546598  1
  Zn  Zn104  1  0.68972032  0.94764588  0.43089868  1
  Zn  Zn105  1  0.66090803  0.93577806  0.95145018  1
  Zn  Zn106  1  0.36188751  0.16280854  0.03372600  1
  Zn  Zn107  1  0.30467298  0.05892314  0.55493549  1
  Zn  Zn108  1  0.31574019  0.56268724  0.05950570  1
  Zn  Zn109  1  0.31302583  0.56197603  0.56034215  1
  Zn  Zn110  1  0.80941343  0.05918727  0.07467377  1
  Zn  Zn111  1  0.79609739  0.07999401  0.61527576  1
  Zn  Zn112  1  0.81155042  0.56331956  0.06380339  1
  Zn  Zn113  1  0.82146017  0.55341155  0.56316816  1
  Zn  Zn114  1  0.44420333  0.44062548  0.18472456  1
  Zn  Zn115  1  0.34096519  0.43449828  0.68819158  1
  Zn  Zn116  1  0.43571522  0.93060110  0.18627290  1
  Zn  Zn117  1  0.43403804  0.93769128  0.68684641  1
  Zn  Zn118  1  0.93089929  0.43970354  0.18960723  1
  Zn  Zn119  1  1.00913319  0.43064904  0.67993692  1
  Zn  Zn120  1  0.92975888  0.93248324  0.18380883  1
  Zn  Zn121  1  0.94332785  0.95607946  0.68872331  1
  Zn  Zn122  1  0.06387373  0.06089292  0.30964702  1
  Zn  Zn123  1  0.06340992  0.06748446  0.82299788  1
  Zn  Zn124  1  0.06176427  0.56196555  0.30718322  1
  Zn  Zn125  1  0.05918100  0.56281687  0.81029876  1
  Zn  Zn126  1  0.57708518  0.05909016  0.33120300  1
  Zn  Zn127  1  0.55718585  0.07281663  0.81536711  1
  Zn  Zn128  1  0.57008923  0.56486400  0.31211772  1
  Zn  Zn129  1  0.55875617  0.56119759  0.81331859  1
  Zn  Zn130  1  0.42937844  0.18087071  0.43619815  1
  Zn  Zn131  1  0.49515154  0.20900722  0.93623450  1
  Zn  Zn132  1  0.43649653  0.68364917  0.43063719  1
  Zn  Zn133  1  0.43670376  0.68213844  0.93387260  1
  Zn  Zn134  1  0.92591711  0.19719435  0.43992226  1
  Zn  Zn135  1  0.94249045  0.18227578  0.93797255  1
  Zn  Zn136  1  0.93174482  0.68954735  0.43682953  1
  Zn  Zn137  1  1.00717523  0.70286069  0.95295060  1
  Zn  Zn138  1  0.05991063  0.31349170  0.06354860  1
  Zn  Zn139  1  0.06225995  0.31140210  0.55410898  1
  Zn  Zn140  1  0.05133078  0.82013088  0.06224415  1
  Zn  Zn141  1  -0.06387270  0.80957071  0.55855238  1
  Zn  Zn142  1  0.56518229  0.32678981  0.07688317  1
  Zn  Zn143  1  0.54356626  0.32376039  0.58220653  1
  Zn  Zn144  1  0.55892047  0.81268203  0.05941043  1
  Zn  Zn145  1  0.56567903  0.83290037  0.57176717  1
  O  O146  1  0.11253578  0.10516005  0.12597524  1
  O  O147  1  0.11948044  0.11270145  0.62718398  1
  O  O148  1  0.11026403  0.61015007  0.13364581  1
  O  O149  1  0.11084278  0.62934155  0.63571140  1
  O  O150  1  0.61230340  0.17975891  0.04587437  1
  O  O151  1  0.62249064  0.08168894  0.64826784  1
  O  O152  1  0.61269766  0.63327814  0.11539368  1
  O  O153  1  0.61172681  0.60560141  0.63438569  1
  O  O154  1  0.37736529  0.38508064  0.37611991  1
  O  O155  1  0.37635357  0.38864137  0.88329030  1
  O  O156  1  0.38226016  0.87678331  0.37789033  1
  O  O157  1  0.37839100  0.87388630  0.88494154  1
  O  O158  1  0.89050790  0.37351572  0.37115948  1
  O  O159  1  0.88929866  0.36903666  0.88460744  1
  O  O160  1  0.88766672  0.87889713  0.37020164  1
  O  O161  1  0.89126599  0.88163871  0.85967834  1
  O  O162  1  0.25167324  0.00051627  0.36650137  1
  O  O163  1  0.26320954  -0.00266244  0.86414459  1
  O  O164  1  0.25732914  0.50423524  0.36387368  1
  O  O165  1  0.26979366  0.51152055  0.88077309  1
  O  O166  1  0.75840065  0.01358634  0.36618057  1
  O  O167  1  0.72699562  0.08990278  0.93282005  1
  O  O168  1  0.74798743  0.51551282  0.37292097  1
  O  O169  1  0.73707516  0.51439025  0.85951632  1
  O  O170  1  0.24582004  0.50012566  0.13431724  1
  O  O171  1  0.26189089  0.49682159  0.63133995  1
  O  O172  1  0.23242615  0.98307310  0.13250220  1
  O  O173  1  0.24003300  1.00573194  0.63730958  1
  O  O174  1  0.75097902  0.50336006  0.13881822  1
  O  O175  1  0.73476351  0.50775208  0.63752347  1
  O  O176  1  0.74600517  0.98292948  0.13512007  1
  O  O177  1  0.75173803  0.98654306  0.66356270  1
  O  O178  1  0.00722187  0.37266097  0.25491397  1
  O  O179  1  -0.00293168  0.35647625  0.77314907  1
  O  O180  1  0.00449051  0.86121635  0.24741239  1
  O  O181  1  0.01445021  0.89569039  0.75844510  1
  O  O182  1  0.51652966  0.38329489  0.25117444  1
  O  O183  1  0.51157430  0.34334817  0.76377097  1
  O  O184  1  0.51284066  0.88184436  0.26007202  1
  O  O185  1  0.48322346  0.86266017  0.76104149  1
  O  O186  1  0.50745694  0.15377265  0.29368757  1
  O  O187  1  0.47592958  0.10670882  0.73333932  1
  O  O188  1  0.49563699  0.61822660  0.23568082  1
  O  O189  1  0.48640932  0.63921954  0.75478859  1
  O  O190  1  1.00434892  0.13475091  0.24122630  1
  O  O191  1  0.99645516  0.13905331  0.75969603  1
  O  O192  1  0.99920222  0.63730284  0.24362960  1
  O  O193  1  0.98351921  0.61932437  0.73812350  1
  O  O194  1  0.40281430  0.26587640  -0.01443126  1
  O  O195  1  0.36596265  0.25925722  0.48763083  1
  O  O196  1  0.38060281  0.76230016  -0.00230541  1
  O  O197  1  0.37075134  0.75330210  0.50269186  1
  O  O198  1  0.87758878  0.25275030  0.01114340  1
  O  O199  1  0.89426795  0.27861003  0.51041390  1
  O  O200  1  0.89710079  0.73727056  -0.02326722  1
  O  O201  1  0.86573123  0.76065945  0.48879534  1
  O  O202  1  0.13937324  0.25985575  0.48224929  1
  O  O203  1  0.13107692  0.24902033  1.00167870  1
  O  O204  1  0.13728105  0.75107866  0.48035605  1
  O  O205  1  0.10252616  0.74145963  1.00368369  1
  O  O206  1  0.62829833  0.26117765  0.51733684  1
  O  O207  1  0.59394409  0.24525863  0.99607099  1
  O  O208  1  0.62211671  0.76214491  0.49529902  1
  O  O209  1  0.61632670  0.73871843  0.98907912  1
  O  O210  1  0.58416607  0.19684583  0.12079154  1
  O  O211  1  0.52253935  0.23323200  0.65017955  1
  O  O212  1  0.49594553  0.73840643  0.12282131  1
  O  O213  1  0.49263824  0.75409574  0.63309134  1
  O  O214  1  0.99425745  0.24219370  0.13074748  1
  O  O215  1  1.02315824  0.23441827  0.63895260  1
  O  O216  1  0.99525067  0.74355801  0.13727557  1
  O  O217  1  0.99508704  0.73531692  0.62019015  1
  O  O218  1  0.00580436  0.25733589  0.36794896  1
  O  O219  1  0.01445347  0.25835328  0.88373938  1
  O  O220  1  0.00511759  0.75501728  0.36090997  1
  O  O221  1  0.00625272  0.77434564  0.86198955  1
  O  O222  1  0.50493819  0.21138138  0.34782088  1
  O  O223  1  0.53926344  0.19063029  0.83445493  1
  O  O224  1  0.51013033  0.75898433  0.38006837  1
  O  O225  1  0.50216913  0.75599092  0.86899498  1
  O  O226  1  0.25595804  0.13993683  0.48335316  1
  O  O227  1  0.27056108  0.10582412  1.02079452  1
  O  O228  1  0.26157498  0.63205990  0.48223218  1
  O  O229  1  0.25522772  0.62936872  0.98823406  1
  O  O230  1  0.76106968  0.10924561  0.50874770  1
  O  O231  1  0.74989634  0.12903671  1.00218557  1
  O  O232  1  0.74885313  0.61602100  0.49238294  1
  O  O233  1  0.73965011  0.61340508  0.98712358  1
  O  O234  1  0.27246407  0.37370983  0.00095949  1
  O  O235  1  0.26341023  0.36091367  0.48936209  1
  O  O236  1  0.25850938  0.86900692  0.00192194  1
  O  O237  1  0.26193142  0.85847503  0.48544863  1
  O  O238  1  0.75484520  0.38387640  0.00236013  1
  O  O239  1  0.77696683  0.39344626  0.51154677  1
  O  O240  1  0.73705015  0.88352756  0.01449072  1
  O  O241  1  0.77909960  0.89749548  0.51285095  1
  O  O242  1  0.13344256  0.49103080  0.24358418  1
  O  O243  1  0.09379929  0.48320326  0.74357324  1
  O  O244  1  0.12729500  0.98610431  0.24258628  1
  O  O245  1  0.13962373  1.01097119  0.75624474  1
  O  O246  1  0.63815757  0.48752279  0.26233999  1
  O  O247  1  0.62384101  0.49242710  0.74478691  1
  O  O248  1  0.63744322  0.98283517  0.26422127  1
  O  O249  1  0.63601411  0.99690699  0.78801944  1
  O  O250  1  0.36225368  -0.01603190  0.25882670  1
  O  O251  1  0.36233350  0.00550996  0.75184306  1
  O  O252  1  0.36927423  0.50363135  0.25287742  1
  O  O253  1  0.38977447  0.50823630  0.76514610  1
  O  O254  1  0.85545857  -0.00552712  0.24527518  1
  O  O255  1  0.88548900  0.02931756  0.75176224  1
  O  O256  1  0.85796721  0.49772015  0.25635444  1
  O  O257  1  0.85750388  0.50843211  0.74850112  1
  O  O258  1  0.11929871  0.36928596  0.36478517  1
  O  O259  1  0.11841481  0.36526341  0.88423352  1
  O  O260  1  0.11502271  0.86567562  0.36283602  1
  O  O261  1  0.11973273  0.88666108  0.86076863  1
  O  O262  1  0.63137905  0.36732081  0.37425760  1
  O  O263  1  0.62573059  0.37865464  0.86209521  1
  O  O264  1  0.62189451  0.86444255  0.37328775  1
  O  O265  1  0.60775318  0.86082218  0.88418397  1
  O  O266  1  0.38431456  0.18872301  0.15377443  1
  O  O267  1  0.36294261  0.12736288  0.62742451  1
  O  O268  1  0.38662982  0.62158381  0.13095412  1
  O  O269  1  0.38041768  0.63618514  0.63101475  1
  O  O270  1  0.88585590  0.13564548  0.12364073  1
  O  O271  1  0.90531642  0.12404745  0.62621411  1
  O  O272  1  0.88979045  0.62901926  0.11727083  1
  O  O273  1  0.86995502  0.62947633  0.63654610  1
  O  O274  1  0.26258007  0.24628144  0.12651384  1
  O  O275  1  0.23977341  0.24309482  0.60531085  1
  O  O276  1  0.23690626  0.76163588  0.12004447  1
  O  O277  1  0.25908414  0.73945358  0.60910617  1
  O  O278  1  0.76776706  0.24645699  0.12989500  1
  O  O279  1  0.68859146  0.24204671  0.56304463  1
  O  O280  1  0.75053629  0.76069179  0.12380877  1
  O  O281  1  0.73304305  0.76038798  0.62530631  1
  O  O282  1  0.24164369  0.23849319  0.36895589  1
  O  O283  1  0.23817776  0.25033949  0.87931139  1
  O  O284  1  0.24512892  0.74003743  0.37630881  1
  O  O285  1  0.25249422  0.73509670  0.87749925  1
  O  O286  1  0.76224392  0.23235307  0.38780684  1
  O  O287  1  0.76926524  0.27461090  0.88277261  1
  O  O288  1  0.73638709  0.74124137  0.37800501  1
  O  O289  1  0.73796089  0.73216276  0.87258524  1
  O  O290  1  -0.00283173  0.10857879  0.01027288  1
  O  O291  1  0.00713154  0.13823123  0.50351339  1
  O  O292  1  0.00580443  0.59907799  0.00708703  1
  O  O293  1  -0.00028551  0.62118616  0.50390307  1
  O  O294  1  0.46812907  0.11688757  0.00655477  1
  O  O295  1  0.49584733  0.10751208  0.48950368  1
  O  O296  1  0.50267305  0.62092920  0.01038617  1
  O  O297  1  0.49150572  0.60690471  0.49788654  1
  O  O298  1  0.48908086  0.38039973  0.49574887  1
  O  O299  1  0.49858444  0.39107008  1.00588837  1
  O  O300  1  0.48650382  0.87994382  0.48942287  1
  O  O301  1  0.48741482  0.88261295  0.99457202  1
  O  O302  1  0.99930777  0.39061235  0.48943329  1
  O  O303  1  1.00178412  0.38609534  0.99469495  1
  O  O304  1  1.00485665  0.86962682  0.48086146  1
  O  O305  1  0.99986007  0.89107549  0.98552150  1
  O  O306  1  0.49307032  0.50667538  0.38278472  1
  O  O307  1  0.48700284  0.51203678  0.89167235  1
  O  O308  1  0.49037400  0.98921942  0.38066424  1
  O  O309  1  0.48183795  0.98796532  0.86537326  1
  O  O310  1  0.99912712  0.49701079  0.37775188  1
  O  O311  1  1.00417862  0.48688515  0.88877338  1
  O  O312  1  1.00050304  0.98440055  0.36546471  1
  O  O313  1  0.99772756  1.00223408  0.88924820  1
  O  O314  1  0.00449534  -0.00082537  0.11692027  1
  O  O315  1  0.01567814  0.01497270  0.61630566  1
  O  O316  1  0.00372438  0.50063069  0.11667563  1
  O  O317  1  -0.00212558  0.52015923  0.60536540  1
  O  O318  1  0.49228599  -0.00109027  0.11509867  1
  O  O319  1  0.48006687  -0.00535767  0.60204546  1
  O  O320  1  0.49835666  0.51253985  0.10980214  1
  O  O321  1  0.50257309  0.49976822  0.60790960  1
  O  O322  1  0.24342276  0.38270083  0.24685354  1
  O  O323  1  0.26269152  0.37700177  0.74603027  1
  O  O324  1  0.23953716  0.87680569  0.24285782  1
  O  O325  1  0.23981069  0.89179018  0.75362384  1
  O  O326  1  0.74468702  0.38853236  0.25346447  1
  O  O327  1  0.74426925  0.39208942  0.75309092  1
  O  O328  1  0.73945119  0.87786958  0.24320696  1
  O  O329  1  0.76414574  0.81407603  0.66508810  1
  O  O330  1  0.24305075  0.10444524  0.25755714  1
  O  O331  1  0.26144268  0.11575553  0.74981250  1
  O  O332  1  0.25795850  0.61605220  0.25217795  1
  O  O333  1  0.26440655  0.62963473  0.75924576  1
  O  O334  1  0.73426755  0.10650478  0.23044898  1
  O  O335  1  0.77731945  0.14880450  0.71555234  1
  O  O336  1  0.73614767  0.61202308  0.25743472  1
  O  O337  1  0.75406881  0.61820359  0.75694865  1
  O  O338  1  0.36114435  0.10822296  0.37139014  1
  O  O339  1  0.37831131  0.11007431  0.86794653  1
  O  O340  1  0.36835586  0.61403621  0.36301133  1
  O  O341  1  0.36805157  0.61776381  0.86818313  1
  O  O342  1  0.86606550  0.11903807  0.38516966  1
  O  O343  1  0.86782249  0.14055345  0.86184948  1
  O  O344  1  0.85503233  0.62953694  0.37401095  1
  O  O345  1  0.85770440  0.61841087  0.86571321  1
  O  O346  1  0.12741255  0.38064643  0.13536702  1
  O  O347  1  0.10193580  0.37712098  0.63173863  1
  O  O348  1  0.12469113  0.88138033  0.13122720  1
  O  O349  1  0.12031593  0.90411463  0.64734314  1
  O  O350  1  0.63494284  0.36806794  0.14928105  1
  O  O351  1  0.61396116  0.39171621  0.64425923  1
  O  O352  1  0.62718278  0.86730338  0.13764477  1
  O  O353  1  0.60915830  0.90275043  0.64690732  1
  O  O354  1  0.11211870  0.26192042  0.25855143  1
  O  O355  1  0.11663195  0.24212356  0.77151823  1
  O  O356  1  0.12195294  0.75721872  0.25653091  1
  O  O357  1  0.13378290  0.77241290  0.74369494  1
  O  O358  1  0.63594439  0.26699454  0.26732944  1
  O  O359  1  0.64761464  0.26888574  0.74414083  1
  O  O360  1  0.62741167  0.76540598  0.26243456  1
  O  O361  1  0.61011023  0.74374500  0.76175263  1
  O  O362  1  0.32384957  0.22697942  0.18386876  1
  O  O363  1  0.38843142  0.23242779  0.75745628  1
  O  O364  1  0.37179662  0.73540653  0.25531145  1
  O  O365  1  0.37573906  0.74610774  0.74037810  1
  O  O366  1  0.88739769  0.25682949  0.23994379  1
  O  O367  1  0.90033789  0.24474073  0.74440646  1
  O  O368  1  0.88277122  0.75289494  0.25281665  1
  O  O369  1  0.86763755  0.73392191  0.76183211  1
  O  O370  1  0.38219944  0.48610934  0.49062838  1
  O  O371  1  0.38557841  0.49144355  0.99393010  1
  O  O372  1  0.36912524  0.98845771  0.48508578  1
  O  O373  1  0.38292275  0.98852178  0.98288074  1
  O  O374  1  0.89256885  0.49383496  0.49224908  1
  O  O375  1  0.88158822  0.49656108  0.99949504  1
  O  O376  1  0.83655252  0.94052691  0.53871650  1
  O  O377  1  0.87912046  0.99988190  1.00203804  1
  O  O378  1  0.12370887  -0.00710855  0.01295437  1
  O  O379  1  0.13993488  -0.00445167  0.50996643  1
  O  O380  1  0.13453679  0.48848053  0.01373974  1
  O  O381  1  0.11402246  0.50257074  0.48983290  1
  O  O382  1  0.58923622  0.01354207  -0.01517638  1
  O  O383  1  0.60644195  -0.01175074  0.49628793  1
  O  O384  1  0.61041614  0.51249140  -0.00649225  1
  O  O385  1  0.61434521  0.48799030  0.51324076  1
  O  O386  1  0.38086766  0.37495726  0.11073597  1
  O  O387  1  0.38288197  0.36572827  0.60582275  1
  O  O388  1  0.36395633  0.87807504  0.11023309  1
  O  O389  1  0.37515145  0.86181758  0.61234467  1
  O  O390  1  0.87307573  0.36177786  0.12434122  1
  O  O391  1  0.90091965  0.39168578  0.62543717  1
  O  O392  1  0.86008121  0.86627142  0.11903126  1
  O  O393  1  0.88139235  0.89860248  0.60652965  1
  O  O394  1  0.13160614  0.13401444  0.36879171  1
  O  O395  1  0.12731508  0.13554461  0.88957632  1
  O  O396  1  0.13901036  0.63156300  0.36090162  1
  O  O397  1  0.14367669  0.61461123  0.86710944  1
  O  O398  1  0.65210422  0.12756097  0.38514349  1
  O  O399  1  0.68580072  0.13212321  0.88554385  1
  O  O400  1  0.62809998  0.64178345  0.37895979  1
  O  O401  1  0.62449482  0.63254591  0.88328912  1
