# generated using pymatgen
data_V73Zn73O256
_symmetry_space_group_name_H-M   'P 1'
_cell_length_a   16.83948768
_cell_length_b   16.85428371
_cell_length_c   16.85351963
_cell_angle_alpha   90.01500689
_cell_angle_beta   90.04355780
_cell_angle_gamma   90.03676376
_symmetry_Int_Tables_number   1
_chemical_formula_structural   V73Zn73O256
_chemical_formula_sum   'V73 Zn73 O256'
_cell_volume   4783.32132306
_cell_formula_units_Z   1
loop_
 _symmetry_equiv_pos_site_id
 _symmetry_equiv_pos_as_xyz
  1  'x, y, z'
loop_
 _atom_site_type_symbol
 _atom_site_label
 _atom_site_symmetry_multiplicity
 _atom_site_fract_x
 _atom_site_fract_y
 _atom_site_fract_z
 _atom_site_occupancy
  V  V0  1  0.48831266  0.00406320  -0.00524835  1
  V  V1  1  0.50207289  0.37677040  0.87549982  1
  V  V2  1  0.47503456  0.14091628  0.12955480  1
  V  V3  1  0.26025936  0.11191748  0.86429248  1
  V  V4  1  0.24222227  0.74004225  -0.01122043  1
  V  V5  1  0.26492645  0.13458253  0.37096282  1
  V  V6  1  0.50207935  0.62869934  0.13504049  1
  V  V7  1  0.12018660  0.13052877  0.50061407  1
  V  V8  1  0.74803961  0.11361138  0.86963307  1
  V  V9  1  0.36544924  0.76153732  0.60405529  1
  V  V10  1  0.36380704  0.62863607  0.75099964  1
  V  V11  1  0.75224318  0.24493848  0.01383806  1
  V  V12  1  0.00255096  0.50207627  0.52749606  1
  V  V13  1  0.36371588  0.50433496  0.86938463  1
  V  V14  1  0.87657331  0.14411590  0.24166304  1
  V  V15  1  -0.01061379  0.00708275  0.51042802  1
  V  V16  1  0.12434134  0.25153641  0.87544574  1
  V  V17  1  0.49755505  0.61945149  0.61726373  1
  V  V18  1  0.07009830  0.56159692  0.00325647  1
  V  V19  1  0.74076307  -0.00014680  0.24913616  1
  V  V20  1  0.65343402  0.63437564  0.51047760  1
  V  V21  1  0.87931879  0.63351586  0.73746753  1
  V  V22  1  0.00961609  0.87216466  0.88151131  1
  V  V23  1  0.89389269  0.75654000  0.14042694  1
  V  V24  1  0.60572525  -0.01582432  0.13716526  1
  V  V25  1  0.62265445  0.14469198  0.49943369  1
  V  V26  1  0.74785006  0.60709384  0.33746853  1
  V  V27  1  0.75656277  0.63526771  0.87831116  1
  V  V28  1  0.88775441  0.49955965  0.38167027  1
  V  V29  1  0.76771101  0.87245679  0.61451403  1
  V  V30  1  0.88218542  0.00067577  0.88178381  1
  V  V31  1  0.63355382  0.88368394  0.74248330  1
  V  V32  1  0.74276439  0.14186057  0.37640911  1
  V  V33  1  0.87712804  -0.00232145  0.37162474  1
  V  V34  1  0.73906245  0.42497266  0.14978858  1
  V  V35  1  0.87603721  0.11776547  0.74747149  1
  V  V36  1  0.62008393  0.12161102  0.00895361  1
  V  V37  1  0.25025454  0.87413316  0.13792278  1
  V  V38  1  0.37148059  0.87632483  -0.01021491  1
  V  V39  1  0.14324947  0.50674919  0.63054901  1
  V  V40  1  0.11476530  0.26115764  0.37355115  1
  V  V41  1  0.88238708  0.36273979  0.49948240  1
  V  V42  1  0.50927626  -0.01264920  0.50028994  1
  V  V43  1  0.62559512  0.62892837  -0.00213557  1
  V  V44  1  0.62736064  0.37858906  0.75100877  1
  V  V45  1  0.74444908  0.86053352  0.12327649  1
  V  V46  1  0.49223228  0.24075762  0.73639526  1
  V  V47  1  0.75613172  0.50339127  0.75485756  1
  V  V48  1  -0.00107417  0.75075145  0.74080716  1
  V  V49  1  0.86409822  0.37407351  -0.01695861  1
  V  V50  1  0.62627963  0.24856994  0.87649898  1
  V  V51  1  0.37763629  0.39098831  0.51021975  1
  V  V52  1  0.13272903  0.87384817  0.74171293  1
  V  V53  1  0.61908421  0.75669777  0.87534838  1
  V  V54  1  0.87774095  0.24173475  0.62409370  1
  V  V55  1  0.25205593  0.24706797  0.00776519  1
  V  V56  1  0.14023370  0.36712067  0.22384465  1
  V  V57  1  0.11530610  -0.00037811  0.13386056  1
  V  V58  1  0.36988514  0.37353507  0.00869157  1
  V  V59  1  0.49677937  0.26454396  0.25782007  1
  V  V60  1  0.13256744  -0.00012543  0.62475219  1
  V  V61  1  0.38321066  -0.01417627  0.37857639  1
  V  V62  1  0.00010846  0.25090994  0.74870900  1
  V  V63  1  0.90495381  0.57732045  0.20907269  1
  V  V64  1  0.14953447  0.37183675  0.74047785  1
  V  V65  1  0.26482392  0.25390806  0.51351341  1
  V  V66  1  0.36639416  0.50842612  0.36146539  1
  V  V67  1  0.87580606  0.87049602  0.00010023  1
  V  V68  1  0.75315148  0.36923179  0.62118115  1
  V  V69  1  0.51029557  0.38798424  0.37604587  1
  V  V70  1  0.50546971  0.50247299  0.00182175  1
  V  V71  1  0.62568968  0.74861144  0.36041206  1
  V  V72  1  0.37696450  0.74737109  0.13663072  1
  Zn  Zn73  1  -0.00206724  0.15070395  0.12657665  1
  Zn  Zn74  1  0.49731978  0.75386610  0.74336598  1
  Zn  Zn75  1  0.25312885  0.00309081  0.25617423  1
  Zn  Zn76  1  0.22291413  0.61211909  0.37924515  1
  Zn  Zn77  1  0.11102747  0.10646219  -0.00694880  1
  Zn  Zn78  1  0.49360317  0.88410945  0.86613286  1
  Zn  Zn79  1  0.87397385  0.84962689  0.48480900  1
  Zn  Zn80  1  0.62735033  0.01102431  0.62924960  1
  Zn  Zn81  1  0.62117184  0.49631547  0.61906074  1
  Zn  Zn82  1  0.18473198  0.18459917  0.19011844  1
  Zn  Zn83  1  0.19143559  0.18214232  0.68845377  1
  Zn  Zn84  1  0.16789850  0.54998663  0.18431163  1
  Zn  Zn85  1  0.18648165  0.69211962  0.68380804  1
  Zn  Zn86  1  0.67658832  0.18363229  0.19683049  1
  Zn  Zn87  1  0.68631624  0.18796578  0.68792094  1
  Zn  Zn88  1  0.69983134  0.65687063  0.18553935  1
  Zn  Zn89  1  0.68893923  0.69715719  0.68860046  1
  Zn  Zn90  1  0.31848927  0.32106438  0.31234670  1
  Zn  Zn91  1  0.31521978  0.30434263  0.81777858  1
  Zn  Zn92  1  0.32875062  0.81369890  0.31628812  1
  Zn  Zn93  1  0.30823537  0.81146107  0.80788654  1
  Zn  Zn94  1  0.80152707  0.32619396  0.30627361  1
  Zn  Zn95  1  0.81004944  0.30507302  0.81087286  1
  Zn  Zn96  1  0.79182255  0.80962894  0.31358623  1
  Zn  Zn97  1  0.81226033  0.81553376  0.81107310  1
  Zn  Zn98  1  0.18913994  0.43584726  0.44620508  1
  Zn  Zn99  1  0.18495259  0.43490742  0.93409186  1
  Zn  Zn100  1  0.20577760  0.95610070  0.46669613  1
  Zn  Zn101  1  0.18664176  0.93519842  0.94322209  1
  Zn  Zn102  1  0.69128027  0.44557200  0.44331182  1
  Zn  Zn103  1  0.70820310  0.45480740  0.95603177  1
  Zn  Zn104  1  0.69008151  0.93566073  0.43660777  1
  Zn  Zn105  1  0.68565286  0.93639619  0.94705160  1
  Zn  Zn106  1  0.29991249  0.06148342  0.05656161  1
  Zn  Zn107  1  0.31600016  0.06150216  0.55596842  1
  Zn  Zn108  1  0.31305588  0.56363653  0.06426095  1
  Zn  Zn109  1  0.30732884  0.57863811  0.55126643  1
  Zn  Zn110  1  0.80929820  0.05634193  0.06459484  1
  Zn  Zn111  1  0.79777709  0.05990168  0.56299578  1
  Zn  Zn112  1  0.86290777  0.55803755  0.04834906  1
  Zn  Zn113  1  0.81655256  0.55223793  0.57062157  1
  Zn  Zn114  1  0.43516219  0.44245006  0.18975631  1
  Zn  Zn115  1  0.43663344  0.43905641  0.69143457  1
  Zn  Zn116  1  0.43160185  0.94698097  0.18357955  1
  Zn  Zn117  1  0.44829108  0.93212256  0.67298940  1
  Zn  Zn118  1  0.93215637  0.39385588  0.15175214  1
  Zn  Zn119  1  0.96599102  0.45986977  0.73799507  1
  Zn  Zn120  1  0.92824701  0.93772135  0.19352863  1
  Zn  Zn121  1  0.94035897  0.94097664  0.69216365  1
  Zn  Zn122  1  0.06530777  0.07116697  0.30860054  1
  Zn  Zn123  1  0.06506038  0.06367082  0.81037377  1
  Zn  Zn124  1  0.06220911  0.54042824  0.31639294  1
  Zn  Zn125  1  0.07321485  0.56212891  0.82199440  1
  Zn  Zn126  1  0.55392455  0.07371180  0.31399600  1
  Zn  Zn127  1  0.55805791  0.06290684  0.81214123  1
  Zn  Zn128  1  0.56636466  0.56857263  0.32390499  1
  Zn  Zn129  1  0.55843739  0.56690822  0.80836920  1
  Zn  Zn130  1  0.44478955  0.19378037  0.43882933  1
  Zn  Zn131  1  0.43511753  0.18870459  0.93155334  1
  Zn  Zn132  1  0.44212037  0.68892828  0.43139555  1
  Zn  Zn133  1  0.43423614  0.68996850  0.93791389  1
  Zn  Zn134  1  0.93361450  0.18429370  0.42917062  1
  Zn  Zn135  1  0.93877596  0.18879221  0.94058827  1
  Zn  Zn136  1  0.91864176  0.66966431  0.46543226  1
  Zn  Zn137  1  0.94546666  0.69043018  0.93743415  1
  Zn  Zn138  1  0.06884190  0.34773903  0.04325681  1
  Zn  Zn139  1  0.06341409  0.31073017  0.56688044  1
  Zn  Zn140  1  0.07037643  0.81353157  0.06630559  1
  Zn  Zn141  1  0.03966137  0.81359297  0.54979855  1
  Zn  Zn142  1  0.57382370  0.31840309  0.07309236  1
  Zn  Zn143  1  0.55900726  0.31766093  0.56025181  1
  Zn  Zn144  1  0.55511618  0.81057157  0.06045643  1
  Zn  Zn145  1  0.56086593  0.80353555  0.55996108  1
  O  O146  1  0.11950671  0.10975266  0.12984021  1
  O  O147  1  0.13125479  0.11166377  0.61430042  1
  O  O148  1  0.10863874  0.59422048  0.09076160  1
  O  O149  1  0.12375942  0.60490881  0.64378760  1
  O  O150  1  0.61517073  0.11413437  0.11602459  1
  O  O151  1  0.64118738  0.12509619  0.60455813  1
  O  O152  1  0.61198533  0.63645474  0.10886754  1
  O  O153  1  0.61521979  0.63370596  0.62115230  1
  O  O154  1  0.38401806  0.39017793  0.38362295  1
  O  O155  1  0.38529508  0.38545534  0.87799491  1
  O  O156  1  0.36805216  0.88623845  0.39112009  1
  O  O157  1  0.37361406  0.87444542  0.88617090  1
  O  O158  1  0.86326827  0.38197571  0.39519228  1
  O  O159  1  0.88024164  0.35594134  0.88465559  1
  O  O160  1  0.86261254  0.89395554  0.37248641  1
  O  O161  1  0.88267940  0.88073219  0.88083672  1
  O  O162  1  0.26397362  0.01369958  0.38678239  1
  O  O163  1  0.24283131  0.01333295  0.88311537  1
  O  O164  1  0.26227887  0.49716649  0.38223794  1
  O  O165  1  0.26514630  0.49704211  0.87991854  1
  O  O166  1  0.75597717  0.00976111  0.36569676  1
  O  O167  1  0.75750170  0.00811617  0.88444049  1
  O  O168  1  0.76712023  0.51225132  0.38749561  1
  O  O169  1  0.73656175  0.52168827  0.85998279  1
  O  O170  1  0.25426127  0.50228190  0.13252063  1
  O  O171  1  0.24174402  0.50330414  0.61726413  1
  O  O172  1  0.25351346  0.98661636  0.13231678  1
  O  O173  1  0.23081496  0.98669706  0.59351115  1
  O  O174  1  0.75872727  0.52389731  0.12739246  1
  O  O175  1  0.74868080  0.48822847  0.64014703  1
  O  O176  1  0.73283473  0.99286458  0.13152864  1
  O  O177  1  0.74000257  0.98087923  0.62085490  1
  O  O178  1  0.01140267  0.32261476  0.19681002  1
  O  O179  1  0.00561917  0.35248846  0.74626817  1
  O  O180  1  0.00943647  0.85295782  0.27747871  1
  O  O181  1  0.00284665  0.86671788  0.75882334  1
  O  O182  1  0.50178140  0.37619422  0.26030212  1
  O  O183  1  0.50972582  0.37082193  0.75851268  1
  O  O184  1  0.54517734  0.91862297  0.18898820  1
  O  O185  1  0.51032946  0.87433452  0.75159350  1
  O  O186  1  0.49198682  0.13684124  0.23513730  1
  O  O187  1  0.51013325  0.14151291  0.75003539  1
  O  O188  1  0.50790029  0.61589057  0.23235673  1
  O  O189  1  0.49191261  0.63077230  0.73999510  1
  O  O190  1  0.98225754  0.12948090  0.24687774  1
  O  O191  1  0.98646680  0.13253202  0.75421269  1
  O  O192  1  0.98458234  0.61445005  0.25368181  1
  O  O193  1  0.99042182  0.64034244  0.76164280  1
  O  O194  1  0.36458809  0.26322455  -0.00858123  1
  O  O195  1  0.36810399  0.25397113  0.50174189  1
  O  O196  1  0.37432289  0.76484188  0.00512841  1
  O  O197  1  0.37570178  0.74966247  0.50381406  1
  O  O198  1  0.85649673  0.24852014  0.00067037  1
  O  O199  1  0.87822688  0.25512973  0.50535659  1
  O  O200  1  0.88641603  0.76545887  0.01155881  1
  O  O201  1  0.94828668  0.76907172  0.48944687  1
  O  O202  1  0.13495530  0.24685429  0.49514374  1
  O  O203  1  0.13721033  0.26581955  0.98302181  1
  O  O204  1  0.14326760  0.79507246  0.48460442  1
  O  O205  1  0.14254987  0.75267767  1.00632635  1
  O  O206  1  0.62519607  0.24444267  0.49918810  1
  O  O207  1  0.62840908  0.23971627  0.99351935  1
  O  O208  1  0.62817023  0.73675020  0.49590120  1
  O  O209  1  0.61932317  0.74381338  0.98490696  1
  O  O210  1  0.49834429  0.24359928  0.11912204  1
  O  O211  1  0.50347319  0.25517787  0.63747344  1
  O  O212  1  0.49045125  0.74101663  0.12234983  1
  O  O213  1  0.48494100  0.73964772  0.62402033  1
  O  O214  1  1.02064941  0.26996894  0.13048111  1
  O  O215  1  0.98677061  0.24460671  0.63041001  1
  O  O216  1  0.99362971  0.76985303  0.13568542  1
  O  O217  1  1.00421681  0.75281053  0.64235475  1
  O  O218  1  0.01554798  0.24716768  0.37829361  1
  O  O219  1  0.01752787  0.24363329  0.86798871  1
  O  O220  1  0.06002915  0.72157480  0.37416291  1
  O  O221  1  0.00076333  0.76631460  0.86868248  1
  O  O222  1  0.49782650  0.26717698  0.36514466  1
  O  O223  1  0.51084287  0.25873975  0.87306305  1
  O  O224  1  0.52346150  0.74263748  0.37195309  1
  O  O225  1  0.51028305  0.75602426  0.87324622  1
  O  O226  1  0.24585582  0.13558624  0.49377843  1
  O  O227  1  0.24187290  0.13810377  0.99004016  1
  O  O228  1  0.23839981  0.63570647  0.48574244  1
  O  O229  1  0.26586370  0.64227947  0.99809622  1
  O  O230  1  0.74273776  0.12507943  0.48232422  1
  O  O231  1  0.74002988  0.12840025  0.99400523  1
  O  O232  1  0.75414786  0.63570470  0.52039435  1
  O  O233  1  0.73986673  0.62360262  0.98173080  1
  O  O234  1  0.26363046  0.36684780  -0.00651191  1
  O  O235  1  0.26523171  0.36245342  0.49918160  1
  O  O236  1  0.26247046  0.87099944  0.00875562  1
  O  O237  1  0.20684870  0.83851880  0.48126112  1
  O  O238  1  0.74493029  0.34703254  -0.01766433  1
  O  O239  1  0.75901871  0.38157951  0.51505459  1
  O  O240  1  0.76460284  0.87847739  0.01081721  1
  O  O241  1  0.76286978  0.87370103  0.50775520  1
  O  O242  1  0.09071420  0.45899523  0.23630086  1
  O  O243  1  0.13070247  0.48080786  0.74305776  1
  O  O244  1  0.13467393  1.00277430  0.24311391  1
  O  O245  1  0.12080362  0.99458487  0.73202362  1
  O  O246  1  0.67243490  0.57151038  0.27131681  1
  O  O247  1  0.63083150  0.48973740  0.74904328  1
  O  O248  1  0.63576308  1.02140605  0.24667481  1
  O  O249  1  0.61969486  0.98805495  0.75075686  1
  O  O250  1  0.37394243  -0.00615769  0.27144498  1
  O  O251  1  0.37417404  0.02738141  0.71098422  1
  O  O252  1  0.36934669  0.50049975  0.26079839  1
  O  O253  1  0.37691539  0.50801837  0.76233083  1
  O  O254  1  0.86324655  0.00766936  0.25810404  1
  O  O255  1  0.87728693  0.00919879  0.76270800  1
  O  O256  1  0.89026772  0.48643310  0.27912472  1
  O  O257  1  0.86557253  0.52032254  0.75024433  1
  O  O258  1  0.12509329  0.36155839  0.38359798  1
  O  O259  1  0.13508377  0.35891097  0.85549593  1
  O  O260  1  0.05554034  0.88064394  0.32772933  1
  O  O261  1  0.11387702  0.88839229  0.86042864  1
  O  O262  1  0.61022329  0.38903706  0.38645525  1
  O  O263  1  0.61997236  0.36790655  0.86912594  1
  O  O264  1  0.66025194  0.84573248  0.37219852  1
  O  O265  1  0.62713535  0.86760132  0.87129939  1
  O  O266  1  0.37678348  0.13114077  0.11477086  1
  O  O267  1  0.36841717  0.08678922  0.66332778  1
  O  O268  1  0.38846013  0.63896984  0.11889796  1
  O  O269  1  0.38169391  0.62556528  0.63458816  1
  O  O270  1  0.87019334  0.12048517  0.13914378  1
  O  O271  1  0.85950100  0.13104781  0.63467503  1
  O  O272  1  0.88057902  0.65048931  0.12441145  1
  O  O273  1  0.87646215  0.62986206  0.63861022  1
  O  O274  1  0.24680670  0.23901251  0.10615257  1
  O  O275  1  0.25204751  0.24189862  0.61188848  1
  O  O276  1  0.26753062  0.76239252  0.11655695  1
  O  O277  1  0.26601972  0.74257214  0.62257257  1
  O  O278  1  0.73659401  0.23775571  0.11164318  1
  O  O279  1  0.76116181  0.26102240  0.63565803  1
  O  O280  1  0.75632352  0.75945983  0.13073238  1
  O  O281  1  0.75164445  0.77282964  0.63255752  1
  O  O282  1  0.24861421  0.24267892  0.38559810  1
  O  O283  1  0.24168079  0.23884512  0.87891149  1
  O  O284  1  0.22998478  0.74170187  0.34318074  1
  O  O285  1  0.25032233  0.75789464  0.88913424  1
  O  O286  1  0.75117414  0.24081887  0.36850960  1
  O  O287  1  0.73823125  0.23435271  0.87758204  1
  O  O288  1  0.75259910  0.71247581  0.36578285  1
  O  O289  1  0.73643078  0.74271557  0.86801173  1
  O  O290  1  0.00402300  0.13751298  0.01448952  1
  O  O291  1  0.01065401  0.12174284  0.49320873  1
  O  O292  1  -0.03175152  0.59403937  -0.00562645  1
  O  O293  1  -0.00692218  0.60109199  0.52476555  1
  O  O294  1  0.50385901  0.12514914  0.00335533  1
  O  O295  1  0.51948221  0.12467750  0.49064035  1
  O  O296  1  0.50669973  0.61943726  -0.00068711  1
  O  O297  1  0.49743566  0.62430668  0.51623965  1
  O  O298  1  0.48793688  0.37159855  0.48709454  1
  O  O299  1  0.49606138  0.38118079  0.99268495  1
  O  O300  1  0.51155333  0.88745583  0.49631494  1
  O  O301  1  0.48655866  0.88579207  1.00109617  1
  O  O302  1  0.98593290  0.37533748  0.50618792  1
  O  O303  1  0.95736795  0.37636181  1.02700480  1
  O  O304  1  0.99763344  0.90839185  0.49156589  1
  O  O305  1  1.00030639  0.87455002  0.98580393  1
  O  O306  1  0.49099793  0.49408933  0.36933244  1
  O  O307  1  0.49691808  0.49221814  0.88080083  1
  O  O308  1  0.49046769  1.00241721  0.37941988  1
  O  O309  1  0.50022366  1.00241823  0.89038920  1
  O  O310  1  0.99367026  0.49843183  0.40135514  1
  O  O311  1  0.99267125  0.48811372  0.84343308  1
  O  O312  1  0.98036743  1.01317122  0.37261520  1
  O  O313  1  0.99159655  0.98937023  0.86930271  1
  O  O314  1  0.01543374  -0.01801475  0.13844084  1
  O  O315  1  0.00206666  0.00756261  0.61461294  1
  O  O316  1  -0.06285814  0.50909010  0.13736676  1
  O  O317  1  0.00419165  0.48466115  0.62959048  1
  O  O318  1  0.49162659  0.02584745  0.11143663  1
  O  O319  1  0.50951950  0.00282812  0.60590629  1
  O  O320  1  0.49097259  0.51530120  0.11097400  1
  O  O321  1  0.50442414  0.51435893  0.63346668  1
  O  O322  1  0.23545237  0.37737765  0.25765776  1
  O  O323  1  0.24873155  0.36544025  0.74405680  1
  O  O324  1  0.26076274  0.87382934  0.23977544  1
  O  O325  1  0.23192061  0.87453405  0.74860235  1
  O  O326  1  0.74139281  0.40233072  0.24988206  1
  O  O327  1  0.74584823  0.38213798  0.74965299  1
  O  O328  1  0.74942233  0.88659051  0.23226146  1
  O  O329  1  0.73840948  0.87818074  0.74802696  1
  O  O330  1  0.24996964  0.12674001  0.26872526  1
  O  O331  1  0.24725287  0.12194293  0.76364975  1
  O  O332  1  0.15862967  0.59621488  0.28861063  1
  O  O333  1  0.26455269  0.62689803  0.74976913  1
  O  O334  1  0.75623310  0.12097141  0.25700164  1
  O  O335  1  0.75749516  0.12783830  0.76171499  1
  O  O336  1  0.80738493  0.61948042  0.24959969  1
  O  O337  1  0.75991624  0.62588618  0.75301225  1
  O  O338  1  0.36682520  0.12783353  0.37936207  1
  O  O339  1  0.36136905  0.12293051  0.87886548  1
  O  O340  1  0.37708156  0.61038073  0.37753414  1
  O  O341  1  0.38242018  0.61336169  0.86492396  1
  O  O342  1  0.86151477  0.12156701  0.36224308  1
  O  O343  1  0.86809963  0.11865778  0.87056032  1
  O  O344  1  0.87519079  0.60505045  0.38717442  1
  O  O345  1  0.85849769  0.63969247  0.87057251  1
  O  O346  1  0.15121486  0.36078546  0.12499785  1
  O  O347  1  0.12991349  0.37371755  0.63693557  1
  O  O348  1  0.14419219  0.88024101  0.12884229  1
  O  O349  1  0.11107274  0.88685726  0.63262898  1
  O  O350  1  0.64736454  0.39542511  0.10896303  1
  O  O351  1  0.63380306  0.37361318  0.63444378  1
  O  O352  1  0.64386609  0.87268214  0.09960580  1
  O  O353  1  0.62587818  0.87083306  0.63833031  1
  O  O354  1  0.13294669  0.25671916  0.26594403  1
  O  O355  1  0.12242645  0.25295855  0.75244175  1
  O  O356  1  0.16625422  0.77233306  0.31638361  1
  O  O357  1  0.11590730  0.76443696  0.74658189  1
  O  O358  1  0.59977177  0.25122686  0.24006347  1
  O  O359  1  0.62159011  0.25958248  0.75908657  1
  O  O360  1  0.63814714  0.73182546  0.26054817  1
  O  O361  1  0.62151944  0.76226604  0.76130602  1
  O  O362  1  0.39269530  0.26287202  0.24527720  1
  O  O363  1  0.39375483  0.25366129  0.75518230  1
  O  O364  1  0.37771440  0.75015850  0.23704921  1
  O  O365  1  0.37583552  0.73775519  0.74991068  1
  O  O366  1  0.86472746  0.24363086  0.24917061  1
  O  O367  1  0.88082321  0.23969949  0.74439376  1
  O  O368  1  0.87629159  0.76989401  0.23853996  1
  O  O369  1  0.88520348  0.74469103  0.75293788  1
  O  O370  1  0.37274477  0.49252164  0.49754156  1
  O  O371  1  0.38414135  0.49189082  0.98756704  1
  O  O372  1  0.39509219  1.01103853  0.49075049  1
  O  O373  1  0.37642227  0.98693502  1.00600913  1
  O  O374  1  0.88604760  0.48440496  0.50655317  1
  O  O375  1  0.82852946  0.47309808  0.98086852  1
  O  O376  1  0.88113924  1.01707042  0.48719818  1
  O  O377  1  0.87590407  0.99096094  0.99147187  1
  O  O378  1  0.13284635  -0.00401382  0.02513033  1
  O  O379  1  0.10928737  0.01058437  0.50367920  1
  O  O380  1  0.09364066  0.45775746  -0.00248362  1
  O  O381  1  0.11290509  0.48677392  0.52033118  1
  O  O382  1  0.61002406  0.00277265  0.01252662  1
  O  O383  1  0.61679814  0.00769143  0.49027864  1
  O  O384  1  0.61544308  0.51464259  -0.01073984  1
  O  O385  1  0.63646698  0.52503705  0.50833523  1
  O  O386  1  0.38290406  0.38012969  0.10638183  1
  O  O387  1  0.38471623  0.38085747  0.60986450  1
  O  O388  1  0.37302421  0.86728705  0.11969955  1
  O  O389  1  0.37491096  0.86091243  0.62445983  1
  O  O390  1  0.82487742  0.37478852  0.11264841  1
  O  O391  1  0.86841819  0.36059450  0.61541220  1
  O  O392  1  0.86637359  0.87294645  0.11924463  1
  O  O393  1  0.87050175  0.88173494  0.62395016  1
  O  O394  1  0.13548702  0.13424325  0.38458803  1
  O  O395  1  0.13165126  0.13487909  0.87582619  1
  O  O396  1  0.08167663  0.65982219  0.40750559  1
  O  O397  1  0.11705319  0.60174804  0.92032124  1
  O  O398  1  0.63571673  0.12841558  0.37934211  1
  O  O399  1  0.62877962  0.12747796  0.88564831  1
  O  O400  1  0.63778079  0.62934777  0.39796893  1
  O  O401  1  0.62736002  0.63954821  0.87526225  1
