# generated using pymatgen
data_V73Zn73O256
_symmetry_space_group_name_H-M   'P 1'
_cell_length_a   16.92794273
_cell_length_b   16.90876959
_cell_length_c   16.85822141
_cell_angle_alpha   89.75969148
_cell_angle_beta   90.40867698
_cell_angle_gamma   90.11726608
_symmetry_Int_Tables_number   1
_chemical_formula_structural   V73Zn73O256
_chemical_formula_sum   'V73 Zn73 O256'
_cell_volume   4825.16523218
_cell_formula_units_Z   1
loop_
 _symmetry_equiv_pos_site_id
 _symmetry_equiv_pos_as_xyz
  1  'x, y, z'
loop_
 _atom_site_type_symbol
 _atom_site_label
 _atom_site_symmetry_multiplicity
 _atom_site_fract_x
 _atom_site_fract_y
 _atom_site_fract_z
 _atom_site_occupancy
  V  V0  1  0.63405854  0.01399486  0.63296053  1
  V  V1  1  0.12854092  0.62153813  -0.00860898  1
  V  V2  1  0.74506504  0.12618555  0.86776220  1
  V  V3  1  0.62610274  0.13298167  0.49151288  1
  V  V4  1  0.62418256  0.75677961  0.86927182  1
  V  V5  1  0.50356184  0.88095183  0.87056303  1
  V  V6  1  0.25788082  0.86445015  0.12727505  1
  V  V7  1  0.12636552  0.50032637  0.12326258  1
  V  V8  1  0.25985244  0.01405943  0.25897733  1
  V  V9  1  0.50283183  0.37576462  0.36491803  1
  V  V10  1  0.37711566  0.01291434  0.87455209  1
  V  V11  1  0.38112785  0.50082710  0.37223565  1
  V  V12  1  0.88367496  0.13220276  0.75491760  1
  V  V13  1  0.50701404  0.50237114  0.50734056  1
  V  V14  1  0.50155544  0.62447115  0.12662624  1
  V  V15  1  0.22245901  0.12054006  0.88058364  1
  V  V16  1  0.63824321  0.50391199  0.12998658  1
  V  V17  1  0.87825146  0.25571358  0.62212303  1
  V  V18  1  0.75229330  0.61890649  0.86621627  1
  V  V19  1  0.48431739  0.38609406  0.88315882  1
  V  V20  1  -0.00284912  0.88033665  0.37803085  1
  V  V21  1  0.88078427  -0.02384290  0.86387031  1
  V  V22  1  0.25932987  0.74436764  -0.01315109  1
  V  V23  1  0.23881447  0.50151248  0.75208828  1
  V  V24  1  0.62213269  0.26178831  0.86692419  1
  V  V25  1  0.86502499  0.50366497  0.37192490  1
  V  V26  1  0.74454762  0.26631683  0.01575606  1
  V  V27  1  0.64428703  0.88528287  0.74696776  1
  V  V28  1  0.88210057  0.38746785  0.00170172  1
  V  V29  1  0.00516607  0.74750734  0.24901002  1
  V  V30  1  0.37469702  0.37555000  0.50761827  1
  V  V31  1  0.11310512  0.86763811  0.73684480  1
  V  V32  1  0.87940905  0.76316175  0.11967634  1
  V  V33  1  0.80802192  0.81192581  0.55835174  1
  V  V34  1  0.00232314  0.62084754  0.11689597  1
  V  V35  1  0.12566122  0.36757829  0.25002495  1
  V  V36  1  0.63420235  0.50037856  0.64345235  1
  V  V37  1  0.38191276  0.87353523  0.00323546  1
  V  V38  1  0.63451692  0.38239163  0.24647799  1
  V  V39  1  0.26725752  0.75300489  0.51213115  1
  V  V40  1  0.36748441  0.24271168  0.11891387  1
  V  V41  1  0.12447091  0.34647002  0.74340839  1
  V  V42  1  0.48420611  0.00904067  0.51825452  1
  V  V43  1  0.01512877  0.11684684  0.62432062  1
  V  V44  1  0.50670426  0.00807293  0.01944933  1
  V  V45  1  0.86414821  0.62308363  0.24878482  1
  V  V46  1  0.11274221  0.75385739  0.86936602  1
  V  V47  1  0.63071880  0.12677737  0.02361452  1
  V  V48  1  0.37284649  0.62170315  0.77002544  1
  V  V49  1  -0.00307831  0.37429402  0.37368048  1
  V  V50  1  0.21127421  0.23031447  0.48882564  1
  V  V51  1  0.49209594  0.23473772  0.24287607  1
  V  V52  1  0.62286816  0.62579351  0.00136125  1
  V  V53  1  0.63557679  0.63543776  0.49572273  1
  V  V54  1  0.01267463  0.36644680  0.86883384  1
  V  V55  1  0.87692189  0.24656549  0.13228232  1
  V  V56  1  0.51589044  0.76058633  0.25401807  1
  V  V57  1  0.49748804  0.88990211  0.38986573  1
  V  V58  1  0.74784264  0.36967383  0.62943761  1
  V  V59  1  0.00256224  0.49806337  0.50549754  1
  V  V60  1  0.13714920  0.87139208  0.24980929  1
  V  V61  1  0.47979810  0.24892520  0.74938609  1
  V  V62  1  0.12902969  0.74121400  0.37894560  1
  V  V63  1  0.74775059  0.89372249  0.12810592  1
  V  V64  1  0.22662381  0.24445965  0.00387523  1
  V  V65  1  0.49342051  0.63932401  0.63287549  1
  V  V66  1  0.37979836  0.63447993  0.24760324  1
  V  V67  1  0.25245436  0.49386855  0.24760827  1
  V  V68  1  0.75791144  0.75936487  -0.00692667  1
  V  V69  1  0.87654218  0.62579738  0.73403864  1
  V  V70  1  0.00371859  0.64148809  0.62433565  1
  V  V71  1  0.24700700  -0.01291125  0.73751443  1
  V  V72  1  0.25364011  0.62379671  0.37856714  1
  Zn  Zn73  1  0.37220168  0.24131961  0.62082505  1
  Zn  Zn74  1  0.64540721  0.25396761  0.38614807  1
  Zn  Zn75  1  0.01599284  0.12367586  0.10904159  1
  Zn  Zn76  1  0.12885050  -0.00275086  0.11019679  1
  Zn  Zn77  1  0.87729801  0.49454803  0.86870369  1
  Zn  Zn78  1  0.64317319  0.76373883  0.38237108  1
  Zn  Zn79  1  0.13806520  0.61224661  0.51616511  1
  Zn  Zn80  1  -0.00735348  0.22943626  0.26446348  1
  Zn  Zn81  1  0.22971894  0.38154660  0.61341647  1
  Zn  Zn82  1  0.16472965  0.17111445  0.18597205  1
  Zn  Zn83  1  0.21491114  0.17460766  0.67724681  1
  Zn  Zn84  1  0.19345036  0.68423872  0.18436303  1
  Zn  Zn85  1  0.18808324  0.67862709  0.69382153  1
  Zn  Zn86  1  0.69795317  0.19589358  0.21841886  1
  Zn  Zn87  1  0.68002254  0.19605913  0.68559417  1
  Zn  Zn88  1  0.69092074  0.70066609  0.18449481  1
  Zn  Zn89  1  0.68443329  0.69240168  0.68369491  1
  Zn  Zn90  1  0.30537625  0.20049442  0.32370110  1
  Zn  Zn91  1  0.30032055  0.31282060  0.82300357  1
  Zn  Zn92  1  0.32156282  0.81060946  0.32098407  1
  Zn  Zn93  1  0.31849004  0.80613733  0.69040070  1
  Zn  Zn94  1  0.81265217  0.31266903  0.31602225  1
  Zn  Zn95  1  0.80808561  0.31457056  0.81157691  1
  Zn  Zn96  1  0.81065491  0.82250291  0.31063100  1
  Zn  Zn97  1  0.89776560  0.83807568  0.73154648  1
  Zn  Zn98  1  0.18565113  0.43425173  0.43058494  1
  Zn  Zn99  1  0.23354170  0.45356297  0.95811668  1
  Zn  Zn100  1  0.20700045  0.92365777  0.42960496  1
  Zn  Zn101  1  0.19479407  0.92478806  0.92746758  1
  Zn  Zn102  1  0.68957790  0.43978091  0.44666086  1
  Zn  Zn103  1  0.67919935  0.44229758  0.93964178  1
  Zn  Zn104  1  0.67617409  0.94115005  0.44540909  1
  Zn  Zn105  1  0.69136845  0.94524829  0.94259653  1
  Zn  Zn106  1  0.30910163  0.06481121  0.06843930  1
  Zn  Zn107  1  0.30258336  0.07185450  0.55884964  1
  Zn  Zn108  1  0.31944437  0.56582452  0.06835942  1
  Zn  Zn109  1  0.31593567  0.55469024  0.57198664  1
  Zn  Zn110  1  0.82900408  0.07211355  0.04689710  1
  Zn  Zn111  1  0.80556211  0.07818886  0.56756044  1
  Zn  Zn112  1  0.81145744  0.56927951  0.06119235  1
  Zn  Zn113  1  0.81272020  0.55432675  0.55748614  1
  Zn  Zn114  1  0.37948364  0.38477445  0.02305097  1
  Zn  Zn115  1  0.44115582  0.43931581  0.70022652  1
  Zn  Zn116  1  0.43732416  0.93397134  0.19019880  1
  Zn  Zn117  1  0.43569405  0.94257284  0.69032722  1
  Zn  Zn118  1  0.93586999  0.43605809  0.18752358  1
  Zn  Zn119  1  0.93491487  0.43613096  0.69683770  1
  Zn  Zn120  1  0.95893427  0.97775068  0.03546008  1
  Zn  Zn121  1  0.94788817  0.94100398  0.56568715  1
  Zn  Zn122  1  0.02229109  0.02598810  0.25006712  1
  Zn  Zn123  1  0.05894948  0.04982895  0.80377063  1
  Zn  Zn124  1  0.06067726  0.55871551  0.31187680  1
  Zn  Zn125  1  0.05683681  0.55205484  0.81157226  1
  Zn  Zn126  1  0.43626171  0.06550560  0.31727235  1
  Zn  Zn127  1  0.56254145  0.07054033  0.81619470  1
  Zn  Zn128  1  0.56742824  0.56657977  0.31271581  1
  Zn  Zn129  1  0.55700788  0.56524213  0.81704885  1
  Zn  Zn130  1  0.44940647  0.19342061  0.44183087  1
  Zn  Zn131  1  0.44523072  0.18989074  0.94416026  1
  Zn  Zn132  1  0.44789527  0.68925492  0.43838901  1
  Zn  Zn133  1  0.44229135  0.69051143  0.93454386  1
  Zn  Zn134  1  0.94357287  0.19435839  0.45430531  1
  Zn  Zn135  1  0.93646799  0.18788203  0.94500588  1
  Zn  Zn136  1  0.93198870  0.68729678  0.43916062  1
  Zn  Zn137  1  0.93617730  0.68602885  0.93217757  1
  Zn  Zn138  1  0.05570970  0.31879072  0.06404430  1
  Zn  Zn139  1  0.05282088  0.30838056  0.56421277  1
  Zn  Zn140  1  0.07094976  0.80880666  0.06245823  1
  Zn  Zn141  1  0.07393983  0.80982151  0.55368361  1
  Zn  Zn142  1  0.55614395  0.31692883  0.06907221  1
  Zn  Zn143  1  0.56154718  0.31626802  0.57018738  1
  Zn  Zn144  1  0.56866407  0.81380221  0.06751144  1
  Zn  Zn145  1  0.56233290  0.82014362  0.56780774  1
  O  O146  1  0.13152855  0.11087662  0.09752888  1
  O  O147  1  0.11321952  0.12972051  0.63870317  1
  O  O148  1  0.11969930  0.62125169  0.11630898  1
  O  O149  1  0.10732415  0.62503742  0.62819743  1
  O  O150  1  0.64098716  0.13340757  0.12138420  1
  O  O151  1  0.61941331  0.11741186  0.62905777  1
  O  O152  1  0.62597721  0.62369620  0.12078165  1
  O  O153  1  0.61512640  0.61722389  0.62289684  1
  O  O154  1  0.39329838  0.38885790  0.38575810  1
  O  O155  1  0.38288087  0.37050000  0.88113247  1
  O  O156  1  0.39801353  0.86820237  0.37804929  1
  O  O157  1  0.38889912  0.89032141  0.89471975  1
  O  O158  1  0.88548778  0.39327641  0.35846890  1
  O  O159  1  0.86965430  0.37526489  0.88969487  1
  O  O160  1  0.89942797  0.86763340  0.36682611  1
  O  O161  1  0.86997019  0.88075068  0.83589934  1
  O  O162  1  0.25762566  -0.00801954  0.35748661  1
  O  O163  1  0.26699297  0.00665640  0.89162527  1
  O  O164  1  0.25881834  0.50809469  0.36917223  1
  O  O165  1  0.25130635  0.48335190  0.85080875  1
  O  O166  1  0.74364947  0.00169198  0.36154320  1
  O  O167  1  0.74842081  0.02377929  0.88009722  1
  O  O168  1  0.76648573  0.49693823  0.37749871  1
  O  O169  1  0.74043549  0.51843194  0.87854580  1
  O  O170  1  0.23929754  0.51169301  0.14085720  1
  O  O171  1  0.24832567  0.49227621  0.63590030  1
  O  O172  1  0.25128494  0.98243192  0.13376394  1
  O  O173  1  0.25042502  0.99774841  0.63970775  1
  O  O174  1  0.73749879  0.50825831  0.12691453  1
  O  O175  1  0.73672807  0.50535213  0.63136464  1
  O  O176  1  0.76637089  0.98934508  0.10150672  1
  O  O177  1  0.73298496  1.00731447  0.62753107  1
  O  O178  1  0.01084148  0.37669558  0.25791547  1
  O  O179  1  0.00921886  0.36752860  0.75777627  1
  O  O180  1  0.01955291  0.85546936  0.25812191  1
  O  O181  1  0.01452837  0.86674946  0.74129634  1
  O  O182  1  0.50451674  0.38826332  0.26582963  1
  O  O183  1  0.49569437  0.36344150  0.77082568  1
  O  O184  1  0.50026768  0.86433560  0.25674934  1
  O  O185  1  0.50213740  0.88396465  0.76965253  1
  O  O186  1  0.50956039  0.13826334  0.25645301  1
  O  O187  1  0.49971904  0.14963968  0.76209693  1
  O  O188  1  0.49721145  0.63462360  0.24714570  1
  O  O189  1  0.48796789  0.61984265  0.74090386  1
  O  O190  1  1.04065988  0.13632866  0.23091074  1
  O  O191  1  0.98732558  0.12884786  0.74945483  1
  O  O192  1  1.00316735  0.63524883  0.23946489  1
  O  O193  1  0.99108771  0.61759062  0.73278185  1
  O  O194  1  0.37584994  0.24511478  0.01291367  1
  O  O195  1  0.39070697  0.27254477  0.50316459  1
  O  O196  1  0.36710253  0.75723243  -0.00833855  1
  O  O197  1  0.36501220  0.74146673  0.49647053  1
  O  O198  1  0.85617717  0.26169846  0.01043734  1
  O  O199  1  0.86458868  0.24287410  0.52207188  1
  O  O200  1  0.86430163  0.74153669  0.00417232  1
  O  O201  1  0.86512148  0.75160581  0.49993505  1
  O  O202  1  0.11108369  0.24883674  0.48778517  1
  O  O203  1  0.12715228  0.25054911  1.00699209  1
  O  O204  1  0.13789999  0.73605208  0.48980905  1
  O  O205  1  0.13399447  0.74275229  0.98960646  1
  O  O206  1  0.61060054  0.24136280  0.49977563  1
  O  O207  1  0.63046974  0.24414111  1.00473253  1
  O  O208  1  0.61786634  0.73901418  0.50250570  1
  O  O209  1  0.63906873  0.74606410  0.99500472  1
  O  O210  1  0.48885986  0.24918337  0.13616708  1
  O  O211  1  0.49308724  0.26162291  0.64522090  1
  O  O212  1  0.51082010  0.74460761  0.14259547  1
  O  O213  1  0.50721569  0.73769807  0.62871957  1
  O  O214  1  0.98198243  0.24354540  0.11382525  1
  O  O215  1  0.98278711  0.24121267  0.62870952  1
  O  O216  1  0.99845826  0.74375315  0.12807838  1
  O  O217  1  0.99910598  0.73959987  0.61514353  1
  O  O218  1  -0.01934651  0.26856069  0.37464499  1
  O  O219  1  -0.00929306  0.26732234  0.88649469  1
  O  O220  1  0.01280998  0.74804418  0.36967928  1
  O  O221  1  0.01301871  0.74868360  0.87799668  1
  O  O222  1  0.50541104  0.26784482  0.36290072  1
  O  O223  1  0.50909311  0.25715497  0.87392525  1
  O  O224  1  0.50826965  0.75223201  0.36408869  1
  O  O225  1  0.51725846  0.76646111  0.88721948  1
  O  O226  1  0.23007513  0.13091836  0.49247402  1
  O  O227  1  0.25029883  0.12837682  0.98809939  1
  O  O228  1  0.25395081  0.62359158  0.49040274  1
  O  O229  1  0.24303496  0.63975630  1.00924317  1
  O  O230  1  0.72650267  0.12847746  0.50508333  1
  O  O231  1  0.74041172  0.14099296  0.99513489  1
  O  O232  1  0.73385348  0.62319900  0.50947010  1
  O  O233  1  0.74147373  0.63495309  0.99188970  1
  O  O234  1  0.25316188  0.34183620  -0.01615246  1
  O  O235  1  0.27170697  0.39181601  0.49422348  1
  O  O236  1  0.26135351  0.86277073  0.00532786  1
  O  O237  1  0.25056692  0.85233707  0.50245162  1
  O  O238  1  0.74945375  0.36841741  -0.00045258  1
  O  O239  1  0.75615721  0.39366804  0.52607291  1
  O  O240  1  0.75063760  0.86121605  -0.00217429  1
  O  O241  1  0.75229651  0.87540109  0.50048994  1
  O  O242  1  0.13327320  0.49954006  0.24327281  1
  O  O243  1  0.13543426  0.50255142  0.74644942  1
  O  O244  1  0.14662427  0.97920329  0.24931664  1
  O  O245  1  0.13587011  0.97678355  0.75726130  1
  O  O246  1  0.62383805  0.49733242  0.24037721  1
  O  O247  1  0.62188527  0.50642945  0.74158906  1
  O  O248  1  0.70265099  1.03595845  0.30199439  1
  O  O249  1  0.61914684  0.99653119  0.74532655  1
  O  O250  1  0.36557980  0.00426859  0.24490792  1
  O  O251  1  0.36338921  -0.00476791  0.76950225  1
  O  O252  1  0.36795609  0.51189337  0.26303836  1
  O  O253  1  0.36577912  0.51335284  0.74203266  1
  O  O254  1  0.88849128  0.03388192  0.42016016  1
  O  O255  1  0.85874067  0.03129068  0.76701338  1
  O  O256  1  0.88026472  0.51554277  0.25293217  1
  O  O257  1  0.87469693  0.51648542  0.75311017  1
  O  O258  1  0.10932578  0.38100008  0.36164938  1
  O  O259  1  0.11506958  0.36743996  0.86067341  1
  O  O260  1  0.12866752  0.85691573  0.36808915  1
  O  O261  1  0.12827056  0.85681383  0.86377172  1
  O  O262  1  0.61902868  0.38214072  0.36771678  1
  O  O263  1  0.61526820  0.36372876  0.88726977  1
  O  O264  1  0.60552394  0.87413008  0.38276063  1
  O  O265  1  0.62427371  0.87753149  0.86867493  1
  O  O266  1  0.36845146  0.13724209  0.13226382  1
  O  O267  1  0.32195707  0.14400859  0.64298601  1
  O  O268  1  0.38665682  0.62458949  0.13747521  1
  O  O269  1  0.39320808  0.62460986  0.62014521  1
  O  O270  1  0.85377130  0.14916498  0.13847694  1
  O  O271  1  0.87278790  0.13405648  0.64214810  1
  O  O272  1  0.88541778  0.62986402  0.13121723  1
  O  O273  1  0.88241279  0.61946198  0.62894603  1
  O  O274  1  0.25090598  0.23646686  0.10935672  1
  O  O275  1  0.24325312  0.26710735  0.58802182  1
  O  O276  1  0.24969421  0.75822420  0.11424775  1
  O  O277  1  0.25208555  0.73611455  0.61491238  1
  O  O278  1  0.75051133  0.25896281  0.11965306  1
  O  O279  1  0.74984268  0.26408515  0.62652014  1
  O  O280  1  0.76062590  0.75776947  0.11116126  1
  O  O281  1  0.75141500  0.75836550  0.62261057  1
  O  O282  1  0.24609575  0.26217806  0.39720021  1
  O  O283  1  0.24228382  0.22561292  0.88021769  1
  O  O284  1  0.24841965  0.73897380  0.38263487  1
  O  O285  1  0.23963267  0.74581649  0.88953624  1
  O  O286  1  0.73719038  0.23110109  0.32505007  1
  O  O287  1  0.73348483  0.25168011  0.88716782  1
  O  O288  1  0.75104780  0.74672684  0.36186604  1
  O  O289  1  0.74200743  0.74050701  0.88660888  1
  O  O290  1  -0.05484866  0.10234385  0.01863617  1
  O  O291  1  -0.00003866  0.12585817  0.52318562  1
  O  O292  1  0.01023541  0.63001954  0.00940327  1
  O  O293  1  -0.00064873  0.61534485  0.51121394  1
  O  O294  1  0.51708675  0.11801527  0.00676795  1
  O  O295  1  0.50638951  0.11362196  0.50473406  1
  O  O296  1  0.51576932  0.64322071  0.01125813  1
  O  O297  1  0.50837884  0.61857516  0.51251806  1
  O  O298  1  0.50007800  0.38827532  0.49399980  1
  O  O299  1  0.49346812  0.37018641  0.99090489  1
  O  O300  1  0.50234255  0.89364025  0.49882233  1
  O  O301  1  0.50313556  0.88914885  0.99918134  1
  O  O302  1  1.00061475  0.38563778  0.48322678  1
  O  O303  1  0.98665378  0.37976110  0.99183753  1
  O  O304  1  1.01203008  0.88099821  0.48565258  1
  O  O305  1  1.04048962  0.90167653  0.99660160  1
  O  O306  1  0.49806332  0.49909076  0.38373548  1
  O  O307  1  0.50422181  0.48493874  0.87642639  1
  O  O308  1  0.49712346  0.99416678  0.38733035  1
  O  O309  1  0.49395032  0.99932993  0.88485317  1
  O  O310  1  0.99206043  0.49342491  0.37860626  1
  O  O311  1  0.99484438  0.47758260  0.87145989  1
  O  O312  1  1.01077532  0.97742101  0.35216072  1
  O  O313  1  0.97944796  0.99601707  0.86452671  1
  O  O314  1  0.01047306  -0.00078674  0.13782905  1
  O  O315  1  -0.00160502  0.01586461  0.63434170  1
  O  O316  1  0.01176838  0.51293752  0.13205248  1
  O  O317  1  -0.01075698  0.49158585  0.60534552  1
  O  O318  1  0.50345700  -0.00225366  0.11769930  1
  O  O319  1  0.50470119  0.00379110  0.62146049  1
  O  O320  1  0.51640325  0.52504668  0.12506227  1
  O  O321  1  0.51200181  0.50250412  0.62026477  1
  O  O322  1  0.23272633  0.39027314  0.25952877  1
  O  O323  1  0.23261327  0.37422453  0.74502035  1
  O  O324  1  0.25256983  0.86518050  0.24438335  1
  O  O325  1  0.24836247  0.88225265  0.75088861  1
  O  O326  1  0.73200866  0.37937146  0.25124591  1
  O  O327  1  0.75756119  0.38280953  0.73295817  1
  O  O328  1  0.76688096  0.88595414  0.22753809  1
  O  O329  1  0.73922343  0.88734793  0.74814638  1
  O  O330  1  0.24344140  0.11642497  0.25684499  1
  O  O331  1  0.23709171  0.09667345  0.77444749  1
  O  O332  1  0.26053573  0.62176118  0.25952195  1
  O  O333  1  0.25819899  0.61016240  0.75285264  1
  O  O334  1  0.74594392  0.07856168  0.25455418  1
  O  O335  1  0.74068455  0.13738769  0.76652862  1
  O  O336  1  0.76648471  0.63078460  0.24107402  1
  O  O337  1  0.75488483  0.63123350  0.76111978  1
  O  O338  1  0.37658174  0.13401772  0.38124923  1
  O  O339  1  0.38274795  0.11230293  0.88219224  1
  O  O340  1  0.37272616  0.61815468  0.37123246  1
  O  O341  1  0.38825678  0.61564360  0.87021868  1
  O  O342  1  0.86989627  0.10722589  0.40427303  1
  O  O343  1  0.85523439  0.14502609  0.86789601  1
  O  O344  1  0.88316843  0.61794204  0.35707532  1
  O  O345  1  0.86065138  0.62019023  0.87381361  1
  O  O346  1  0.11390065  0.38945226  0.13806438  1
  O  O347  1  0.11228924  0.37020339  0.64009228  1
  O  O348  1  0.13965494  0.86728295  0.13778589  1
  O  O349  1  0.13121704  0.86003978  0.63760340  1
  O  O350  1  0.61762862  0.39557971  0.13295646  1
  O  O351  1  0.63403601  0.39024926  0.62628640  1
  O  O352  1  0.64752918  0.87907467  0.11854695  1
  O  O353  1  0.61809936  0.88931593  0.64252334  1
  O  O354  1  0.13080215  0.26832042  0.24187382  1
  O  O355  1  0.13910485  0.24948590  0.74326309  1
  O  O356  1  0.12595037  0.74861496  0.25751528  1
  O  O357  1  0.13087275  0.75184454  0.76224971  1
  O  O358  1  0.60503476  0.27631644  0.23875580  1
  O  O359  1  0.61939249  0.25736062  0.76544865  1
  O  O360  1  0.61844584  0.74861194  0.25711500  1
  O  O361  1  0.63208979  0.76793870  0.76156979  1
  O  O362  1  0.38775842  0.24472247  0.24860570  1
  O  O363  1  0.37700457  0.25664412  0.75219018  1
  O  O364  1  0.38661838  0.73801667  0.25685280  1
  O  O365  1  0.36274138  0.72149673  0.75292844  1
  O  O366  1  0.88417428  0.27028560  0.23422861  1
  O  O367  1  0.86312921  0.23976422  0.74191582  1
  O  O368  1  0.88811905  0.73976949  0.23856497  1
  O  O369  1  0.88051895  0.72482416  0.75176835  1
  O  O370  1  0.38881092  0.49829480  0.49225603  1
  O  O371  1  0.33718301  0.48539712  0.99828545  1
  O  O372  1  0.38457947  1.00939656  0.51315581  1
  O  O373  1  0.39257375  0.99887225  0.99956485  1
  O  O374  1  0.88754423  0.51074097  0.47970230  1
  O  O375  1  0.86532842  0.48954688  0.99868114  1
  O  O376  1  0.86666164  1.00553817  0.49697392  1
  O  O377  1  0.86353160  0.97771377  0.96926536  1
  O  O378  1  0.10727353  -0.04315846  -0.00210859  1
  O  O379  1  0.13141374  -0.00060514  0.49487843  1
  O  O380  1  0.14235580  0.50948535  0.01270094  1
  O  O381  1  0.10887068  0.50138095  0.49084373  1
  O  O382  1  0.61843057  0.01593191  0.00174125  1
  O  O383  1  0.61514522  0.01227547  0.51714697  1
  O  O384  1  0.62819449  0.51635727  0.01326876  1
  O  O385  1  0.61863493  0.51127826  0.50869899  1
  O  O386  1  0.36175567  0.34579996  0.13141499  1
  O  O387  1  0.38260563  0.38392063  0.60992571  1
  O  O388  1  0.37294360  0.87608879  0.11193894  1
  O  O389  1  0.38743713  0.86545583  0.62825361  1
  O  O390  1  0.87983758  0.37142855  0.10926455  1
  O  O391  1  0.87049513  0.36163040  0.63188950  1
  O  O392  1  0.87652163  0.86220868  0.11488778  1
  O  O393  1  0.87633031  0.86933880  0.62087301  1
  O  O394  1  0.10246868  0.05093763  0.45002418  1
  O  O395  1  0.12422698  0.10686763  0.88452776  1
  O  O396  1  0.13861491  0.62828186  0.37067075  1
  O  O397  1  0.11702584  0.62914650  0.88593360  1
  O  O398  1  0.61760358  0.12921822  0.39230884  1
  O  O399  1  0.63157418  0.14106281  0.88581168  1
  O  O400  1  0.62252413  0.62502562  0.39340769  1
  O  O401  1  0.62952504  0.63629345  0.87916530  1
