# generated using pymatgen
data_V73Zn73O256
_symmetry_space_group_name_H-M   'P 1'
_cell_length_a   16.89925886
_cell_length_b   16.90310774
_cell_length_c   16.99157638
_cell_angle_alpha   90.58196965
_cell_angle_beta   90.06754870
_cell_angle_gamma   90.12322592
_symmetry_Int_Tables_number   1
_chemical_formula_structural   V73Zn73O256
_chemical_formula_sum   'V73 Zn73 O256'
_cell_volume   4853.37857958
_cell_formula_units_Z   1
loop_
 _symmetry_equiv_pos_site_id
 _symmetry_equiv_pos_as_xyz
  1  'x, y, z'
loop_
 _atom_site_type_symbol
 _atom_site_label
 _atom_site_symmetry_multiplicity
 _atom_site_fract_x
 _atom_site_fract_y
 _atom_site_fract_z
 _atom_site_occupancy
  V  V0  1  -0.01018378  0.86344447  0.87829631  1
  V  V1  1  0.49684976  0.87442702  0.86861272  1
  V  V2  1  0.88656094  0.36636350  -0.01618664  1
  V  V3  1  0.14028144  0.25321055  0.37906207  1
  V  V4  1  0.25202411  0.63369426  0.36906843  1
  V  V5  1  0.50993124  0.25032904  0.25315519  1
  V  V6  1  0.12369274  0.36977024  0.76419388  1
  V  V7  1  0.87716609  0.72805955  0.12440001  1
  V  V8  1  0.38759007  0.64106339  0.76498123  1
  V  V9  1  0.37288495  0.12739204  0.24945911  1
  V  V10  1  0.37711858  0.62085794  0.24529187  1
  V  V11  1  0.74481188  0.84158326  0.62263224  1
  V  V12  1  0.62874414  0.39315421  0.24384582  1
  V  V13  1  0.35884419  0.91540988  0.50497042  1
  V  V14  1  0.25323108  0.37635268  0.12746418  1
  V  V15  1  0.49615200  0.75560468  0.26340839  1
  V  V16  1  0.49692963  0.00020608  -0.00214617  1
  V  V17  1  0.75391739  0.11284946  0.86359128  1
  V  V18  1  0.86374133  0.88054303  0.01215659  1
  V  V19  1  0.00012811  0.49897697  0.50232497  1
  V  V20  1  0.38119978  0.37437059  -0.00435885  1
  V  V21  1  0.36682120  0.49444098  0.37447038  1
  V  V22  1  0.24762697  0.86748264  0.12003584  1
  V  V23  1  0.87841500  0.25305493  0.14302653  1
  V  V24  1  0.36950887  0.11605474  0.75882021  1
  V  V25  1  0.12208960  0.49778389  0.13359391  1
  V  V26  1  0.49901525  0.11130160  0.63294339  1
  V  V27  1  0.50060618  0.12805140  0.12433527  1
  V  V28  1  0.37927190  0.74659231  0.12239430  1
  V  V29  1  0.61916805  0.62668684  0.02331433  1
  V  V30  1  0.64269547  0.43025055  0.71695397  1
  V  V31  1  0.36851412  0.86948209  -0.00313474  1
  V  V32  1  0.64260274  0.00620923  0.62902272  1
  V  V33  1  0.13424465  0.63004604  0.50744441  1
  V  V34  1  0.24841350  0.24715821  -0.01185024  1
  V  V35  1  0.61796506  0.87691048  0.27519577  1
  V  V36  1  0.76274452  0.25004231  0.50220321  1
  V  V37  1  0.12168046  0.00051149  0.12832074  1
  V  V38  1  -0.00267938  0.36560009  0.37573293  1
  V  V39  1  0.61693982  0.12314000  0.49101012  1
  V  V40  1  0.87330503  0.87050871  0.50122315  1
  V  V41  1  0.12455297  0.74963805  0.86918407  1
  V  V42  1  0.75652169  0.25203273  0.00332052  1
  V  V43  1  0.12655213  0.12919292  -0.00914318  1
  V  V44  1  0.74108434  0.75147282  0.00365864  1
  V  V45  1  0.00650604  0.48764195  -0.01170758  1
  V  V46  1  0.25720689  0.50072224  0.75040387  1
  V  V47  1  0.26214269  0.27033482  0.50456271  1
  V  V48  1  -0.00334043  0.12928155  0.14554867  1
  V  V49  1  0.24722742  0.00197405  0.24421053  1
  V  V50  1  0.87715941  0.50910420  0.36622288  1
  V  V51  1  0.61990742  0.74139445  0.86361624  1
  V  V52  1  0.18948668  0.07182724  0.42061490  1
  V  V53  1  0.38340434  0.49974237  0.87883895  1
  V  V54  1  0.39362985  -0.00203578  0.36315893  1
  V  V55  1  0.38478330  0.25319151  0.63218826  1
  V  V56  1  0.10576411  0.73592887  0.35517619  1
  V  V57  1  0.13291435  0.36980083  0.25384212  1
  V  V58  1  0.62563625  0.88274987  0.75254160  1
  V  V59  1  0.75441092  -0.00146691  0.25498763  1
  V  V60  1  0.76973022  0.12241249  0.37433828  1
  V  V61  1  0.50303063  0.50412566  0.01746417  1
  V  V62  1  0.62760186  0.12856889  -0.00018000  1
  V  V63  1  0.62817068  -0.01121275  0.12399772  1
  V  V64  1  0.87280863  0.25661201  0.64876893  1
  V  V65  1  -0.01242532  0.89303277  0.36143909  1
  V  V66  1  0.61667392  0.26214953  0.86832547  1
  V  V67  1  0.50206385  0.37544264  0.38139567  1
  V  V68  1  0.36454072  0.74026041  0.61516066  1
  V  V69  1  0.61548302  0.66913791  0.50141613  1
  V  V70  1  0.12510852  0.62833993  0.00683053  1
  V  V71  1  -0.00597033  0.00194168  -0.00275623  1
  V  V72  1  0.14059648  0.49340438  0.62327741  1
  Zn  Zn73  1  0.36103140  0.00228666  0.87862142  1
  Zn  Zn74  1  0.40450171  0.40694145  0.53393715  1
  Zn  Zn75  1  0.25377237  0.63450286  0.88312103  1
  Zn  Zn76  1  0.11412424  0.86324510  0.24063240  1
  Zn  Zn77  1  0.37441085  0.25208260  0.12284902  1
  Zn  Zn78  1  1.00069234  0.00753576  0.49355249  1
  Zn  Zn79  1  0.11693728  0.87799031  0.71853306  1
  Zn  Zn80  1  0.21634166  0.00374698  0.77282077  1
  Zn  Zn81  1  0.56828929  0.50833285  0.56797835  1
  Zn  Zn82  1  0.18734090  0.19010834  0.18138186  1
  Zn  Zn83  1  0.20200707  0.19612276  0.69455579  1
  Zn  Zn84  1  0.19310430  0.68061446  0.18571783  1
  Zn  Zn85  1  0.19707742  0.68792528  0.69291416  1
  Zn  Zn86  1  0.69297918  0.18557217  0.18866134  1
  Zn  Zn87  1  0.68972476  0.19585179  0.69039358  1
  Zn  Zn88  1  0.68466095  0.70769858  0.18700958  1
  Zn  Zn89  1  0.69671153  0.62916971  0.66665899  1
  Zn  Zn90  1  0.31588658  0.30786196  0.30955314  1
  Zn  Zn91  1  0.31229786  0.31434662  0.80925744  1
  Zn  Zn92  1  0.30906222  0.81442052  0.31106593  1
  Zn  Zn93  1  0.29353447  0.82559175  0.80916931  1
  Zn  Zn94  1  0.80457337  0.31170569  0.32081424  1
  Zn  Zn95  1  0.79486396  0.31592952  0.81351694  1
  Zn  Zn96  1  0.82494385  0.82464376  0.28892226  1
  Zn  Zn97  1  0.79889305  0.82514801  0.82355340  1
  Zn  Zn98  1  0.19951029  0.44146139  0.44023263  1
  Zn  Zn99  1  0.19656487  0.43899061  0.93854684  1
  Zn  Zn100  1  0.17668755  0.89237971  0.44431729  1
  Zn  Zn101  1  0.17977120  0.93587937  0.93636792  1
  Zn  Zn102  1  0.68656741  0.42533029  0.42600714  1
  Zn  Zn103  1  0.69424211  0.43986732  0.94492529  1
  Zn  Zn104  1  0.69365818  0.93922306  0.44687799  1
  Zn  Zn105  1  0.68492188  0.93880842  0.93882581  1
  Zn  Zn106  1  0.30962586  0.06103718  0.06110880  1
  Zn  Zn107  1  0.30901606  0.06605037  0.56918121  1
  Zn  Zn108  1  0.30821491  0.56085026  0.06337458  1
  Zn  Zn109  1  0.35336672  0.55147359  0.58447592  1
  Zn  Zn110  1  0.81032409  0.06719922  0.07018785  1
  Zn  Zn111  1  0.82154635  0.06821490  0.56413219  1
  Zn  Zn112  1  0.81333433  0.55877036  0.01694824  1
  Zn  Zn113  1  0.75520038  0.55988245  0.49463571  1
  Zn  Zn114  1  0.44084506  0.43579573  0.18993274  1
  Zn  Zn115  1  0.45582755  0.44312784  0.70343142  1
  Zn  Zn116  1  0.43863476  0.93578369  0.18291925  1
  Zn  Zn117  1  0.42159512  0.93011182  0.68366613  1
  Zn  Zn118  1  0.94228783  0.43669362  0.19089229  1
  Zn  Zn119  1  0.95772935  0.40791100  0.66270200  1
  Zn  Zn120  1  0.93675252  0.93487779  0.18137503  1
  Zn  Zn121  1  0.94558044  0.82406694  0.67722216  1
  Zn  Zn122  1  -0.01205522  0.12551456  0.35729247  1
  Zn  Zn123  1  0.04436404  0.07044657  0.80943322  1
  Zn  Zn124  1  0.05651369  0.55710425  0.30737827  1
  Zn  Zn125  1  0.06833513  0.55499485  0.81698628  1
  Zn  Zn126  1  0.56659323  0.06525354  0.30626072  1
  Zn  Zn127  1  0.56327804  0.06650930  0.81369238  1
  Zn  Zn128  1  0.55656498  0.56798231  0.32837849  1
  Zn  Zn129  1  0.56532720  0.55202855  0.80890193  1
  Zn  Zn130  1  0.43935286  0.18645293  0.43823821  1
  Zn  Zn131  1  0.43814471  0.19264192  0.93692200  1
  Zn  Zn132  1  0.44504495  0.68448565  0.43231036  1
  Zn  Zn133  1  0.44396257  0.68849100  0.93981609  1
  Zn  Zn134  1  0.96102894  0.18337434  0.53647053  1
  Zn  Zn135  1  0.94013225  0.18061432  0.92441021  1
  Zn  Zn136  1  0.93633634  0.68094623  0.44401235  1
  Zn  Zn137  1  0.94573367  0.68610672  0.96294699  1
  Zn  Zn138  1  0.06277655  0.30791624  0.06561794  1
  Zn  Zn139  1  0.07191272  0.31575824  0.56337229  1
  Zn  Zn140  1  0.05280806  0.81147974  0.06515913  1
  Zn  Zn141  1  0.03811789  0.79780132  0.53548863  1
  Zn  Zn142  1  0.56672429  0.31754094  0.06523094  1
  Zn  Zn143  1  0.57044231  0.30464587  0.56590404  1
  Zn  Zn144  1  0.55345160  0.81154602  0.06122581  1
  Zn  Zn145  1  0.52956294  0.83735776  0.57619688  1
  O  O146  1  0.11148637  0.11918924  0.12405599  1
  O  O147  1  0.14222916  0.11088695  0.62797302  1
  O  O148  1  0.13310505  0.60623690  0.11812230  1
  O  O149  1  0.13666750  0.62581252  0.61042987  1
  O  O150  1  0.61568481  0.11772439  0.11936676  1
  O  O151  1  0.61618936  0.11595599  0.63062503  1
  O  O152  1  0.62143579  0.63259261  0.12164333  1
  O  O153  1  0.60268091  0.62499033  0.59540789  1
  O  O154  1  0.37771796  0.38807668  0.36636861  1
  O  O155  1  0.37301412  0.38296117  0.88776443  1
  O  O156  1  0.36631475  0.89883459  0.36669209  1
  O  O157  1  0.37952192  0.87519078  0.88297259  1
  O  O158  1  0.89611745  0.36839070  0.37192613  1
  O  O159  1  0.87486632  0.36602247  0.88616913  1
  O  O160  1  0.88228261  0.86386219  0.38019473  1
  O  O161  1  0.88046501  0.86512974  0.89564544  1
  O  O162  1  0.24993624  0.01357647  0.35584015  1
  O  O163  1  0.24952702  0.00135669  0.88220333  1
  O  O164  1  0.26173545  0.50824708  0.36617981  1
  O  O165  1  0.26600017  0.50542371  0.87145667  1
  O  O166  1  0.74533922  0.00678192  0.36584521  1
  O  O167  1  0.73344042  0.01272701  0.87171254  1
  O  O168  1  0.78024675  0.49105173  0.40004823  1
  O  O169  1  0.77260705  0.51197046  0.92353285  1
  O  O170  1  0.23741949  0.48385378  0.11506196  1
  O  O171  1  0.25388993  0.51183768  0.63705812  1
  O  O172  1  0.24209621  0.99035391  0.12719938  1
  O  O173  1  0.18712026  1.04889842  0.62584969  1
  O  O174  1  0.75429482  0.49344610  0.11978522  1
  O  O175  1  0.78186042  0.57073521  0.60792255  1
  O  O176  1  0.73650551  1.01257998  0.14212171  1
  O  O177  1  0.74182909  1.00925896  0.63102677  1
  O  O178  1  0.02044919  0.37730187  0.26681358  1
  O  O179  1  0.02463794  0.38949308  0.74956083  1
  O  O180  1  -0.00620834  0.87017205  0.25676641  1
  O  O181  1  -0.01880022  0.86578629  0.77889206  1
  O  O182  1  0.50572567  0.36701633  0.25578174  1
  O  O183  1  0.55059265  0.42612555  0.76675786  1
  O  O184  1  0.51017535  0.87161687  0.24592784  1
  O  O185  1  0.50613103  0.88795919  0.76447497  1
  O  O186  1  0.49592500  0.13012739  0.24067853  1
  O  O187  1  0.49263959  0.12289705  0.73814348  1
  O  O188  1  0.49208879  0.64553058  0.25863688  1
  O  O189  1  0.48644135  0.62706884  0.76460289  1
  O  O190  1  1.00008065  0.12462625  0.24381209  1
  O  O191  1  0.91656050  0.05221722  0.73775132  1
  O  O192  1  0.99446257  0.59094384  0.22301325  1
  O  O193  1  0.96010490  0.61779360  0.79876617  1
  O  O194  1  0.37015875  0.25771329  0.00295459  1
  O  O195  1  0.37063500  0.24368457  0.51234747  1
  O  O196  1  0.38041257  0.76105853  0.00723978  1
  O  O197  1  0.38138041  0.71903443  0.51830496  1
  O  O198  1  0.87777436  0.25284008  -0.00126988  1
  O  O199  1  0.86292332  0.24743443  0.49683223  1
  O  O200  1  0.86046093  0.75603153  0.00407128  1
  O  O201  1  0.91799869  0.76983366  0.51156119  1
  O  O202  1  0.15088139  0.26272143  0.49538352  1
  O  O203  1  0.13040091  0.23702992  1.00296377  1
  O  O204  1  0.11639903  0.73311202  0.47841216  1
  O  O205  1  0.11724458  0.72998461  1.00982751  1
  O  O206  1  0.63826221  0.22456966  0.51513129  1
  O  O207  1  0.63580256  0.24084328  1.00874041  1
  O  O208  1  0.58836030  0.76568000  0.51328854  1
  O  O209  1  0.61950678  0.74060489  0.99784717  1
  O  O210  1  0.49935057  0.24007827  0.13016127  1
  O  O211  1  0.49030023  0.23437534  0.62122056  1
  O  O212  1  0.48431514  0.75744591  0.13512205  1
  O  O213  1  0.43320815  0.81583664  0.64458132  1
  O  O214  1  0.99502871  0.23618796  0.12925375  1
  O  O215  1  0.98429712  0.26542730  0.61610442  1
  O  O216  1  0.97778373  0.74276240  0.11507066  1
  O  O217  1  1.05143762  0.81574863  0.64407647  1
  O  O218  1  0.02513205  0.26303799  0.38256193  1
  O  O219  1  -0.00220426  0.16775938  0.82986561  1
  O  O220  1  0.00620483  0.73231714  0.36138448  1
  O  O221  1  0.00587330  0.75683923  0.89341921  1
  O  O222  1  0.48403907  0.26223842  0.36224135  1
  O  O223  1  0.51707585  0.25141326  0.88455627  1
  O  O224  1  0.48091135  0.76882981  0.35948079  1
  O  O225  1  0.51138713  0.76479078  0.88421264  1
  O  O226  1  0.24549265  0.12159971  0.49008080  1
  O  O227  1  0.23582995  0.13268670  1.01329590  1
  O  O228  1  0.23533703  0.62448712  0.48057155  1
  O  O229  1  0.23052100  0.61456466  0.99722130  1
  O  O230  1  0.74723241  0.12174864  0.48560844  1
  O  O231  1  0.73859076  0.12755755  0.99956615  1
  O  O232  1  0.71369896  0.66865471  0.47536415  1
  O  O233  1  0.72365837  0.63793594  0.99899794  1
  O  O234  1  0.26027220  0.36695150  0.00619774  1
  O  O235  1  0.27294249  0.37164707  0.50529685  1
  O  O236  1  0.25784462  0.87990845  0.01039625  1
  O  O237  1  0.27206872  0.86109016  0.48640101  1
  O  O238  1  0.77081270  0.35876372  0.00632483  1
  O  O239  1  0.73872145  0.34521376  0.48731469  1
  O  O240  1  0.75819562  0.87372446  -0.00123315  1
  O  O241  1  0.75541777  0.86771423  0.51450477  1
  O  O242  1  0.13137964  0.48838923  0.23776979  1
  O  O243  1  0.13802618  0.50400793  0.74124426  1
  O  O244  1  0.13275066  0.99752474  0.23428721  1
  O  O245  1  0.10259295  0.99068189  0.76238119  1
  O  O246  1  0.61185953  0.49227938  0.26001963  1
  O  O247  1  0.65420375  0.53574975  0.72625464  1
  O  O248  1  0.62557537  0.98731376  0.24345426  1
  O  O249  1  0.62117907  0.99401097  0.73950139  1
  O  O250  1  0.36929525  0.00596034  0.24988423  1
  O  O251  1  0.38008009  0.01093995  0.75673136  1
  O  O252  1  0.38725585  0.51325815  0.25891259  1
  O  O253  1  0.37544586  0.50863627  0.76192588  1
  O  O254  1  0.85243624  -0.01374576  0.24260114  1
  O  O255  1  0.87310710  -0.00619196  0.74070219  1
  O  O256  1  0.87695011  0.48850011  0.26768451  1
  O  O257  1  0.86678639  0.57699954  0.64290352  1
  O  O258  1  0.13718264  0.37173287  0.36849725  1
  O  O259  1  0.13382637  0.37934608  0.86401817  1
  O  O260  1  0.10526274  0.85353004  0.36460438  1
  O  O261  1  0.10672612  0.85840101  0.89031240  1
  O  O262  1  0.60417211  0.37228646  0.36453722  1
  O  O263  1  0.63362036  0.35868598  0.89803350  1
  O  O264  1  0.61900899  0.88362460  0.37298036  1
  O  O265  1  0.61508381  0.87553403  0.86925205  1
  O  O266  1  0.38811430  0.12081042  0.12970219  1
  O  O267  1  0.38589960  0.12590886  0.63383219  1
  O  O268  1  0.36455653  0.63553066  0.13190413  1
  O  O269  1  0.37846128  0.64031532  0.65231368  1
  O  O270  1  0.89156337  0.13140049  0.12367979  1
  O  O271  1  0.88512019  0.14495773  0.61707837  1
  O  O272  1  0.86204951  0.63107762  0.09482566  1
  O  O273  1  0.90570144  0.63701945  0.62333259  1
  O  O274  1  0.25167706  0.26064211  0.11334724  1
  O  O275  1  0.26787338  0.24330120  0.61046550  1
  O  O276  1  0.25889316  0.76171012  0.13180970  1
  O  O277  1  0.26672836  0.75831847  0.63312041  1
  O  O278  1  0.77081419  0.23334408  0.11640413  1
  O  O279  1  0.76178702  0.24069387  0.61394953  1
  O  O280  1  0.75092167  0.75506368  0.10890157  1
  O  O281  1  0.72618849  0.74629013  0.62814190  1
  O  O282  1  0.25489669  0.25431806  0.39227870  1
  O  O283  1  0.25711715  0.25105815  0.88916603  1
  O  O284  1  0.23774561  0.74009943  0.36422586  1
  O  O285  1  0.22837027  0.75496792  0.88277925  1
  O  O286  1  0.75141227  0.22810565  0.38242112  1
  O  O287  1  0.73908398  0.23827107  0.88970301  1
  O  O288  1  0.73426912  0.65084333  0.28146671  1
  O  O289  1  0.72551213  0.76249451  0.88960092  1
  O  O290  1  0.01087973  0.11793841  0.00607141  1
  O  O291  1  0.00881247  0.11514565  0.46697292  1
  O  O292  1  0.01358752  0.60116970  0.00251766  1
  O  O293  1  0.02253361  0.60702779  0.48941827  1
  O  O294  1  0.50539529  0.11941028  0.00664202  1
  O  O295  1  0.51192136  0.12541626  0.51034714  1
  O  O296  1  0.50845914  0.61768303  0.00306733  1
  O  O297  1  0.54679436  0.62976586  0.42847132  1
  O  O298  1  0.49975807  0.35923096  0.48505041  1
  O  O299  1  0.49169579  0.38925154  1.00955047  1
  O  O300  1  0.45050762  0.87589664  0.50254221  1
  O  O301  1  0.49010209  0.88376228  0.99280103  1
  O  O302  1  1.02099610  0.38831820  0.48247812  1
  O  O303  1  0.99698696  0.37058410  0.99607473  1
  O  O304  1  0.99999059  0.88973892  0.47355767  1
  O  O305  1  0.98479788  0.88204045  1.00163103  1
  O  O306  1  0.48693454  0.48198039  0.37626427  1
  O  O307  1  0.48755208  0.50719000  0.89054187  1
  O  O308  1  0.49242626  0.99750819  0.36285618  1
  O  O309  1  0.49943806  0.99625506  0.88813828  1
  O  O310  1  0.99697987  0.48804211  0.38097532  1
  O  O311  1  1.00891140  0.48887150  0.88990602  1
  O  O312  1  0.98880145  0.99113390  0.35727232  1
  O  O313  1  1.00033788  0.98340855  0.89502488  1
  O  O314  1  0.00322174  0.00960005  0.12115668  1
  O  O315  1  0.03975223  0.00338985  0.61152066  1
  O  O316  1  0.02040659  0.48091198  0.11691959  1
  O  O317  1  0.01901424  0.49186905  0.60817308  1
  O  O318  1  0.50652426  0.00696807  0.11595268  1
  O  O319  1  0.50615751  0.00921915  0.62478645  1
  O  O320  1  0.49299390  0.50732233  0.11558939  1
  O  O321  1  0.46109408  0.49372827  0.60195859  1
  O  O322  1  0.24889757  0.37075660  0.23700786  1
  O  O323  1  0.24746922  0.39362606  0.75418199  1
  O  O324  1  0.24684639  0.88700739  0.23778873  1
  O  O325  1  0.22989745  0.88895491  0.74354935  1
  O  O326  1  0.72609119  0.37432363  0.26926115  1
  O  O327  1  0.72369097  0.38648963  0.75772154  1
  O  O328  1  0.72983524  0.88512659  0.25869473  1
  O  O329  1  0.73688268  0.86912706  0.73536829  1
  O  O330  1  0.26231746  0.11445706  0.23122081  1
  O  O331  1  0.26495058  0.11427494  0.74593240  1
  O  O332  1  0.26644365  0.62569372  0.25556187  1
  O  O333  1  0.26159782  0.61718161  0.76178756  1
  O  O334  1  0.73812999  0.11100306  0.26549702  1
  O  O335  1  0.74468930  0.12982382  0.76520482  1
  O  O336  1  0.74736737  0.53681533  0.17886307  1
  O  O337  1  0.79022192  0.66335217  0.75943237  1
  O  O338  1  0.38439171  0.11872601  0.35465305  1
  O  O339  1  0.38389574  0.12639985  0.86084225  1
  O  O340  1  0.36953567  0.61901896  0.36565367  1
  O  O341  1  0.37373215  0.62040101  0.87701697  1
  O  O342  1  0.86725375  0.11846651  0.36773715  1
  O  O343  1  0.85108165  0.11713544  0.88843884  1
  O  O344  1  0.88042905  0.60983017  0.37733277  1
  O  O345  1  0.91057867  0.61810197  0.85586514  1
  O  O346  1  0.13334753  0.37491830  0.13401063  1
  O  O347  1  0.13745990  0.39052970  0.62999278  1
  O  O348  1  0.12840153  0.88037703  0.12199364  1
  O  O349  1  0.10225119  0.96230727  0.61004516  1
  O  O350  1  0.62265892  0.37824754  0.14318995  1
  O  O351  1  0.61705577  0.39643580  0.62138974  1
  O  O352  1  0.62109788  0.88738491  0.11795973  1
  O  O353  1  0.63016361  0.88843975  0.62990340  1
  O  O354  1  0.14162912  0.25892811  0.26391342  1
  O  O355  1  0.13668267  0.27117607  0.74273893  1
  O  O356  1  0.12253934  0.74339275  0.25205002  1
  O  O357  1  0.12038534  0.73942633  0.76924235  1
  O  O358  1  0.61259398  0.24866223  0.24631251  1
  O  O359  1  0.62654227  0.25492655  0.76754519  1
  O  O360  1  0.61044552  0.76696215  0.25306868  1
  O  O361  1  0.61984083  0.76474755  0.76394425  1
  O  O362  1  0.38303550  0.24085792  0.24167789  1
  O  O363  1  0.36594861  0.23585910  0.73753739  1
  O  O364  1  0.38109289  0.74808545  0.24217950  1
  O  O365  1  0.36843968  0.74005538  0.77270666  1
  O  O366  1  0.86887268  0.25250525  0.24097271  1
  O  O367  1  0.86463080  0.25093479  0.74774947  1
  O  O368  1  0.85354872  0.73941393  0.22415219  1
  O  O369  1  0.83731379  0.72318835  0.75648984  1
  O  O370  1  0.36655645  0.50537554  0.47856249  1
  O  O371  1  0.38265957  0.49568714  0.99816543  1
  O  O372  1  0.36856083  1.01709338  0.46688079  1
  O  O373  1  0.38328569  0.99136612  1.00259449  1
  O  O374  1  0.90132994  0.50034970  0.49641378  1
  O  O375  1  0.89880361  0.47622362  1.01168260  1
  O  O376  1  0.88019197  0.97588319  0.51806847  1
  O  O377  1  0.87772036  0.98822600  1.01500387  1
  O  O378  1  0.11608135  0.00712762  0.01359290  1
  O  O379  1  0.13253589  -0.00152862  0.46318895  1
  O  O380  1  0.11914227  0.49619623  0.00884096  1
  O  O381  1  0.13349274  0.50935902  0.50696452  1
  O  O382  1  0.61645689  0.00880099  0.00666798  1
  O  O383  1  0.63205156  0.01221758  0.51832859  1
  O  O384  1  0.61161444  0.51316938  0.00307750  1
  O  O385  1  0.64798418  0.51011967  0.49065704  1
  O  O386  1  0.36917428  0.37726111  0.11599831  1
  O  O387  1  0.39095808  0.35565404  0.64070267  1
  O  O388  1  0.36700021  0.86951217  0.11645109  1
  O  O389  1  0.34069993  0.95560554  0.60040805  1
  O  O390  1  0.88964076  0.35388527  0.12232221  1
  O  O391  1  0.86248865  0.35984790  0.63442001  1
  O  O392  1  0.87357347  0.86189557  0.11316942  1
  O  O393  1  0.85106691  0.85304528  0.62500294  1
  O  O394  1  0.13350971  0.13955831  0.36733342  1
  O  O395  1  0.12892410  0.11624141  0.89515126  1
  O  O396  1  0.13215415  0.62658581  0.36615326  1
  O  O397  1  0.12028603  0.63460818  0.88918884  1
  O  O398  1  0.62060826  0.11959959  0.39039982  1
  O  O399  1  0.62685741  0.13511971  0.88699227  1
  O  O400  1  0.68708810  0.61961045  0.33034622  1
  O  O401  1  0.61640635  0.64065548  0.86917069  1
