# generated using pymatgen
data_V73Zn73O256
_symmetry_space_group_name_H-M   'P 1'
_cell_length_a   16.82133618
_cell_length_b   16.81730479
_cell_length_c   16.82763779
_cell_angle_alpha   90.07293870
_cell_angle_beta   89.91851912
_cell_angle_gamma   90.01763470
_symmetry_Int_Tables_number   1
_chemical_formula_structural   V73Zn73O256
_chemical_formula_sum   'V73 Zn73 O256'
_cell_volume   4760.35377734
_cell_formula_units_Z   1
loop_
 _symmetry_equiv_pos_site_id
 _symmetry_equiv_pos_as_xyz
  1  'x, y, z'
loop_
 _atom_site_type_symbol
 _atom_site_label
 _atom_site_symmetry_multiplicity
 _atom_site_fract_x
 _atom_site_fract_y
 _atom_site_fract_z
 _atom_site_occupancy
  V  V0  1  0.25559690  0.87611030  0.11824613  1
  V  V1  1  0.50538304  0.62013118  0.11640807  1
  V  V2  1  0.22986556  0.24447491  0.49124566  1
  V  V3  1  0.74373750  0.37058265  0.62727924  1
  V  V4  1  0.14049902  0.62560056  -0.00541975  1
  V  V5  1  0.74431141  0.49963930  0.75202820  1
  V  V6  1  0.86846615  0.23557951  0.12350317  1
  V  V7  1  -0.00622158  0.74885818  0.73871668  1
  V  V8  1  0.24844106  0.74767632  0.49532953  1
  V  V9  1  0.63321072  0.72269874  0.88323053  1
  V  V10  1  -0.00383060  -0.00796869  0.49288590  1
  V  V11  1  0.12143589  0.00300714  0.62429406  1
  V  V12  1  0.24573084  0.37094819  0.64074989  1
  V  V13  1  0.59862133  0.25553436  0.37199258  1
  V  V14  1  0.12680837  0.50788521  0.13745210  1
  V  V15  1  0.61695159  0.49380874  0.62574604  1
  V  V16  1  0.38778513  0.13604179  0.23291594  1
  V  V17  1  0.37269405  0.75414288  0.11653510  1
  V  V18  1  -0.00759421  0.87177457  0.89019520  1
  V  V19  1  0.75296967  0.85548030  0.62649440  1
  V  V20  1  0.73437631  0.87399409  0.13399288  1
  V  V21  1  0.49676517  0.87532535  0.37348977  1
  V  V22  1  0.01243727  0.27438476  0.24797089  1
  V  V23  1  0.61767241  0.12661253  0.00902911  1
  V  V24  1  0.50067258  -0.00341163  0.01318677  1
  V  V25  1  0.63714376  0.74802888  0.37671413  1
  V  V26  1  0.37466326  0.51361693  0.87344031  1
  V  V27  1  0.87948717  0.13029824  0.75251112  1
  V  V28  1  0.25118462  0.60990987  0.37402755  1
  V  V29  1  0.12736456  -0.00510477  0.11980463  1
  V  V30  1  0.37589930  -0.00532670  0.87760591  1
  V  V31  1  0.24146101  0.24746433  0.00885191  1
  V  V32  1  0.00507314  0.50018048  -0.00922948  1
  V  V33  1  0.25908322  0.00516436  0.26629041  1
  V  V34  1  0.74829348  -0.00517979  0.75007269  1
  V  V35  1  -0.00143560  0.12393494  0.62410315  1
  V  V36  1  0.50286230  0.75102196  0.25231716  1
  V  V37  1  0.87422170  0.62729196  0.73992422  1
  V  V38  1  0.24704579  0.38323076  0.13284950  1
  V  V39  1  0.11523161  0.50976080  0.62752314  1
  V  V40  1  0.63425995  0.62542463  0.49623672  1
  V  V41  1  0.87858727  0.25707422  0.62462550  1
  V  V42  1  0.13367980  0.74899671  0.87799122  1
  V  V43  1  0.75550867  0.24919696  0.48435022  1
  V  V44  1  0.76380673  0.37892559  0.11642208  1
  V  V45  1  0.49272610  0.62283524  0.62717850  1
  V  V46  1  0.75010481  0.13058665  0.88210953  1
  V  V47  1  0.77053678  0.74501495  0.00536022  1
  V  V48  1  0.62486743  0.25288189  0.87110188  1
  V  V49  1  0.37810881  0.37199394  0.00017568  1
  V  V50  1  0.86136034  0.00821724  0.37438398  1
  V  V51  1  0.25266620  0.52493397  0.75295551  1
  V  V52  1  0.49633322  0.12200779  0.62993575  1
  V  V53  1  0.37422315  0.61421006  0.25732697  1
  V  V54  1  0.75812579  0.51300512  0.26670831  1
  V  V55  1  0.25549302  0.00682192  0.74869676  1
  V  V56  1  0.87345512  0.85441148  0.49990484  1
  V  V57  1  0.11597130  0.76038092  0.36437193  1
  V  V58  1  0.49504594  0.00049979  0.49896352  1
  V  V59  1  0.37574202  0.38043144  0.49082210  1
  V  V60  1  0.02261717  0.12723580  0.12504476  1
  V  V61  1  0.49144945  0.24457369  0.74946085  1
  V  V62  1  0.87950756  -0.00396366  0.88453556  1
  V  V63  1  -0.05652783  0.45603366  0.44971700  1
  V  V64  1  0.62956859  -0.00457729  0.62691411  1
  V  V65  1  0.24785171  0.12438630  0.87841478  1
  V  V66  1  0.87069325  0.50019078  0.87942223  1
  V  V67  1  0.51827619  0.87879661  0.86842602  1
  V  V68  1  0.24899825  0.87523896  0.62582667  1
  V  V69  1  0.37409458  0.74645223  0.63326016  1
  V  V70  1  0.62726814  0.50013710  0.11669333  1
  V  V71  1  0.50006867  0.37626475  0.86765954  1
  V  V72  1  0.11925298  0.25387434  0.86424818  1
  Zn  Zn73  1  0.11882123  0.87647613  0.75334362  1
  Zn  Zn74  1  0.63437253  0.37912062  0.26057844  1
  Zn  Zn75  1  0.63505442  0.11757882  0.48819451  1
  Zn  Zn76  1  0.50923233  0.75359623  0.74818138  1
  Zn  Zn77  1  0.10466539  0.61587567  0.49403747  1
  Zn  Zn78  1  0.37036214  0.87652987  0.49606332  1
  Zn  Zn79  1  -0.00117584  0.36715590  0.86280595  1
  Zn  Zn80  1  0.37114018  0.24561461  0.62302846  1
  Zn  Zn81  1  0.49353983  0.49673293  0.46858859  1
  Zn  Zn82  1  0.19573267  0.18930884  0.19910789  1
  Zn  Zn83  1  0.18500432  0.18559708  0.68635626  1
  Zn  Zn84  1  0.18697109  0.68682289  0.18917757  1
  Zn  Zn85  1  0.18030437  0.69000460  0.68685371  1
  Zn  Zn86  1  0.68009984  0.20093309  0.18913866  1
  Zn  Zn87  1  0.68390350  0.18251267  0.69015383  1
  Zn  Zn88  1  0.69355401  0.69063459  0.18421535  1
  Zn  Zn89  1  0.67851853  0.67944836  0.69550489  1
  Zn  Zn90  1  0.30462664  0.30982575  0.31476301  1
  Zn  Zn91  1  0.31299860  0.30908038  0.81750583  1
  Zn  Zn92  1  0.31090941  0.81373633  0.30640636  1
  Zn  Zn93  1  0.31665887  0.81861798  0.81303221  1
  Zn  Zn94  1  0.83584195  0.33280506  0.30602751  1
  Zn  Zn95  1  0.81181003  0.31661027  0.81339772  1
  Zn  Zn96  1  0.81905792  0.81511661  0.31295437  1
  Zn  Zn97  1  0.80598203  0.80828465  0.81708769  1
  Zn  Zn98  1  0.18857789  0.43215354  0.44913990  1
  Zn  Zn99  1  0.19228930  0.43397265  0.93105326  1
  Zn  Zn100  1  0.18115175  0.94001557  0.43525320  1
  Zn  Zn101  1  0.18783769  0.93401204  0.93928688  1
  Zn  Zn102  1  0.68958922  0.43435106  0.44227065  1
  Zn  Zn103  1  0.68664276  0.43993565  0.93826786  1
  Zn  Zn104  1  0.68819324  0.92859790  0.44082492  1
  Zn  Zn105  1  0.69268283  0.93853661  0.95153473  1
  Zn  Zn106  1  0.31688384  0.06370040  0.06353970  1
  Zn  Zn107  1  0.31123694  0.06657739  0.55484965  1
  Zn  Zn108  1  0.31679761  0.56287496  0.06053263  1
  Zn  Zn109  1  0.30874572  0.55956344  0.56279201  1
  Zn  Zn110  1  0.80975116  0.05682467  0.06634610  1
  Zn  Zn111  1  0.81519428  0.06419773  0.55741572  1
  Zn  Zn112  1  0.81893153  0.57006860  0.07261768  1
  Zn  Zn113  1  0.80915009  0.56570197  0.56909532  1
  Zn  Zn114  1  0.43617587  0.43811080  0.18787639  1
  Zn  Zn115  1  0.43051910  0.43483547  0.68800579  1
  Zn  Zn116  1  0.43627468  0.93893142  0.19520663  1
  Zn  Zn117  1  0.43592893  0.93517661  0.68879126  1
  Zn  Zn118  1  0.93588564  0.45690599  0.18278387  1
  Zn  Zn119  1  0.93782854  0.43527896  0.69369321  1
  Zn  Zn120  1  0.92409846  0.95283805  0.17881704  1
  Zn  Zn121  1  0.93160434  0.93324845  0.69012950  1
  Zn  Zn122  1  0.08167936  0.07566490  0.29424930  1
  Zn  Zn123  1  0.06489425  0.06389505  0.81449275  1
  Zn  Zn124  1  0.05115068  0.57414886  0.32681693  1
  Zn  Zn125  1  0.06236584  0.56492822  0.80961412  1
  Zn  Zn126  1  0.51769586  0.09391540  0.33469652  1
  Zn  Zn127  1  0.56474130  0.06333478  0.81441687  1
  Zn  Zn128  1  0.56893315  0.56095476  0.30686306  1
  Zn  Zn129  1  0.55542050  0.56206435  0.80928616  1
  Zn  Zn130  1  0.40231743  0.20032401  0.42053487  1
  Zn  Zn131  1  0.43312044  0.18466066  0.94021880  1
  Zn  Zn132  1  0.43859617  0.68557038  0.44376469  1
  Zn  Zn133  1  0.44324504  0.69477198  0.93689182  1
  Zn  Zn134  1  0.98280776  0.16623481  0.40317034  1
  Zn  Zn135  1  0.94053584  0.18397308  0.94988193  1
  Zn  Zn136  1  0.94358837  0.67195954  0.45013003  1
  Zn  Zn137  1  0.94116337  0.67813151  0.93281861  1
  Zn  Zn138  1  0.05924100  0.32087138  0.06206413  1
  Zn  Zn139  1  0.05887995  0.32367367  0.57239883  1
  Zn  Zn140  1  0.07242013  0.81706834  0.06157842  1
  Zn  Zn141  1  0.06648718  0.81235591  0.55622493  1
  Zn  Zn142  1  0.57156932  0.32132721  0.05554402  1
  Zn  Zn143  1  0.56174669  0.30874921  0.55592197  1
  Zn  Zn144  1  0.56437096  0.81361104  0.05836469  1
  Zn  Zn145  1  0.56541858  0.81208642  0.56186309  1
  O  O146  1  0.12814035  0.11671830  0.12306048  1
  O  O147  1  0.11322401  0.11289805  0.63123562  1
  O  O148  1  0.13389176  0.61759116  0.10848740  1
  O  O149  1  0.12509649  0.61706679  0.61851117  1
  O  O150  1  0.63225610  0.13667691  0.10722410  1
  O  O151  1  0.61689764  0.11249967  0.62195183  1
  O  O152  1  0.61182333  0.61928454  0.13007062  1
  O  O153  1  0.61580533  0.61835776  0.61471902  1
  O  O154  1  0.36407185  0.37395852  0.39094135  1
  O  O155  1  0.38106664  0.38008801  0.88217174  1
  O  O156  1  0.39211406  0.86937677  0.37800359  1
  O  O157  1  0.38241300  0.88788030  0.87750113  1
  O  O158  1  0.89217068  0.40217117  0.38058971  1
  O  O159  1  0.87890497  0.39256752  0.86721799  1
  O  O160  1  0.86834848  0.87788315  0.39665617  1
  O  O161  1  0.88059411  0.88511374  0.87309057  1
  O  O162  1  0.25302529  -0.00484158  0.36711136  1
  O  O163  1  0.25374184  0.00195583  0.87012245  1
  O  O164  1  0.24439490  0.51154157  0.37810668  1
  O  O165  1  0.25974755  0.50065900  0.86119344  1
  O  O166  1  0.75966945  0.00014767  0.38952520  1
  O  O167  1  0.76063389  0.00353075  0.86996696  1
  O  O168  1  0.73993623  0.50325437  0.36645320  1
  O  O169  1  0.75937751  0.49480610  0.86731726  1
  O  O170  1  0.24007105  0.49555542  0.12078332  1
  O  O171  1  0.25046977  0.49506135  0.64203988  1
  O  O172  1  0.24814975  0.99034612  0.12471421  1
  O  O173  1  0.24396338  0.99662128  0.62785200  1
  O  O174  1  0.74055837  0.49603304  0.12792425  1
  O  O175  1  0.73892441  0.49139877  0.63112958  1
  O  O176  1  0.74089430  0.98171999  0.11274328  1
  O  O177  1  0.74535916  0.99992292  0.63270570  1
  O  O178  1  0.00479110  0.37471109  0.22556398  1
  O  O179  1  -0.00071066  0.36197247  0.74941076  1
  O  O180  1  -0.01632137  0.83657983  0.20376536  1
  O  O181  1  -0.00457521  0.86167534  0.75828390  1
  O  O182  1  0.49353146  0.33739941  0.21096182  1
  O  O183  1  0.49542556  0.36386890  0.75957863  1
  O  O184  1  0.50056465  0.86875535  0.26441823  1
  O  O185  1  0.50016530  0.87470627  0.76330271  1
  O  O186  1  0.49137309  0.12190478  0.22730581  1
  O  O187  1  0.50402669  0.12977880  0.74170841  1
  O  O188  1  0.48911034  0.63285636  0.24496654  1
  O  O189  1  0.50273228  0.63141097  0.73260578  1
  O  O190  1  1.00275788  0.13790463  0.23114392  1
  O  O191  1  0.98870998  0.11797634  0.74167467  1
  O  O192  1  0.97630606  0.63820066  0.25525415  1
  O  O193  1  0.98969911  0.63906228  0.75495096  1
  O  O194  1  0.36292278  0.26394845  -0.00633320  1
  O  O195  1  0.35835374  0.26070100  0.50446577  1
  O  O196  1  0.37607611  0.74419076  0.01737322  1
  O  O197  1  0.36399447  0.75328930  0.50944435  1
  O  O198  1  0.87988203  0.25073853  0.02209550  1
  O  O199  1  0.86134409  0.24823715  0.52218864  1
  O  O200  1  0.87095462  0.74882414  -0.00804229  1
  O  O201  1  0.88186078  0.75277532  0.49675263  1
  O  O202  1  0.13131747  0.25730650  0.51435633  1
  O  O203  1  0.13897198  0.25540922  0.99469175  1
  O  O204  1  0.13533940  0.73909154  0.49756641  1
  O  O205  1  0.11939907  0.73926428  0.99036344  1
  O  O206  1  0.63816947  0.25032828  0.48682216  1
  O  O207  1  0.61259885  0.23743160  0.98623337  1
  O  O208  1  0.61965124  0.73555835  0.49160361  1
  O  O209  1  0.62080312  0.74702854  0.98421808  1
  O  O210  1  0.49548569  0.28688422  0.15192869  1
  O  O211  1  0.50435365  0.23918617  0.63291470  1
  O  O212  1  0.49350557  0.74220229  0.13134940  1
  O  O213  1  0.49168498  0.74449382  0.62314360  1
  O  O214  1  0.99925593  0.24148978  0.12469736  1
  O  O215  1  0.98528848  0.24192027  0.62065943  1
  O  O216  1  0.99270494  0.78481168  0.14908353  1
  O  O217  1  1.00597831  0.75363248  0.63995135  1
  O  O218  1  -0.01199823  0.26484313  0.34787790  1
  O  O219  1  0.01644071  0.24366133  0.88764329  1
  O  O220  1  0.01887314  0.73859165  0.38928780  1
  O  O221  1  0.00304177  0.76163480  0.87058614  1
  O  O222  1  0.50007857  0.26070200  0.38160661  1
  O  O223  1  0.50166043  0.25355508  0.86793267  1
  O  O224  1  0.50299497  0.75724465  0.37155603  1
  O  O225  1  0.51027331  0.76493577  0.87663920  1
  O  O226  1  0.24786797  0.14351099  0.50555188  1
  O  O227  1  0.25533069  0.14098295  0.99609744  1
  O  O228  1  0.25818342  0.63268881  0.48515701  1
  O  O229  1  0.24064670  0.62421536  0.99411849  1
  O  O230  1  0.74922682  0.14337313  0.50514174  1
  O  O231  1  0.73752244  0.11670843  0.98757289  1
  O  O232  1  0.73376704  0.62415512  0.50559311  1
  O  O233  1  0.75464643  0.64219636  1.01503803  1
  O  O234  1  0.25773494  0.36591558  0.00170190  1
  O  O235  1  0.25559732  0.36783291  0.51459767  1
  O  O236  1  0.25369708  0.87528360  0.01708262  1
  O  O237  1  0.24750068  0.86871737  0.51006411  1
  O  O238  1  0.74253810  0.37694494  0.01674886  1
  O  O239  1  0.74816318  0.36169345  0.51651571  1
  O  O240  1  0.74204426  0.85565748  0.00932459  1
  O  O241  1  0.76042901  0.86797448  0.51557885  1
  O  O242  1  0.11241621  0.52294261  0.23418607  1
  O  O243  1  0.14215026  0.51212088  0.74372440  1
  O  O244  1  0.14907319  1.00460116  0.23742930  1
  O  O245  1  0.13373645  0.99658798  0.74221625  1
  O  O246  1  0.63628361  0.49752514  0.23839044  1
  O  O247  1  0.63400539  0.50988890  0.73947683  1
  O  O248  1  0.67805135  1.03631653  0.24807744  1
  O  O249  1  0.63776208  1.00412968  0.74214636  1
  O  O250  1  0.36699442  0.01397726  0.24301646  1
  O  O251  1  0.36348306  -0.00394932  0.75810339  1
  O  O252  1  0.37680314  0.51484048  0.24741777  1
  O  O253  1  0.36420695  0.50074935  0.76051174  1
  O  O254  1  0.88094253  -0.01221274  0.27666971  1
  O  O255  1  0.86616614  0.00971464  0.75683012  1
  O  O256  1  0.86314917  0.50340726  0.26298274  1
  O  O257  1  0.86723082  0.50904504  0.75339305  1
  O  O258  1  0.10392218  0.39893661  0.37116142  1
  O  O259  1  0.12891561  0.35781073  0.87204179  1
  O  O260  1  0.12247965  0.86060282  0.37893669  1
  O  O261  1  0.11082013  0.86831532  0.87680508  1
  O  O262  1  0.62842059  0.36058721  0.37896668  1
  O  O263  1  0.61062792  0.36720907  0.88600425  1
  O  O264  1  0.61481027  0.85578702  0.38536794  1
  O  O265  1  0.61831460  0.88547817  0.87220627  1
  O  O266  1  0.36807162  0.13641642  0.13141604  1
  O  O267  1  0.39156140  0.12405849  0.62003516  1
  O  O268  1  0.38032422  0.63204701  0.13568746  1
  O  O269  1  0.38130407  0.63404990  0.61748963  1
  O  O270  1  0.86392418  0.13296259  0.13268868  1
  O  O271  1  0.87808539  0.13209998  0.63494176  1
  O  O272  1  0.90090852  0.56395093  0.14762518  1
  O  O273  1  0.88026525  0.62288431  0.63951199  1
  O  O274  1  0.24302109  0.26527380  0.11454293  1
  O  O275  1  0.24729549  0.26108815  0.62642937  1
  O  O276  1  0.26327235  0.76072328  0.13544678  1
  O  O277  1  0.25295658  0.75624373  0.61939296  1
  O  O278  1  0.76066879  0.26513893  0.13444330  1
  O  O279  1  0.75300323  0.25691390  0.63139407  1
  O  O280  1  0.75448413  0.75970395  0.11606412  1
  O  O281  1  0.74367702  0.75718191  0.63561065  1
  O  O282  1  0.23350154  0.26141636  0.39088911  1
  O  O283  1  0.24211923  0.24256045  0.88239966  1
  O  O284  1  0.24505092  0.75198620  0.38346983  1
  O  O285  1  0.23208745  0.76466001  0.87026520  1
  O  O286  1  0.77206784  0.26142071  0.38717768  1
  O  O287  1  0.74067231  0.24209896  0.86938561  1
  O  O288  1  0.73587579  0.75090672  0.37166162  1
  O  O289  1  0.74063522  0.74609059  0.88833606  1
  O  O290  1  -0.00776145  0.11727339  0.02812286  1
  O  O291  1  -0.01088084  0.10482955  0.51832731  1
  O  O292  1  0.01411573  0.61080873  -0.00728361  1
  O  O293  1  -0.00684611  0.57237094  0.43486380  1
  O  O294  1  0.50849392  0.11498306  -0.00274163  1
  O  O295  1  0.50660194  0.10563232  0.50868827  1
  O  O296  1  0.49309659  0.62507934  0.01816985  1
  O  O297  1  0.50445859  0.61526751  0.50944755  1
  O  O298  1  0.48070230  0.37531142  0.50867356  1
  O  O299  1  0.48462829  0.36982593  0.99121922  1
  O  O300  1  0.49952741  0.88233878  0.49471412  1
  O  O301  1  0.50711034  0.89003112  0.98618890  1
  O  O302  1  0.99395777  0.39184754  0.50919059  1
  O  O303  1  1.01084353  0.39345686  0.98534152  1
  O  O304  1  0.98363100  0.88145269  0.51542819  1
  O  O305  1  0.99863377  0.87215733  0.98949710  1
  O  O306  1  0.50497412  0.48579527  0.35768149  1
  O  O307  1  0.48520973  0.48907255  0.86460435  1
  O  O308  1  0.51405845  0.98493276  0.38918945  1
  O  O309  1  0.49428582  0.99303655  0.87456428  1
  O  O310  1  1.04646346  0.45071310  0.36481994  1
  O  O311  1  0.99312280  0.49831678  0.87513440  1
  O  O312  1  0.99413679  0.98852180  0.39412778  1
  O  O313  1  0.98950318  0.98708807  0.86714201  1
  O  O314  1  0.02060979  0.00775178  0.14166713  1
  O  O315  1  0.00517494  0.00253297  0.62807418  1
  O  O316  1  0.02523757  0.49418045  0.10153356  1
  O  O317  1  0.01615830  0.50110092  0.63906894  1
  O  O318  1  0.49918594  -0.01100531  0.11159388  1
  O  O319  1  0.50833363  -0.00127561  0.62007171  1
  O  O320  1  0.50987488  0.51096401  0.13277065  1
  O  O321  1  0.50658066  0.50538432  0.63281393  1
  O  O322  1  0.25912370  0.37629737  0.23111168  1
  O  O323  1  0.25327931  0.37530625  0.74283242  1
  O  O324  1  0.26477591  0.89309813  0.23742789  1
  O  O325  1  0.24673796  0.88436983  0.73970688  1
  O  O326  1  0.75441353  0.39110782  0.23830686  1
  O  O327  1  0.74965410  0.38776042  0.74144531  1
  O  O328  1  0.75647874  0.86398145  0.23359315  1
  O  O329  1  0.76025778  0.88417368  0.73904963  1
  O  O330  1  0.26158772  0.11395621  0.25204473  1
  O  O331  1  0.24732737  0.11360692  0.75743964  1
  O  O332  1  0.26371257  0.63048560  0.26188368  1
  O  O333  1  0.25652484  0.62433390  0.74853929  1
  O  O334  1  0.72458425  0.09360762  0.25031460  1
  O  O335  1  0.75682115  0.11590835  0.76182396  1
  O  O336  1  0.74835957  0.61314901  0.24532748  1
  O  O337  1  0.76227822  0.61383484  0.74484039  1
  O  O338  1  0.40398311  0.11185984  0.35670428  1
  O  O339  1  0.36041686  0.11272832  0.87912977  1
  O  O340  1  0.36822097  0.62839259  0.36587884  1
  O  O341  1  0.38429919  0.61286570  0.88065110  1
  O  O342  1  0.88365902  0.10677595  0.38753111  1
  O  O343  1  0.87188843  0.11885569  0.87167933  1
  O  O344  1  0.91457537  0.67025861  0.29376362  1
  O  O345  1  0.87784634  0.60857993  0.86114193  1
  O  O346  1  0.13921232  0.39245914  0.11875249  1
  O  O347  1  0.13983389  0.39117776  0.62833668  1
  O  O348  1  0.14107504  0.88142312  0.12970767  1
  O  O349  1  0.13390189  0.88134038  0.62851954  1
  O  O350  1  0.62971095  0.38789169  0.12986494  1
  O  O351  1  0.62806210  0.38445835  0.62118293  1
  O  O352  1  0.63147925  0.86724694  0.13168788  1
  O  O353  1  0.64063017  0.88212259  0.62111133  1
  O  O354  1  0.11483911  0.25663842  0.24069286  1
  O  O355  1  0.12269442  0.24079543  0.76458820  1
  O  O356  1  0.12467102  0.74537225  0.26343745  1
  O  O357  1  0.11108897  0.74970502  0.76231330  1
  O  O358  1  0.62507026  0.25830010  0.26670498  1
  O  O359  1  0.61366347  0.24553627  0.76356929  1
  O  O360  1  0.61315803  0.73678062  0.26554802  1
  O  O361  1  0.62592212  0.74334379  0.77470649  1
  O  O362  1  0.36822321  0.23482971  0.25971694  1
  O  O363  1  0.38668539  0.24764121  0.74868446  1
  O  O364  1  0.38696245  0.74335995  0.24353962  1
  O  O365  1  0.37598891  0.75488961  0.73684321  1
  O  O366  1  0.89100131  0.26535353  0.22636837  1
  O  O367  1  0.86708603  0.23797788  0.74307774  1
  O  O368  1  0.87866850  0.72811145  0.25221494  1
  O  O369  1  0.88106223  0.73871212  0.75671507  1
  O  O370  1  0.37343348  0.48679757  0.50321366  1
  O  O371  1  0.36410183  0.48831737  0.98194815  1
  O  O372  1  0.39058549  0.99612538  0.50532572  1
  O  O373  1  0.39139095  1.00646947  0.99213260  1
  O  O374  1  0.87097419  0.49722020  0.50719990  1
  O  O375  1  0.88882532  0.50868732  0.98530202  1
  O  O376  1  0.88230511  0.98800985  0.49976159  1
  O  O377  1  0.87542942  1.00814495  0.98213670  1
  O  O378  1  0.12814917  -0.00538649  0.01853792  1
  O  O379  1  0.10862628  -0.01233119  0.51396646  1
  O  O380  1  0.12336794  0.51392658  -0.01639109  1
  O  O381  1  0.13317488  0.50395190  0.52071318  1
  O  O382  1  0.61301060  0.01458350  -0.00557322  1
  O  O383  1  0.61986058  -0.00284653  0.51124249  1
  O  O384  1  0.62503509  0.50106542  0.01623401  1
  O  O385  1  0.62074501  0.50815044  0.50934839  1
  O  O386  1  0.36259166  0.39104147  0.10661664  1
  O  O387  1  0.35981318  0.37180801  0.62148827  1
  O  O388  1  0.37386485  0.86198743  0.12710028  1
  O  O389  1  0.36382150  0.86815627  0.62278522  1
  O  O390  1  0.86478955  0.38527838  0.11633585  1
  O  O391  1  0.86442017  0.36177381  0.63437233  1
  O  O392  1  0.84859486  0.90977410  0.10824705  1
  O  O393  1  0.86182537  0.87189083  0.61830640  1
  O  O394  1  0.08658372  0.12102151  0.39347001  1
  O  O395  1  0.13871971  0.12856807  0.87764677  1
  O  O396  1  0.14321169  0.63391152  0.37646648  1
  O  O397  1  0.12457090  0.64092552  0.87941124  1
  O  O398  1  0.61278291  0.14493557  0.37613014  1
  O  O399  1  0.63236050  0.13288931  0.88038940  1
  O  O400  1  0.61875631  0.63271470  0.38816192  1
  O  O401  1  0.61904650  0.62283629  0.88330567  1
