# generated using pymatgen
data_V73Zn73O256
_symmetry_space_group_name_H-M   'P 1'
_cell_length_a   16.85215341
_cell_length_b   16.83979431
_cell_length_c   16.85580571
_cell_angle_alpha   89.97394157
_cell_angle_beta   90.06736203
_cell_angle_gamma   90.04143317
_symmetry_Int_Tables_number   1
_chemical_formula_structural   V73Zn73O256
_chemical_formula_sum   'V73 Zn73 O256'
_cell_volume   4783.45006584
_cell_formula_units_Z   1
loop_
 _symmetry_equiv_pos_site_id
 _symmetry_equiv_pos_as_xyz
  1  'x, y, z'
loop_
 _atom_site_type_symbol
 _atom_site_label
 _atom_site_symmetry_multiplicity
 _atom_site_fract_x
 _atom_site_fract_y
 _atom_site_fract_z
 _atom_site_occupancy
  V  V0  1  0.25264235  0.48589815  0.74754745  1
  V  V1  1  0.23978342  0.62653459  0.38150709  1
  V  V2  1  0.62499248  0.86439270  0.25902062  1
  V  V3  1  0.00076130  0.37294442  0.38272304  1
  V  V4  1  0.61888553  0.38615734  0.25104140  1
  V  V5  1  0.88247585  0.12801672  0.74711571  1
  V  V6  1  0.37530904  0.49968000  0.38948293  1
  V  V7  1  0.74724586  -0.00455701  0.25082093  1
  V  V8  1  0.75383566  0.36525821  0.61101539  1
  V  V9  1  0.37600307  0.24584333  0.11975756  1
  V  V10  1  0.13014941  0.50462213  0.61683894  1
  V  V11  1  0.62197493  0.14839529  0.49645356  1
  V  V12  1  0.39600119  0.00331801  0.89870306  1
  V  V13  1  0.50381234  0.24237794  0.25076138  1
  V  V14  1  0.74427872  0.14332402  0.38180856  1
  V  V15  1  0.13887884  0.87451176  0.24729463  1
  V  V16  1  0.49521178  0.73953393  0.26062397  1
  V  V17  1  0.25626872  0.37617736  0.11729088  1
  V  V18  1  0.88592892  0.62978970  0.75362364  1
  V  V19  1  0.13147016  0.13588778  0.49957150  1
  V  V20  1  0.12882118  0.50344753  0.12323852  1
  V  V21  1  -0.00857815  0.11837506  0.12286751  1
  V  V22  1  0.87222071  0.00495960  0.37786684  1
  V  V23  1  0.49485202  0.14055637  0.62885401  1
  V  V24  1  0.12175115  0.12107813  -0.00781707  1
  V  V25  1  0.49300269  0.36845047  0.87138472  1
  V  V26  1  0.24585525  0.24462118  -0.01081014  1
  V  V27  1  0.13935641  0.62134128  -0.01466341  1
  V  V28  1  0.50207007  -0.00745830  0.49776881  1
  V  V29  1  0.25788657  0.76445909  -0.00511775  1
  V  V30  1  0.50999786  0.48998463  0.00446828  1
  V  V31  1  0.10252220  0.36178247  0.75163085  1
  V  V32  1  0.36664277  0.63012229  0.74068619  1
  V  V33  1  0.87286431  0.87732742  0.50026682  1
  V  V34  1  0.50181424  0.61796022  0.12945685  1
  V  V35  1  0.73849158  0.37351884  0.11505077  1
  V  V36  1  0.12244171  0.77038719  0.86740842  1
  V  V37  1  0.36624189  0.11911908  0.24961724  1
  V  V38  1  0.74356284  0.50055403  0.74342204  1
  V  V39  1  0.26084504  0.26544515  0.49383521  1
  V  V40  1  0.88008090  0.48566852  0.87619587  1
  V  V41  1  0.56541320  0.55806627  0.55272021  1
  V  V42  1  0.37241983  0.26213254  0.63197838  1
  V  V43  1  0.61662167  0.87279882  0.75895134  1
  V  V44  1  0.74427245  0.87646891  0.62439255  1
  V  V45  1  0.74104815  0.63077813  0.88050657  1
  V  V46  1  0.75357341  0.12574684  0.87987352  1
  V  V47  1  0.00235318  0.48281909  -0.00552344  1
  V  V48  1  0.00258408  0.01178609  0.50823254  1
  V  V49  1  0.37553185  0.76893918  0.61374373  1
  V  V50  1  0.74342598  0.73978514  0.48517018  1
  V  V51  1  0.62347548  0.37165070  0.74691052  1
  V  V52  1  0.36827762  -0.00414220  0.37843245  1
  V  V53  1  0.23554136  0.75511198  0.50208862  1
  V  V54  1  0.37495496  0.51460983  0.88045721  1
  V  V55  1  0.27449955  0.00894229  0.76967305  1
  V  V56  1  0.48988993  0.37460727  0.37838947  1
  V  V57  1  0.88887183  0.24622022  0.61562810  1
  V  V58  1  0.76826137  0.50044023  0.25800340  1
  V  V59  1  0.50220225  0.74351033  0.75513768  1
  V  V60  1  0.62513481  0.63350661  0.00440868  1
  V  V61  1  0.60925627  0.00271212  0.12859793  1
  V  V62  1  0.87953722  0.75173795  0.63379399  1
  V  V63  1  0.63481113  0.25200549  0.88146185  1
  V  V64  1  0.37374641  0.75677592  0.12425889  1
  V  V65  1  0.74771781  0.00339270  0.75522004  1
  V  V66  1  -0.01035568  0.62646351  0.12150171  1
  V  V67  1  -0.00075268  0.86992287  0.36967774  1
  V  V68  1  0.26200231  0.50999843  0.24377114  1
  V  V69  1  0.87114972  0.14010484  0.25374074  1
  V  V70  1  0.14521457  -0.00074365  0.12805298  1
  V  V71  1  0.86789688  0.25782500  0.10301523  1
  V  V72  1  0.14178633  -0.01283374  0.62654833  1
  Zn  Zn73  1  0.01049162  0.25098569  0.25532252  1
  Zn  Zn74  1  0.12870484  0.36892627  0.25205708  1
  Zn  Zn75  1  0.23885489  0.12988244  0.36795023  1
  Zn  Zn76  1  0.49580378  0.86240552  0.38505676  1
  Zn  Zn77  1  0.62152552  0.00545087  0.62241263  1
  Zn  Zn78  1  0.61719410  0.11674544  0.00677686  1
  Zn  Zn79  1  -0.02109337  0.49551719  0.49041752  1
  Zn  Zn80  1  0.02328941  0.63593760  0.60032148  1
  Zn  Zn81  1  0.00238781  0.74292248  0.23956925  1
  Zn  Zn82  1  0.18782103  0.18404603  0.18109517  1
  Zn  Zn83  1  0.18968849  0.18353325  0.67960202  1
  Zn  Zn84  1  0.18562467  0.68754974  0.18530360  1
  Zn  Zn85  1  0.19253047  0.69393960  0.68965119  1
  Zn  Zn86  1  0.68931258  0.19038064  0.19168149  1
  Zn  Zn87  1  0.68377971  0.19104764  0.68751500  1
  Zn  Zn88  1  0.69289757  0.67270662  0.18583848  1
  Zn  Zn89  1  0.68521610  0.68343637  0.67737313  1
  Zn  Zn90  1  0.30776293  0.31313026  0.30728467  1
  Zn  Zn91  1  0.31354142  0.30371322  0.80960699  1
  Zn  Zn92  1  0.31617569  0.80736135  0.31592642  1
  Zn  Zn93  1  0.30938185  0.82911090  0.80881293  1
  Zn  Zn94  1  0.79702098  0.34474256  0.33917677  1
  Zn  Zn95  1  0.81748285  0.30971529  0.80294048  1
  Zn  Zn96  1  0.78741462  0.77603418  0.27904951  1
  Zn  Zn97  1  0.80117019  0.80947699  0.81315073  1
  Zn  Zn98  1  0.18195944  0.43521001  0.43157904  1
  Zn  Zn99  1  0.18802465  0.42808110  0.92939732  1
  Zn  Zn100  1  0.18445913  0.93810904  0.43468261  1
  Zn  Zn101  1  0.19853873  0.94352259  0.93915888  1
  Zn  Zn102  1  0.68321692  0.46363472  0.43885305  1
  Zn  Zn103  1  0.68957803  0.44030565  0.93014391  1
  Zn  Zn104  1  0.68354717  0.93824259  0.43534704  1
  Zn  Zn105  1  0.57587898  0.93150414  0.94501659  1
  Zn  Zn106  1  0.31667603  0.06500642  0.05894231  1
  Zn  Zn107  1  0.31383168  0.06764262  0.56126739  1
  Zn  Zn108  1  0.32138074  0.57019133  0.05827027  1
  Zn  Zn109  1  0.31203566  0.56431555  0.56337731  1
  Zn  Zn110  1  0.79223957  0.07338241  0.07310619  1
  Zn  Zn111  1  0.80743457  0.06863276  0.56497844  1
  Zn  Zn112  1  0.80943634  0.54857157  0.06278042  1
  Zn  Zn113  1  0.83911470  0.57214619  0.54918354  1
  Zn  Zn114  1  0.43614626  0.43131205  0.18553190  1
  Zn  Zn115  1  0.44054059  0.44408360  0.68228020  1
  Zn  Zn116  1  0.43957208  0.93328876  0.19142870  1
  Zn  Zn117  1  0.43642896  0.94456603  0.68603507  1
  Zn  Zn118  1  0.93934460  0.43391009  0.18849558  1
  Zn  Zn119  1  0.93449938  0.44369095  0.66292922  1
  Zn  Zn120  1  0.93291151  0.94062782  0.19167791  1
  Zn  Zn121  1  0.93225329  0.94750317  0.68672152  1
  Zn  Zn122  1  0.06004510  0.06294552  0.31139466  1
  Zn  Zn123  1  0.07238190  0.06344987  0.80167267  1
  Zn  Zn124  1  0.05926469  0.55387139  0.30865643  1
  Zn  Zn125  1  0.06664290  0.55701446  0.80945372  1
  Zn  Zn126  1  0.56085160  0.06373905  0.31497350  1
  Zn  Zn127  1  0.56104047  0.06626414  0.81034288  1
  Zn  Zn128  1  0.57013343  0.56418801  0.33177751  1
  Zn  Zn129  1  0.55848986  0.56278826  0.81273534  1
  Zn  Zn130  1  0.43385357  0.18796669  0.43614485  1
  Zn  Zn131  1  0.44781713  0.18075377  0.94139977  1
  Zn  Zn132  1  0.42747572  0.67651074  0.44145916  1
  Zn  Zn133  1  0.43812537  0.81684386  0.94086481  1
  Zn  Zn134  1  0.94021184  0.20092210  0.43565073  1
  Zn  Zn135  1  0.94483241  0.19545643  0.93204821  1
  Zn  Zn136  1  0.93285401  0.69102899  0.43569100  1
  Zn  Zn137  1  0.95045528  0.67678957  0.92985273  1
  Zn  Zn138  1  0.07060424  0.30051971  0.08332913  1
  Zn  Zn139  1  0.07363500  0.31989388  0.57089844  1
  Zn  Zn140  1  0.07341171  0.80837924  0.06267353  1
  Zn  Zn141  1  0.06002727  0.81515502  0.55766220  1
  Zn  Zn142  1  0.55937704  0.29228649  0.05632873  1
  Zn  Zn143  1  0.56809688  0.34504777  0.55254589  1
  Zn  Zn144  1  0.57449079  0.80777607  0.08156787  1
  Zn  Zn145  1  0.56295058  0.79988178  0.56689521  1
  O  O146  1  0.11273533  0.10878219  0.12424851  1
  O  O147  1  0.12778793  0.10868116  0.60318631  1
  O  O148  1  0.12730966  0.61564996  0.10870047  1
  O  O149  1  0.13142283  0.61543614  0.63501502  1
  O  O150  1  0.64294307  0.10584096  0.12982674  1
  O  O151  1  0.61863209  0.12942678  0.60868832  1
  O  O152  1  0.61832483  0.62005486  0.11550431  1
  O  O153  1  0.63142428  0.61205849  0.60959612  1
  O  O154  1  0.37961283  0.38856511  0.35946144  1
  O  O155  1  0.39117977  0.37731354  0.86401667  1
  O  O156  1  0.38006617  0.89151733  0.36606448  1
  O  O157  1  0.38071332  0.89263068  0.87527800  1
  O  O158  1  0.89846742  0.36466572  0.37966950  1
  O  O159  1  0.87289671  0.38741714  0.86639180  1
  O  O160  1  0.88253416  0.88754499  0.38603556  1
  O  O161  1  0.87624938  0.83050626  0.90812540  1
  O  O162  1  0.26535694  0.00314805  0.38201916  1
  O  O163  1  0.27046920  0.00795766  0.87724223  1
  O  O164  1  0.25761345  0.50244325  0.36048367  1
  O  O165  1  0.26930562  0.49225705  0.86631313  1
  O  O166  1  0.75876103  0.00855966  0.37468709  1
  O  O167  1  0.73711468  0.01836055  0.86148992  1
  O  O168  1  0.76099928  0.46124895  0.35790290  1
  O  O169  1  0.76357602  0.50617457  0.86822487  1
  O  O170  1  0.25263997  0.49954719  0.12672820  1
  O  O171  1  0.24960983  0.50585822  0.64189437  1
  O  O172  1  0.24362688  1.00461657  0.13224229  1
  O  O173  1  0.24365595  0.99551127  0.61464074  1
  O  O174  1  0.75393760  0.48063976  0.14099596  1
  O  O175  1  0.75357418  0.48600131  0.64355757  1
  O  O176  1  0.75702872  0.99513841  0.14833217  1
  O  O177  1  0.74557487  0.99211394  0.63087157  1
  O  O178  1  0.00581730  0.37324213  0.25677590  1
  O  O179  1  0.00442878  0.38534262  0.73902656  1
  O  O180  1  -0.01312498  0.86626916  0.26146161  1
  O  O181  1  -0.01765005  0.90297288  0.79027618  1
  O  O182  1  0.50475442  0.36543303  0.24983189  1
  O  O183  1  0.51546735  0.38856331  0.76069765  1
  O  O184  1  0.50676319  0.85833987  0.25434952  1
  O  O185  1  0.51346816  0.87271735  0.74166658  1
  O  O186  1  0.48992692  0.13749397  0.25507491  1
  O  O187  1  0.51374932  0.12750606  0.72652823  1
  O  O188  1  0.51790704  0.63295611  0.24868663  1
  O  O189  1  0.49215283  0.63696914  0.75279730  1
  O  O190  1  0.98726589  0.12796077  0.24309413  1
  O  O191  1  0.98052324  0.11267170  0.75759869  1
  O  O192  1  1.01425817  0.62129843  0.22576748  1
  O  O193  1  0.98566570  0.62368658  0.75490376  1
  O  O194  1  0.36280204  0.23591513  0.01357614  1
  O  O195  1  0.36554115  0.24919096  0.50474302  1
  O  O196  1  0.36759979  0.75057446  0.00979543  1
  O  O197  1  0.37155538  0.75195432  0.51019520  1
  O  O198  1  0.86932897  0.24850533  0.00415102  1
  O  O199  1  0.86939942  0.23767549  0.51617924  1
  O  O200  1  0.87477877  0.77563903  -0.03876340  1
  O  O201  1  0.86626593  0.76568273  0.50859397  1
  O  O202  1  0.13753070  0.23989329  0.51030660  1
  O  O203  1  0.13538670  0.23557181  1.00609287  1
  O  O204  1  0.13526341  0.74234359  0.50894545  1
  O  O205  1  0.13988686  0.73954839  0.99579595  1
  O  O206  1  0.61848528  0.24665925  0.49814821  1
  O  O207  1  0.64596764  0.26832002  0.97906567  1
  O  O208  1  0.64393387  0.75432813  0.50291119  1
  O  O209  1  0.62733078  0.73257956  1.00624905  1
  O  O210  1  0.48139023  0.26101053  0.14047539  1
  O  O211  1  0.49181778  0.24573790  0.61520517  1
  O  O212  1  0.49469617  0.73800037  0.13765943  1
  O  O213  1  0.48323758  0.75418724  0.63520900  1
  O  O214  1  0.97543744  0.24089598  0.12440852  1
  O  O215  1  0.98810081  0.25487880  0.61844288  1
  O  O216  1  1.00437315  0.73129497  0.11589082  1
  O  O217  1  0.98432450  0.74975246  0.61817995  1
  O  O218  1  0.01111106  0.25839838  0.37163844  1
  O  O219  1  -0.00404590  0.25517410  0.85556114  1
  O  O220  1  0.00351670  0.77052723  0.38658477  1
  O  O221  1  0.02338115  0.74951602  0.88110502  1
  O  O222  1  0.48325727  0.26193835  0.35684781  1
  O  O223  1  0.51173419  0.26504210  0.87461928  1
  O  O224  1  0.48776778  0.74357876  0.36453427  1
  O  O225  1  0.49165536  0.75861416  0.85265145  1
  O  O226  1  0.24030198  0.13012271  0.49318486  1
  O  O227  1  0.23604236  0.13409500  1.00926898  1
  O  O228  1  0.25305052  0.63084508  0.48739494  1
  O  O229  1  0.24258943  0.62862312  0.99675476  1
  O  O230  1  0.73598743  0.12437651  0.49058342  1
  O  O231  1  0.74290001  0.12201118  0.98313076  1
  O  O232  1  0.76628778  0.64123346  0.49911615  1
  O  O233  1  0.73811677  0.61144604  0.99195323  1
  O  O234  1  0.24552505  0.35775856  0.00508282  1
  O  O235  1  0.24789767  0.36411838  0.49723955  1
  O  O236  1  0.24626289  0.86173568  0.01191822  1
  O  O237  1  0.24427287  0.85368699  0.48242117  1
  O  O238  1  0.74364469  0.38651069  0.01636628  1
  O  O239  1  0.74643350  0.38154715  0.51409793  1
  O  O240  1  0.78621273  0.91419832  0.00363700  1
  O  O241  1  0.75771735  0.87758088  0.50692474  1
  O  O242  1  0.13977868  0.50058471  0.23357506  1
  O  O243  1  0.14448825  0.49653646  0.75121706  1
  O  O244  1  0.11597797  0.99096470  0.23600417  1
  O  O245  1  0.12146512  0.99932770  0.72659135  1
  O  O246  1  0.61486676  0.48614832  0.24566241  1
  O  O247  1  0.63691897  0.49220788  0.75937917  1
  O  O248  1  0.62932534  0.99630464  0.24913890  1
  O  O249  1  0.62845632  0.98868001  0.74305143  1
  O  O250  1  0.38325844  0.01275068  0.25877871  1
  O  O251  1  0.37834923  0.00990239  0.75842728  1
  O  O252  1  0.36358969  0.50163276  0.24341077  1
  O  O253  1  0.37174660  0.51026003  0.75412121  1
  O  O254  1  0.86768886  0.00868007  0.26242974  1
  O  O255  1  0.85754346  0.01336128  0.74451232  1
  O  O256  1  0.86802948  0.50453388  0.24607672  1
  O  O257  1  0.86638351  0.51307701  0.75798210  1
  O  O258  1  0.11761957  0.37452495  0.36506070  1
  O  O259  1  0.12596734  0.37604358  0.85127034  1
  O  O260  1  0.10768062  0.89069028  0.35667979  1
  O  O261  1  0.12714012  0.87014961  0.88785358  1
  O  O262  1  0.60377770  0.37752085  0.35868326  1
  O  O263  1  0.62132330  0.36970924  0.86576130  1
  O  O264  1  0.61278753  0.88124612  0.36407563  1
  O  O265  1  0.63015906  0.87424664  0.85754887  1
  O  O266  1  0.37144061  0.13401727  0.13775260  1
  O  O267  1  0.39112792  0.13329960  0.61613105  1
  O  O268  1  0.39526286  0.63183934  0.12150589  1
  O  O269  1  0.37367685  0.63121742  0.63773122  1
  O  O270  1  0.86931173  0.13791934  0.13196282  1
  O  O271  1  0.87012253  0.13340805  0.63631363  1
  O  O272  1  0.89050049  0.61620936  0.11158408  1
  O  O273  1  0.86522704  0.63663347  0.64768668  1
  O  O274  1  0.26050123  0.25729544  0.11964041  1
  O  O275  1  0.26470138  0.24403830  0.60980241  1
  O  O276  1  0.26830121  0.73707541  0.11852284  1
  O  O277  1  0.26201322  0.74674936  0.61097716  1
  O  O278  1  0.75768256  0.25855981  0.12647543  1
  O  O279  1  0.74891192  0.26100135  0.62309691  1
  O  O280  1  0.76884975  0.75105228  0.17234449  1
  O  O281  1  0.76026693  0.76131845  0.62230479  1
  O  O282  1  0.25624914  0.24798837  0.38697569  1
  O  O283  1  0.25658789  0.24805818  0.89054571  1
  O  O284  1  0.25596960  0.73362864  0.38169879  1
  O  O285  1  0.25006114  0.75990139  0.88988941  1
  O  O286  1  0.75080433  0.24165709  0.37407933  1
  O  O287  1  0.74222845  0.23928775  0.86203675  1
  O  O288  1  0.75650179  0.75733063  0.38680495  1
  O  O289  1  0.74334051  0.73002733  0.87354385  1
  O  O290  1  0.01231915  0.13330983  0.00836367  1
  O  O291  1  0.00715701  0.11545162  0.49441647  1
  O  O292  1  0.01489015  0.61323826  0.00491581  1
  O  O293  1  -0.04120801  0.61122407  0.50789442  1
  O  O294  1  0.52735893  0.18204580  0.01841439  1
  O  O295  1  0.51212012  0.12473939  0.49951847  1
  O  O296  1  0.51588825  0.61003215  0.00873205  1
  O  O297  1  0.50074808  0.62138540  0.50472321  1
  O  O298  1  0.48555461  0.36036036  0.47598050  1
  O  O299  1  0.50499571  0.38194964  0.98680832  1
  O  O300  1  0.50634488  0.88881563  0.50260854  1
  O  O301  1  0.51254691  0.86444281  1.00834284  1
  O  O302  1  1.01729505  0.37803041  0.48880602  1
  O  O303  1  1.01455400  0.38475542  1.00829110  1
  O  O304  1  0.99177616  0.88848044  0.49041469  1
  O  O305  1  0.97162225  0.87751778  1.03858122  1
  O  O306  1  0.48223705  0.48946546  0.36852481  1
  O  O307  1  0.49268913  0.49204319  0.88255551  1
  O  O308  1  0.49231802  1.00292072  0.38654613  1
  O  O309  1  0.50498037  1.00094169  0.88455890  1
  O  O310  1  1.00273055  0.48660582  0.37709355  1
  O  O311  1  0.98826683  0.50365273  0.87879056  1
  O  O312  1  0.98739331  0.99710018  0.38252097  1
  O  O313  1  0.99531400  0.95458090  0.84447686  1
  O  O314  1  -0.01899241  0.01707421  0.12219732  1
  O  O315  1  0.00083191  -0.00120661  0.61019808  1
  O  O316  1  0.01076856  0.50469081  0.11418005  1
  O  O317  1  0.02451204  0.51254851  0.62713571  1
  O  O318  1  0.50989860  0.00696978  0.13650750  1
  O  O319  1  0.49755227  0.01357390  0.60859003  1
  O  O320  1  0.49275556  0.49881412  0.11016932  1
  O  O321  1  0.50445231  0.51066490  0.62061492  1
  O  O322  1  0.24946507  0.38732011  0.23476599  1
  O  O323  1  0.25704556  0.38571418  0.74834261  1
  O  O324  1  0.23712234  0.87325532  0.25812160  1
  O  O325  1  0.25036986  0.90903351  0.75176832  1
  O  O326  1  0.73022399  0.37517367  0.24240434  1
  O  O327  1  0.73992539  0.38551769  0.75457933  1
  O  O328  1  0.73413497  0.88458950  0.26889143  1
  O  O329  1  0.74286548  0.88112001  0.74479007  1
  O  O330  1  0.26061257  0.12737843  0.25100524  1
  O  O331  1  0.23939983  0.10297553  0.74311989  1
  O  O332  1  0.24854839  0.61493612  0.25529359  1
  O  O333  1  0.26562488  0.62080507  0.75521822  1
  O  O334  1  0.75251158  0.11899024  0.26681486  1
  O  O335  1  0.74887298  0.11943984  0.75364174  1
  O  O336  1  0.73160644  0.59461001  0.26356766  1
  O  O337  1  0.74525437  0.61446121  0.76097195  1
  O  O338  1  0.37279226  0.11765098  0.36237690  1
  O  O339  1  0.39042435  0.10693039  0.88264087  1
  O  O340  1  0.36349760  0.60568588  0.37297595  1
  O  O341  1  0.38074476  0.61305420  0.86361223  1
  O  O342  1  0.86426705  0.12291141  0.37456851  1
  O  O343  1  0.85902989  0.13029408  0.86547769  1
  O  O344  1  0.88990504  0.65454054  0.33302566  1
  O  O345  1  0.86379143  0.62323644  0.86705572  1
  O  O346  1  0.14052200  0.39431364  0.11354259  1
  O  O347  1  0.12946138  0.39527790  0.64100695  1
  O  O348  1  0.12091461  0.88963248  0.13306224  1
  O  O349  1  0.12234365  0.88818810  0.61510624  1
  O  O350  1  0.63064830  0.36094015  0.13206009  1
  O  O351  1  0.63697476  0.36842111  0.64184233  1
  O  O352  1  0.62451438  0.88954230  0.14868938  1
  O  O353  1  0.63573778  0.87452710  0.63026019  1
  O  O354  1  0.11237559  0.26417941  0.19900819  1
  O  O355  1  0.12466753  0.26416885  0.72946327  1
  O  O356  1  0.11992786  0.76931660  0.23726934  1
  O  O357  1  0.14266030  0.75683625  0.76882165  1
  O  O358  1  0.60724035  0.25117447  0.24720055  1
  O  O359  1  0.62693805  0.26589442  0.75969231  1
  O  O360  1  0.61510439  0.75911942  0.25038327  1
  O  O361  1  0.61252858  0.75798971  0.73961677  1
  O  O362  1  0.37622497  0.23920389  0.24090799  1
  O  O363  1  0.36846137  0.24404503  0.73150372  1
  O  O364  1  0.38723335  0.74619977  0.24168341  1
  O  O365  1  0.37708930  0.74524764  0.74159648  1
  O  O366  1  0.86721898  0.24003279  0.25410127  1
  O  O367  1  0.87368120  0.23359051  0.74127239  1
  O  O368  1  0.89165731  0.71687177  0.28161631  1
  O  O369  1  0.87059869  0.74212595  0.74844272  1
  O  O370  1  0.36493462  0.49327196  0.48821329  1
  O  O371  1  0.38697550  0.50534815  0.98621108  1
  O  O372  1  0.38839141  1.01015997  0.48673017  1
  O  O373  1  0.38285535  0.99688152  0.99969191  1
  O  O374  1  0.88770171  0.47388183  0.55760172  1
  O  O375  1  0.88447450  0.49895986  0.98401767  1
  O  O376  1  0.88155207  0.99949621  0.49825180  1
  O  O377  1  0.83373088  0.97046003  0.99764903  1
  O  O378  1  0.13256763  0.00958041  0.01601003  1
  O  O379  1  0.11255207  0.00123348  0.50251225  1
  O  O380  1  0.12628284  0.50810654  -0.00347245  1
  O  O381  1  0.14151581  0.50099510  0.51673800  1
  O  O382  1  0.62846599  -0.00199534  0.02351813  1
  O  O383  1  0.61229570  0.00922477  0.49838493  1
  O  O384  1  0.61246205  0.49925620  -0.00416663  1
  O  O385  1  0.60421349  0.45844047  0.51967480  1
  O  O386  1  0.36588456  0.36153240  0.12377131  1
  O  O387  1  0.38378476  0.36251411  0.62742076  1
  O  O388  1  0.37950125  0.85654559  0.13115647  1
  O  O389  1  0.37295845  0.86810578  0.62526994  1
  O  O390  1  0.86386034  0.36157146  0.12687280  1
  O  O391  1  0.85985178  0.35273016  0.64092200  1
  O  O392  1  0.91810520  0.86674568  0.09221504  1
  O  O393  1  0.86816275  0.87316498  0.62144824  1
  O  O394  1  0.12407544  0.11590073  0.39058408  1
  O  O395  1  0.11747236  0.10951682  0.89323726  1
  O  O396  1  0.14078416  0.61532784  0.37115452  1
  O  O397  1  0.12685347  0.62818076  0.88411260  1
  O  O398  1  0.63467706  0.12756982  0.38306397  1
  O  O399  1  0.62871529  0.14110946  0.87461049  1
  O  O400  1  0.62645361  0.56546063  0.42939581  1
  O  O401  1  0.63280689  0.61593425  0.88727855  1
