# generated using pymatgen
data_V73Zn73O256
_symmetry_space_group_name_H-M   'P 1'
_cell_length_a   16.87365155
_cell_length_b   16.86359264
_cell_length_c   16.88378783
_cell_angle_alpha   90.02324868
_cell_angle_beta   89.92427038
_cell_angle_gamma   89.84001359
_symmetry_Int_Tables_number   1
_chemical_formula_structural   V73Zn73O256
_chemical_formula_sum   'V73 Zn73 O256'
_cell_volume   4804.26501727
_cell_formula_units_Z   1
loop_
 _symmetry_equiv_pos_site_id
 _symmetry_equiv_pos_as_xyz
  1  'x, y, z'
loop_
 _atom_site_type_symbol
 _atom_site_label
 _atom_site_symmetry_multiplicity
 _atom_site_fract_x
 _atom_site_fract_y
 _atom_site_fract_z
 _atom_site_occupancy
  V  V0  1  0.50935129  0.11766203  0.62831097  1
  V  V1  1  0.61303920  0.34539936  0.25151199  1
  V  V2  1  0.63076089  0.24444369  0.87668857  1
  V  V3  1  0.61742861  0.00190895  0.12411551  1
  V  V4  1  0.87629653  0.12058841  0.74477957  1
  V  V5  1  0.79523215  0.68559810  0.93590374  1
  V  V6  1  0.24746023  0.37628595  0.63941479  1
  V  V7  1  -0.00370990  0.63304075  0.11368850  1
  V  V8  1  -0.01901050  0.73997408  0.25220419  1
  V  V9  1  0.36818669  0.37268490  0.00814688  1
  V  V10  1  0.62267830  0.74374175  0.37848984  1
  V  V11  1  0.11661727  0.90541983  0.75000068  1
  V  V12  1  0.87192798  0.75153700  0.62414658  1
  V  V13  1  0.74533336  0.73956891  0.50075145  1
  V  V14  1  0.75353278  0.62008932  0.35718995  1
  V  V15  1  0.37000368  0.63407127  0.74884380  1
  V  V16  1  -0.00190095  0.47141021  0.00018977  1
  V  V17  1  0.61899739  0.49580863  0.13532511  1
  V  V18  1  0.36825746  0.87730156  0.50237822  1
  V  V19  1  0.61970449  0.62133674  -0.00665724  1
  V  V20  1  0.37373243  0.24091725  0.62726953  1
  V  V21  1  0.61371161  0.87359854  0.75589415  1
  V  V22  1  0.76203934  0.37612668  0.12615884  1
  V  V23  1  -0.01265281  0.26442210  0.74098028  1
  V  V24  1  0.89818528  0.50294943  0.36838045  1
  V  V25  1  0.13372436  0.11852466  0.48093343  1
  V  V26  1  0.48800311  0.74233758  0.24236075  1
  V  V27  1  0.38799179  0.37204176  0.49125395  1
  V  V28  1  0.38771649  0.23543609  0.11952375  1
  V  V29  1  0.75588169  -0.00028633  0.26605912  1
  V  V30  1  0.36284732  0.48045816  0.85629618  1
  V  V31  1  0.50360985  0.24716691  0.75100087  1
  V  V32  1  0.89478023  0.16439140  0.25307278  1
  V  V33  1  0.23273402  0.23975099  0.01369128  1
  V  V34  1  0.38121563  0.74673198  0.62656971  1
  V  V35  1  0.23281033  0.62702441  0.87255056  1
  V  V36  1  0.74265726  0.88526521  0.62177407  1
  V  V37  1  0.24996791  0.50680855  0.25783400  1
  V  V38  1  -0.00913941  0.87845455  0.89665079  1
  V  V39  1  0.23651874  0.74559456  0.49388741  1
  V  V40  1  0.85932746  0.62605541  0.75145610  1
  V  V41  1  0.48962543  0.00334167  -0.01255107  1
  V  V42  1  0.07651413  0.32041724  0.29879028  1
  V  V43  1  0.24529987  0.01027674  0.25019101  1
  V  V44  1  0.01252425  0.75109915  0.74747457  1
  V  V45  1  0.63234325  0.51035354  0.63087324  1
  V  V46  1  0.74643019  0.00489191  0.75651228  1
  V  V47  1  0.63899016  0.38367761  0.74807779  1
  V  V48  1  0.50267560  0.00161120  0.50276252  1
  V  V49  1  0.26412155  0.86074795  0.12379054  1
  V  V50  1  0.39006646  0.12890171  0.24738202  1
  V  V51  1  0.38472517  0.51407064  0.37557964  1
  V  V52  1  0.00822805  0.12399513  0.62607894  1
  V  V53  1  0.86790347  0.48276377  0.88296077  1
  V  V54  1  0.12912745  0.85886738  0.25244344  1
  V  V55  1  0.12146530  0.00598771  0.12345609  1
  V  V56  1  0.36769442  0.00665698  0.37402033  1
  V  V57  1  0.50463646  0.52324034  0.51277611  1
  V  V58  1  0.11906807  0.60552551  0.49671999  1
  V  V59  1  -0.01548307  0.02296045  0.02071380  1
  V  V60  1  -0.00606736  0.00305767  0.49244733  1
  V  V61  1  0.38288998  0.85601337  -0.02274696  1
  V  V62  1  0.62135803  0.87720082  0.24623698  1
  V  V63  1  0.23949163  0.88538001  0.63356153  1
  V  V64  1  0.77229510  0.25025262  -0.00105784  1
  V  V65  1  0.49671346  0.87693906  0.37429764  1
  V  V66  1  -0.00304391  0.87212202  0.37370227  1
  V  V67  1  0.89354946  0.38165193  0.50145672  1
  V  V68  1  0.11640100  0.25899901  0.86104787  1
  V  V69  1  0.13422604  0.49899558  0.11242226  1
  V  V70  1  0.75715142  0.86546674  0.11256744  1
  V  V71  1  0.62433459  0.12892111  0.00558948  1
  V  V72  1  0.24914635  0.24939861  0.48146346  1
  Zn  Zn73  1  0.00469870  0.62048888  0.62246470  1
  Zn  Zn74  1  0.48725246  0.61702154  0.12821262  1
  Zn  Zn75  1  0.61151248  0.75061327  0.87228137  1
  Zn  Zn76  1  0.86605687  0.00519136  0.89651824  1
  Zn  Zn77  1  0.50104682  0.37624838  0.87376507  1
  Zn  Zn78  1  0.63656094  0.12473093  0.49716439  1
  Zn  Zn79  1  0.86980548  0.87796884  0.49078231  1
  Zn  Zn80  1  0.49582568  0.49225842  -0.00008115  1
  Zn  Zn81  1  0.78814582  0.21868697  0.48189843  1
  Zn  Zn82  1  0.17425994  0.19638505  0.18975649  1
  Zn  Zn83  1  0.15950843  0.22539348  0.65757275  1
  Zn  Zn84  1  0.19544174  0.67261366  0.18163395  1
  Zn  Zn85  1  0.19499223  0.67873621  0.67783166  1
  Zn  Zn86  1  0.72225387  0.18542552  0.18550444  1
  Zn  Zn87  1  0.68924999  0.18991851  0.67982540  1
  Zn  Zn88  1  0.67926953  0.68725074  0.18179236  1
  Zn  Zn89  1  0.68079150  0.69100474  0.68625020  1
  Zn  Zn90  1  0.28787235  0.31662495  0.28209321  1
  Zn  Zn91  1  0.31178263  0.28152571  0.82284363  1
  Zn  Zn92  1  0.30934008  0.81045279  0.31204811  1
  Zn  Zn93  1  0.29943267  0.81036574  0.81024401  1
  Zn  Zn94  1  0.82138424  0.33558480  0.30926369  1
  Zn  Zn95  1  0.81346904  0.30371775  0.81238204  1
  Zn  Zn96  1  0.80758434  0.81385169  0.30947426  1
  Zn  Zn97  1  0.81206373  0.82041203  0.81205650  1
  Zn  Zn98  1  0.19558840  0.43392832  0.43599687  1
  Zn  Zn99  1  0.18603313  0.42812178  0.93469981  1
  Zn  Zn100  1  0.18249220  0.93439284  0.43534755  1
  Zn  Zn101  1  0.17977795  0.90100464  0.94596849  1
  Zn  Zn102  1  0.67086692  0.44124427  0.42945111  1
  Zn  Zn103  1  0.68708528  0.43475965  0.94257097  1
  Zn  Zn104  1  0.68189253  0.93315932  0.44032563  1
  Zn  Zn105  1  0.68182185  0.93747901  0.93665297  1
  Zn  Zn106  1  0.30394954  0.05901310  0.05902333  1
  Zn  Zn107  1  0.30921137  0.06592932  0.56426725  1
  Zn  Zn108  1  0.30892196  0.57404483  0.05003795  1
  Zn  Zn109  1  0.30423204  0.55861914  0.56327805  1
  Zn  Zn110  1  0.80319696  0.06786355  0.08304205  1
  Zn  Zn111  1  0.81630413  0.06617201  0.56041947  1
  Zn  Zn112  1  0.81381158  0.55479377  0.07171142  1
  Zn  Zn113  1  0.81437939  0.55727010  0.55709462  1
  Zn  Zn114  1  0.42871086  0.42708606  0.19609503  1
  Zn  Zn115  1  0.43981584  0.42749051  0.68193173  1
  Zn  Zn116  1  0.44030631  0.94330036  0.18732765  1
  Zn  Zn117  1  0.43051212  0.93734305  0.68794548  1
  Zn  Zn118  1  0.94234576  0.44809911  0.19169732  1
  Zn  Zn119  1  0.90330035  0.44331339  0.68471453  1
  Zn  Zn120  1  0.93228710  0.93213472  0.19238772  1
  Zn  Zn121  1  0.93628165  0.94186638  0.67784959  1
  Zn  Zn122  1  0.05579319  0.06315140  0.30540211  1
  Zn  Zn123  1  0.16118945  0.08154399  0.92317296  1
  Zn  Zn124  1  0.07716540  0.57254740  0.31037750  1
  Zn  Zn125  1  0.04667320  0.55126491  0.80879645  1
  Zn  Zn126  1  0.59950835  0.13135455  0.27858536  1
  Zn  Zn127  1  0.56597350  0.06304580  0.81498264  1
  Zn  Zn128  1  0.55629670  0.55649389  0.31665591  1
  Zn  Zn129  1  0.54527250  0.57588030  0.81415649  1
  Zn  Zn130  1  0.43888940  0.18450296  0.43717921  1
  Zn  Zn131  1  0.43634641  0.18020883  0.93281901  1
  Zn  Zn132  1  0.43685057  0.69319818  0.44277968  1
  Zn  Zn133  1  0.44125965  0.67346943  0.92778534  1
  Zn  Zn134  1  0.95051517  0.20135619  0.42050702  1
  Zn  Zn135  1  0.96076697  0.17890351  0.92213320  1
  Zn  Zn136  1  0.94055550  0.68288308  0.43602827  1
  Zn  Zn137  1  0.96001205  0.69262471  0.93047975  1
  Zn  Zn138  1  0.05997567  0.31179056  0.09785967  1
  Zn  Zn139  1  0.06423494  0.31329947  0.55007992  1
  Zn  Zn140  1  0.07113591  0.80575268  0.06878674  1
  Zn  Zn141  1  0.05991176  0.81591507  0.56666980  1
  Zn  Zn142  1  0.55964733  0.31487458  0.06439211  1
  Zn  Zn143  1  0.56728616  0.31635155  0.56981218  1
  Zn  Zn144  1  0.56033550  0.81143101  0.05864180  1
  Zn  Zn145  1  0.56295201  0.81324820  0.56489447  1
  O  O146  1  0.12951119  0.10378268  0.13397310  1
  O  O147  1  0.11421909  0.12806882  0.61034436  1
  O  O148  1  0.10953480  0.60932324  0.13607034  1
  O  O149  1  0.12096180  0.63228889  0.60757860  1
  O  O150  1  0.63118127  0.11435184  0.11615468  1
  O  O151  1  0.61128608  0.11855965  0.62194095  1
  O  O152  1  0.62178542  0.60897525  0.11759643  1
  O  O153  1  0.61518959  0.60965889  0.64407072  1
  O  O154  1  0.37555523  0.38543104  0.39162821  1
  O  O155  1  0.37097217  0.37308016  0.88099330  1
  O  O156  1  0.37851318  0.88088644  0.38462814  1
  O  O157  1  0.36983055  0.86863074  0.87866799  1
  O  O158  1  0.88873714  0.39431228  0.38286319  1
  O  O159  1  0.87451502  0.38504399  0.86602752  1
  O  O160  1  0.89038704  0.86891234  0.37399274  1
  O  O161  1  0.88971535  0.88892660  0.86367033  1
  O  O162  1  0.26109517  -0.00934189  0.36638030  1
  O  O163  1  0.21857954  -0.00873732  0.89531761  1
  O  O164  1  0.27041258  0.49794444  0.36514026  1
  O  O165  1  0.26060735  0.49650115  0.87766843  1
  O  O166  1  0.75105231  -0.02337192  0.36409977  1
  O  O167  1  0.75348105  -0.00218980  0.86032364  1
  O  O168  1  0.73384132  0.52263249  0.37476667  1
  O  O169  1  0.76881397  0.49921394  0.88993550  1
  O  O170  1  0.23534128  0.50932485  0.11334175  1
  O  O171  1  0.25558913  0.47598637  0.62569730  1
  O  O172  1  0.23897084  0.98769703  0.13106609  1
  O  O173  1  0.25964193  0.98419941  0.62573896  1
  O  O174  1  0.73358435  0.48504075  0.11710585  1
  O  O175  1  0.73220532  0.50727351  0.62114717  1
  O  O176  1  0.73340360  0.98821206  0.13875669  1
  O  O177  1  0.75247902  0.98766290  0.62636338  1
  O  O178  1  0.01369095  0.38756643  0.25391962  1
  O  O179  1  -0.02557688  0.36029667  0.72422694  1
  O  O180  1  0.00970074  0.86223714  0.25292982  1
  O  O181  1  0.00999989  0.87026790  0.73300889  1
  O  O182  1  0.51329935  0.35643673  0.23632185  1
  O  O183  1  0.50968267  0.35900743  0.74964445  1
  O  O184  1  0.50036747  0.86834825  0.25976089  1
  O  O185  1  0.51542680  0.88726187  0.74239550  1
  O  O186  1  0.48863718  0.12173184  0.24767580  1
  O  O187  1  0.50705690  0.13035018  0.73826798  1
  O  O188  1  0.50861795  0.64058697  0.25063305  1
  O  O189  1  0.46103530  0.59542760  0.73160867  1
  O  O190  1  0.98761510  0.12241498  0.23911526  1
  O  O191  1  0.99176483  0.12622106  0.73172066  1
  O  O192  1  1.00143370  0.63794739  0.24734667  1
  O  O193  1  0.98841124  0.64365277  0.75126830  1
  O  O194  1  0.36820343  0.24518370  0.01045799  1
  O  O195  1  0.37143988  0.25380219  0.50347771  1
  O  O196  1  0.39104405  0.75690618  -0.01123339  1
  O  O197  1  0.36578064  0.76115411  0.50976736  1
  O  O198  1  0.86923201  0.23876957  -0.01502782  1
  O  O199  1  0.88910301  0.27166656  0.48990991  1
  O  O200  1  0.86077326  0.73879050  -0.01344174  1
  O  O201  1  0.86662904  0.75083825  0.50972529  1
  O  O202  1  0.14150731  0.23885570  0.49485920  1
  O  O203  1  0.13454862  0.25793508  1.02328088  1
  O  O204  1  0.13641005  0.76177782  0.50097365  1
  O  O205  1  0.14624800  0.80373151  0.98803841  1
  O  O206  1  0.64958044  0.24577204  0.53149847  1
  O  O207  1  0.61946952  0.24320734  0.99178931  1
  O  O208  1  0.63230720  0.76017328  0.48978760  1
  O  O209  1  0.61355522  0.72940885  0.99349904  1
  O  O210  1  0.48684705  0.23809732  0.11748991  1
  O  O211  1  0.49586918  0.23622612  0.62808004  1
  O  O212  1  0.50225934  0.75215751  0.14117288  1
  O  O213  1  0.48075463  0.75577136  0.61891411  1
  O  O214  1  1.07063912  0.25415715  0.19426474  1
  O  O215  1  1.00466333  0.23609236  0.62735687  1
  O  O216  1  1.00755792  0.74217123  0.14009708  1
  O  O217  1  0.98638158  0.75291402  0.63285489  1
  O  O218  1  0.02737416  0.25517169  0.35846160  1
  O  O219  1  -0.01041422  0.26220812  0.84616668  1
  O  O220  1  -0.00154665  0.75472585  0.36085021  1
  O  O221  1  -0.00717460  0.76894037  0.85342049  1
  O  O222  1  0.53865393  0.22609924  0.39438468  1
  O  O223  1  0.51331451  0.24713649  0.86345485  1
  O  O224  1  0.50371751  0.75995593  0.37496677  1
  O  O225  1  0.51817682  0.68941194  0.84647604  1
  O  O226  1  0.24313331  0.13254572  0.49690885  1
  O  O227  1  0.24111235  0.13409784  0.99750538  1
  O  O228  1  0.23879812  0.63980437  0.50924867  1
  O  O229  1  0.24240884  0.62192094  0.97352250  1
  O  O230  1  0.74878926  0.11447560  0.48714809  1
  O  O231  1  0.74010678  0.14188270  1.00818198  1
  O  O232  1  0.74846148  0.63807973  0.49763750  1
  O  O233  1  0.74194907  0.62599190  1.00590675  1
  O  O234  1  0.26274045  0.35315654  -0.00675653  1
  O  O235  1  0.26088054  0.35883376  0.50654498  1
  O  O236  1  0.28106765  0.87923705  0.01642847  1
  O  O237  1  0.25454554  0.87374136  0.50916166  1
  O  O238  1  0.75108485  0.36072202  0.00768221  1
  O  O239  1  0.75487744  0.36462240  0.46183689  1
  O  O240  1  0.74459456  0.88248178  0.01254095  1
  O  O241  1  0.75001141  0.86882743  0.51084494  1
  O  O242  1  0.14700357  0.50297143  0.24888009  1
  O  O243  1  0.06705134  0.48810031  0.70951833  1
  O  O244  1  0.12904383  0.99059026  0.24458464  1
  O  O245  1  0.11448887  1.00016987  0.74274521  1
  O  O246  1  0.61880530  0.49778532  0.23726414  1
  O  O247  1  0.61744241  0.48951444  0.74821962  1
  O  O248  1  0.61486487  0.98371304  0.24361572  1
  O  O249  1  0.63997710  0.99444073  0.75133841  1
  O  O250  1  0.36865320  0.01061972  0.25466877  1
  O  O251  1  0.37106189  -0.00166889  0.77889756  1
  O  O252  1  0.41297324  0.51014536  0.27884319  1
  O  O253  1  0.36632793  0.47907546  0.75646049  1
  O  O254  1  0.85588551  0.00040626  0.24923400  1
  O  O255  1  0.86253324  0.00697347  0.74141467  1
  O  O256  1  0.87277397  0.49868776  0.26908130  1
  O  O257  1  0.88261335  0.51948969  0.76930678  1
  O  O258  1  0.12801561  0.37816138  0.36734764  1
  O  O259  1  0.10883387  0.35783113  0.88754276  1
  O  O260  1  0.11537794  0.87741748  0.35976145  1
  O  O261  1  0.09553681  0.88612942  0.85566468  1
  O  O262  1  0.62321273  0.37657568  0.34704415  1
  O  O263  1  0.62252574  0.36716781  0.86538401  1
  O  O264  1  0.61232663  0.86836486  0.36876397  1
  O  O265  1  0.62339478  0.87345426  0.86134285  1
  O  O266  1  0.37234984  0.12491146  0.13589017  1
  O  O267  1  0.38396353  0.13553233  0.62012775  1
  O  O268  1  0.37742479  0.62840759  0.11454408  1
  O  O269  1  0.36099084  0.64283115  0.62646457  1
  O  O270  1  0.83109195  0.13754888  0.17057851  1
  O  O271  1  0.88959411  0.12051642  0.63015494  1
  O  O272  1  0.89608880  0.61771551  0.12183268  1
  O  O273  1  0.87619369  0.62841828  0.63718643  1
  O  O274  1  0.26019811  0.23996301  0.11495794  1
  O  O275  1  0.26708967  0.24344007  0.61564791  1
  O  O276  1  0.24745134  0.76242525  0.13065351  1
  O  O277  1  0.25695956  0.76644178  0.61700045  1
  O  O278  1  0.75343534  0.26399989  0.10715316  1
  O  O279  1  0.71813924  0.25154451  0.58492207  1
  O  O280  1  0.73738592  0.76640396  0.12628797  1
  O  O281  1  0.75322381  0.75707452  0.61859227  1
  O  O282  1  0.26803004  0.25426756  0.38546752  1
  O  O283  1  0.21800206  0.24582350  0.88428648  1
  O  O284  1  0.25525286  0.75732779  0.39555435  1
  O  O285  1  0.23904574  0.72792230  0.85588085  1
  O  O286  1  0.75115097  0.30298111  0.40493791  1
  O  O287  1  0.74103737  0.25467722  0.88878406  1
  O  O288  1  0.74297962  0.74480291  0.38150752  1
  O  O289  1  0.74127458  0.75031921  0.87550695  1
  O  O290  1  -0.00937421  0.12165342  0.02130491  1
  O  O291  1  0.00947140  0.11799914  0.49677222  1
  O  O292  1  0.01277626  0.64069873  0.01266188  1
  O  O293  1  0.01038382  0.62434744  0.50437410  1
  O  O294  1  0.50863515  0.11478766  -0.00372612  1
  O  O295  1  0.49764470  0.11586159  0.51357746  1
  O  O296  1  0.50913537  0.61307519  0.00523980  1
  O  O297  1  0.49975944  0.62271349  0.51302248  1
  O  O298  1  0.48922549  0.36489154  0.50212493  1
  O  O299  1  0.48247024  0.36778206  0.99237176  1
  O  O300  1  0.48780213  0.88071128  0.49729330  1
  O  O301  1  0.48728429  0.88617635  1.00164208  1
  O  O302  1  0.99376597  0.38981774  0.51127079  1
  O  O303  1  0.99582107  0.37365860  1.01891989  1
  O  O304  1  1.00353674  0.88694494  0.49264966  1
  O  O305  1  0.98910314  0.85320782  0.99289133  1
  O  O306  1  0.49852641  0.50417654  0.40309908  1
  O  O307  1  0.47378268  0.49659282  0.87751626  1
  O  O308  1  0.48432013  0.98796152  0.38425853  1
  O  O309  1  0.50242357  1.00102376  0.88720719  1
  O  O310  1  0.99600795  0.51740048  0.37149518  1
  O  O311  1  0.99026560  0.49882980  0.89408866  1
  O  O312  1  1.00474924  0.99099416  0.38443506  1
  O  O313  1  0.99409973  0.99006580  0.91624383  1
  O  O314  1  0.00780039  -0.01212742  0.12333345  1
  O  O315  1  0.00222337  0.01060884  0.60616314  1
  O  O316  1  0.00365805  0.50955629  0.10731021  1
  O  O317  1  0.01254637  0.50055142  0.65359106  1
  O  O318  1  0.51070537  -0.00386320  0.11379395  1
  O  O319  1  0.48625778  0.01091237  0.61878175  1
  O  O320  1  0.50800280  0.49287637  0.12509641  1
  O  O321  1  0.50381378  0.49310761  0.61452570  1
  O  O322  1  0.30248875  0.41809861  0.22945496  1
  O  O323  1  0.25946839  0.35215953  0.73691239  1
  O  O324  1  0.24146919  0.88121497  0.24660436  1
  O  O325  1  0.23023341  0.87617114  0.74281182  1
  O  O326  1  0.73712753  0.36251457  0.23023846  1
  O  O327  1  0.73843206  0.37146374  0.75281470  1
  O  O328  1  0.73691357  0.88064575  0.24380579  1
  O  O329  1  0.74631620  0.88757970  0.73898826  1
  O  O330  1  0.25032096  0.11142386  0.24677331  1
  O  O331  1  0.31986040  0.05115727  0.76861325  1
  O  O332  1  0.27170465  0.60403077  0.23636272  1
  O  O333  1  0.26365800  0.61317640  0.74517106  1
  O  O334  1  0.71151429  0.09708888  0.26786327  1
  O  O335  1  0.75948910  0.11391572  0.73574881  1
  O  O336  1  0.74808142  0.63395554  0.25862700  1
  O  O337  1  0.76083660  0.62936137  0.74882287  1
  O  O338  1  0.37896062  0.11745102  0.36204185  1
  O  O339  1  0.35886561  0.17871605  0.85459175  1
  O  O340  1  0.37451929  0.61229670  0.39466613  1
  O  O341  1  0.36050610  0.60973179  0.85830890  1
  O  O342  1  0.87051542  0.14798999  0.35256745  1
  O  O343  1  0.88853166  0.11405791  0.85024693  1
  O  O344  1  0.85988799  0.61763844  0.37951308  1
  O  O345  1  0.86811163  0.63431975  0.86947427  1
  O  O346  1  0.12403178  0.40219427  0.13383608  1
  O  O347  1  0.14823388  0.34612034  0.62257077  1
  O  O348  1  0.13364571  0.88042184  0.14114679  1
  O  O349  1  0.13363796  0.88063702  0.63135313  1
  O  O350  1  0.62773322  0.38018683  0.13206469  1
  O  O351  1  0.62285062  0.38574950  0.64277275  1
  O  O352  1  0.62558285  0.88075951  0.12992113  1
  O  O353  1  0.63744622  0.87388447  0.63199914  1
  O  O354  1  0.18014879  0.28024427  0.26646648  1
  O  O355  1  0.10469983  0.25080376  0.75434449  1
  O  O356  1  0.13284462  0.75867983  0.24942685  1
  O  O357  1  0.11111337  0.74763903  0.73939427  1
  O  O358  1  0.63211413  0.24199242  0.24074574  1
  O  O359  1  0.62482752  0.25479746  0.75546844  1
  O  O360  1  0.61430987  0.76154652  0.25963014  1
  O  O361  1  0.62967531  0.77024759  0.74883977  1
  O  O362  1  0.36802747  0.23545983  0.23692639  1
  O  O363  1  0.38883331  0.25558962  0.72974390  1
  O  O364  1  0.38946505  0.75005107  0.26075602  1
  O  O365  1  0.37203922  0.74369985  0.73935237  1
  O  O366  1  0.89048154  0.26640665  0.24714482  1
  O  O367  1  0.87569074  0.23286252  0.74360513  1
  O  O368  1  0.88240895  0.74918619  0.24782395  1
  O  O369  1  0.87235366  0.74413048  0.74023587  1
  O  O370  1  0.38669431  0.49010169  0.50294462  1
  O  O371  1  0.36739101  0.47728346  1.00154252  1
  O  O372  1  0.37681559  0.99464768  0.49373016  1
  O  O373  1  0.38816108  1.00431644  1.00055305  1
  O  O374  1  0.86939788  0.49483328  0.48151374  1
  O  O375  1  0.88749489  0.49830789  0.99403945  1
  O  O376  1  0.89095637  0.99780412  0.49763985  1
  O  O377  1  0.87861717  1.01157283  1.01668926  1
  O  O378  1  0.11000843  -0.00204014  0.01849321  1
  O  O379  1  0.12179548  0.01290944  0.49623701  1
  O  O380  1  0.11068229  0.49184754  0.00360097  1
  O  O381  1  0.13677345  0.50653855  0.50187426  1
  O  O382  1  0.61792301  0.00898540  0.00456138  1
  O  O383  1  0.60600276  0.00053541  0.49298480  1
  O  O384  1  0.61875138  0.50018206  0.01153923  1
  O  O385  1  0.61235685  0.49656297  0.51565428  1
  O  O386  1  0.37954816  0.35388184  0.11220447  1
  O  O387  1  0.36936677  0.36001528  0.61249030  1
  O  O388  1  0.36320742  0.87258203  0.14190151  1
  O  O389  1  0.36436120  0.86847570  0.62249760  1
  O  O390  1  0.86013645  0.39137957  0.13021375  1
  O  O391  1  0.85617743  0.39383183  0.59743467  1
  O  O392  1  0.85638782  0.87514785  0.13028537  1
  O  O393  1  0.86162524  0.86637911  0.62318244  1
  O  O394  1  0.12522078  0.12080690  0.38199400  1
  O  O395  1  0.08595416  0.16311855  0.90059205  1
  O  O396  1  0.12756374  0.62815579  0.39675439  1
  O  O397  1  0.13644855  0.60193346  0.85136456  1
  O  O398  1  0.59095230  0.16205860  0.39166421  1
  O  O399  1  0.62751198  0.13478856  0.88513716  1
  O  O400  1  0.63088635  0.63958917  0.37004749  1
  O  O401  1  0.63297008  0.60052368  0.89540580  1
