# generated using pymatgen
data_V73Zn73O256
_symmetry_space_group_name_H-M   'P 1'
_cell_length_a   16.86265328
_cell_length_b   16.83770034
_cell_length_c   16.85835531
_cell_angle_alpha   90.01077375
_cell_angle_beta   90.31420063
_cell_angle_gamma   89.76152207
_symmetry_Int_Tables_number   1
_chemical_formula_structural   V73Zn73O256
_chemical_formula_sum   'V73 Zn73 O256'
_cell_volume   4786.45071501
_cell_formula_units_Z   1
loop_
 _symmetry_equiv_pos_site_id
 _symmetry_equiv_pos_as_xyz
  1  'x, y, z'
loop_
 _atom_site_type_symbol
 _atom_site_label
 _atom_site_symmetry_multiplicity
 _atom_site_fract_x
 _atom_site_fract_y
 _atom_site_fract_z
 _atom_site_occupancy
  V  V0  1  0.12092329  0.26335593  0.35849532  1
  V  V1  1  0.01233239  0.63543282  0.13186889  1
  V  V2  1  0.75647128  0.61364921  0.37702172  1
  V  V3  1  0.13581824  0.50702655  0.61684648  1
  V  V4  1  0.88230794  0.38157403  0.49233173  1
  V  V5  1  0.38169097  0.75609884  0.63585150  1
  V  V6  1  0.48663592  -0.00010123  0.49908683  1
  V  V7  1  0.38919319  0.50880394  0.87535471  1
  V  V8  1  0.50062073  0.60998035  0.12066410  1
  V  V9  1  0.49730159  0.14000163  0.62759183  1
  V  V10  1  0.11335950  -0.00104630  0.60061604  1
  V  V11  1  -0.00754579  0.74410624  0.75056052  1
  V  V12  1  0.48671798  0.88019895  0.38143139  1
  V  V13  1  0.10976949  0.25707111  0.86619852  1
  V  V14  1  -0.01448337  0.62466569  0.62546786  1
  V  V15  1  0.63031997  0.49325336  0.63380359  1
  V  V16  1  0.72494901  0.25446114  -0.00355335  1
  V  V17  1  0.24167711  0.25177901  0.50818357  1
  V  V18  1  0.86297066  0.48544605  0.85951780  1
  V  V19  1  0.25932535  0.50180607  0.75841225  1
  V  V20  1  0.75280838  0.12961217  0.86893962  1
  V  V21  1  0.61111573  0.25953658  0.37036084  1
  V  V22  1  0.25367945  0.12556228  0.37391629  1
  V  V23  1  0.75977993  0.88026755  0.09921305  1
  V  V24  1  0.63760026  0.63911246  -0.00786277  1
  V  V25  1  0.62648891  0.12707195  0.49899618  1
  V  V26  1  0.12533248  0.88163276  0.75363454  1
  V  V27  1  0.62579939  0.00173013  0.63461284  1
  V  V28  1  0.36756091  0.87106508  0.01371395  1
  V  V29  1  0.00142919  0.50509252  0.48772785  1
  V  V30  1  0.84034598  0.62304061  0.21612096  1
  V  V31  1  0.14243060  0.73487352  0.86242660  1
  V  V32  1  0.11463005  0.00171927  0.12474808  1
  V  V33  1  0.75424698  0.87903149  0.63586393  1
  V  V34  1  0.49442230  0.75478503  0.24583392  1
  V  V35  1  0.37260041  0.36405162  0.50338654  1
  V  V36  1  0.25031620  0.24991120  -0.00678465  1
  V  V37  1  0.61973779  0.86827609  0.75778166  1
  V  V38  1  0.62577422  0.75320257  0.37745629  1
  V  V39  1  0.25362638  0.74666216  0.01435818  1
  V  V40  1  0.62155328  0.62510156  0.50286823  1
  V  V41  1  0.37556911  0.37406019  -0.01047792  1
  V  V42  1  0.75826997  0.25359369  0.50748876  1
  V  V43  1  0.11898426  0.87215999  0.24516841  1
  V  V44  1  0.75376246  0.11853267  0.36275886  1
  V  V45  1  0.37688796  0.62594374  0.25170721  1
  V  V46  1  0.12012080  0.37166425  0.73661799  1
  V  V47  1  0.49163702  0.49735271  0.48459488  1
  V  V48  1  0.11131170  0.12263865  -0.00324482  1
  V  V49  1  0.87695720  0.88899322  0.49753493  1
  V  V50  1  0.24554359  0.50757993  0.24053000  1
  V  V51  1  0.89220385  0.12153117  0.23779962  1
  V  V52  1  0.24416185  0.11226453  0.86666440  1
  V  V53  1  0.49066768  0.86607145  0.86813640  1
  V  V54  1  0.26092500  -0.00248844  0.24361234  1
  V  V55  1  0.25980565  0.75896865  0.49833980  1
  V  V56  1  0.62239113  0.36755745  0.77245068  1
  V  V57  1  0.36640801  0.12978644  0.73852541  1
  V  V58  1  0.25197564  0.88423831  0.62246553  1
  V  V59  1  0.87416792  -0.01605642  0.86104159  1
  V  V60  1  0.11855615  0.74801597  0.38308222  1
  V  V61  1  0.49435480  0.62426538  0.63963234  1
  V  V62  1  0.90601379  0.38207851  0.00353992  1
  V  V63  1  -0.01063030  -0.01604933  -0.00731492  1
  V  V64  1  0.64446207  0.88607086  0.25527332  1
  V  V65  1  0.62325872  0.38299943  0.23364648  1
  V  V66  1  -0.00334664  0.13579371  0.61130288  1
  V  V67  1  0.25432113  0.62182938  0.38478054  1
  V  V68  1  0.88416006  0.15428356  0.74574030  1
  V  V69  1  0.26599478  0.33621010  0.16113715  1
  V  V70  1  0.13311140  0.60933925  -0.00176967  1
  V  V71  1  0.75916577  0.75279675  0.50425958  1
  V  V72  1  -0.00303863  0.89373397  0.37738037  1
  Zn  Zn73  1  0.86579807  0.25641044  0.12266079  1
  Zn  Zn74  1  0.50006140  0.25261515  0.79268420  1
  Zn  Zn75  1  0.67268251  0.52116913  0.13621962  1
  Zn  Zn76  1  0.37673265  -0.00149771  0.87173128  1
  Zn  Zn77  1  0.88016708  0.75908602  0.08353117  1
  Zn  Zn78  1  0.11059253  0.47742537  0.12953807  1
  Zn  Zn79  1  0.51154426  0.00470908  0.01667152  1
  Zn  Zn80  1  0.76527161  0.37297416  0.64118635  1
  Zn  Zn81  1  0.37497607  0.15960837  0.22714852  1
  Zn  Zn82  1  0.17974557  0.17662814  0.18731165  1
  Zn  Zn83  1  0.17459303  0.18084097  0.68431918  1
  Zn  Zn84  1  0.18567249  0.68967990  0.19118937  1
  Zn  Zn85  1  0.19456406  0.68307758  0.67934078  1
  Zn  Zn86  1  0.72385701  0.23163695  0.20969169  1
  Zn  Zn87  1  0.68598144  0.19104355  0.69773024  1
  Zn  Zn88  1  0.66739791  0.72592779  0.14370214  1
  Zn  Zn89  1  0.68426143  0.69376443  0.68409656  1
  Zn  Zn90  1  0.31575957  0.31803661  0.32987222  1
  Zn  Zn91  1  0.30485847  0.31144030  0.80646116  1
  Zn  Zn92  1  0.30790790  0.81496122  0.30977519  1
  Zn  Zn93  1  0.30873003  0.80960803  0.80537459  1
  Zn  Zn94  1  0.81088752  0.31152245  0.31771325  1
  Zn  Zn95  1  0.81027575  0.31919546  0.81915989  1
  Zn  Zn96  1  0.82103329  0.79960247  0.31073479  1
  Zn  Zn97  1  0.83706420  0.77548895  0.87442361  1
  Zn  Zn98  1  0.18994753  0.43386483  0.43619781  1
  Zn  Zn99  1  0.18989396  0.43525803  0.92779412  1
  Zn  Zn100  1  0.19341930  0.93909623  0.42954836  1
  Zn  Zn101  1  0.18127909  0.92961350  0.93757037  1
  Zn  Zn102  1  0.68272124  0.43400052  0.44259565  1
  Zn  Zn103  1  0.68883651  0.45154121  0.95002487  1
  Zn  Zn104  1  0.68526543  0.94108180  0.44131474  1
  Zn  Zn105  1  0.68393698  0.95389597  0.93633752  1
  Zn  Zn106  1  0.29551749  0.04978577  0.05532811  1
  Zn  Zn107  1  0.30524162  0.06457378  0.56293114  1
  Zn  Zn108  1  0.32355250  0.56631171  0.06001240  1
  Zn  Zn109  1  0.31661428  0.56387504  0.56510458  1
  Zn  Zn110  1  0.80503259  0.06844090  0.06386197  1
  Zn  Zn111  1  0.81346267  0.06598292  0.56822570  1
  Zn  Zn112  1  0.82264249  0.58080729  0.03287989  1
  Zn  Zn113  1  0.81246015  0.55815009  0.55939212  1
  Zn  Zn114  1  0.44064440  0.44009701  0.21056338  1
  Zn  Zn115  1  0.44238819  0.42948855  0.68813656  1
  Zn  Zn116  1  0.44603812  0.93703589  0.18232034  1
  Zn  Zn117  1  0.43692979  0.94713896  0.68958911  1
  Zn  Zn118  1  0.89602227  0.47986181  0.15856883  1
  Zn  Zn119  1  0.94100614  0.43270809  0.67957732  1
  Zn  Zn120  1  0.93029095  0.93878758  0.18538543  1
  Zn  Zn121  1  0.94208586  0.93099703  0.68600696  1
  Zn  Zn122  1  0.06628251  0.06996756  0.31409750  1
  Zn  Zn123  1  0.05093555  0.06479706  0.81024289  1
  Zn  Zn124  1  0.06255128  0.56891865  0.30621604  1
  Zn  Zn125  1  0.06744905  0.55918293  0.80303013  1
  Zn  Zn126  1  0.56330562  0.06578331  0.31179311  1
  Zn  Zn127  1  0.56147555  0.08254376  0.88085380  1
  Zn  Zn128  1  0.57366938  0.56381234  0.30650019  1
  Zn  Zn129  1  0.56732013  0.55911847  0.81970989  1
  Zn  Zn130  1  0.42906698  0.18516804  0.43332138  1
  Zn  Zn131  1  0.42850003  0.17453719  0.95552919  1
  Zn  Zn132  1  0.43667385  0.68985167  0.44108794  1
  Zn  Zn133  1  0.44362239  0.69095528  0.93750734  1
  Zn  Zn134  1  0.93843566  0.18649676  0.42713003  1
  Zn  Zn135  1  0.92811366  0.19013306  0.93683966  1
  Zn  Zn136  1  0.93828379  0.68949062  0.44127080  1
  Zn  Zn137  1  0.96161470  0.67722394  0.93343270  1
  Zn  Zn138  1  0.08645836  0.32067089  0.06163651  1
  Zn  Zn139  1  0.06418096  0.31537528  0.55262607  1
  Zn  Zn140  1  0.06968260  0.80940970  0.05119110  1
  Zn  Zn141  1  0.06127089  0.81010223  0.56322270  1
  Zn  Zn142  1  0.55892623  0.30551674  0.06768757  1
  Zn  Zn143  1  0.56235468  0.31706673  0.55579053  1
  Zn  Zn144  1  0.55872046  0.83587663  0.06637182  1
  Zn  Zn145  1  0.56256501  0.81469412  0.56528773  1
  O  O146  1  0.12283756  0.11337494  0.11036921  1
  O  O147  1  0.11009613  0.10552777  0.62744697  1
  O  O148  1  0.12650872  0.63035275  0.11020676  1
  O  O149  1  0.12217152  0.61028956  0.62096846  1
  O  O150  1  0.53647802  0.16378195  0.17164376  1
  O  O151  1  0.61362993  0.12275246  0.62086134  1
  O  O152  1  0.60689742  0.62658188  0.13948123  1
  O  O153  1  0.61626962  0.62161952  0.62145818  1
  O  O154  1  0.37321564  0.38344362  0.39959416  1
  O  O155  1  0.37370492  0.37346445  0.88541772  1
  O  O156  1  0.38817501  0.87332899  0.37549428  1
  O  O157  1  0.38306194  0.87850241  0.85603402  1
  O  O158  1  0.86944413  0.37321318  0.39164255  1
  O  O159  1  0.88032011  0.37958630  0.88966430  1
  O  O160  1  0.88870877  0.87106603  0.38199311  1
  O  O161  1  0.86251601  0.88593602  0.87124111  1
  O  O162  1  0.24947144  0.01445954  0.36140315  1
  O  O163  1  0.23517848  0.01103353  0.87188012  1
  O  O164  1  0.24209365  0.51955551  0.37334775  1
  O  O165  1  0.25639001  0.50196925  0.86224879  1
  O  O166  1  0.74489602  0.02065692  0.38671610  1
  O  O167  1  0.77095045  0.01483965  0.87892853  1
  O  O168  1  0.74143325  0.51499811  0.39046485  1
  O  O169  1  0.76522629  0.50534629  0.87687608  1
  O  O170  1  0.25396062  0.51779430  0.14073300  1
  O  O171  1  0.23919278  0.49899167  0.61984406  1
  O  O172  1  0.23167645  0.99556520  0.13569844  1
  O  O173  1  0.23426373  0.99395604  0.61849592  1
  O  O174  1  0.78538496  0.54772437  0.14198708  1
  O  O175  1  0.73279508  0.50217506  0.62103213  1
  O  O176  1  0.75129594  0.98135645  0.11662613  1
  O  O177  1  0.73987891  0.98752406  0.61586107  1
  O  O178  1  0.00555693  0.34037553  0.21330937  1
  O  O179  1  0.02129370  0.38438212  0.74940908  1
  O  O180  1  0.00800656  0.88094354  0.26464202  1
  O  O181  1  0.01879214  0.85327934  0.73372472  1
  O  O182  1  0.51875703  0.37240049  0.25095342  1
  O  O183  1  0.51320160  0.36664016  0.75153925  1
  O  O184  1  0.50390289  0.86752454  0.26658892  1
  O  O185  1  0.51011021  0.88273919  0.75494812  1
  O  O186  1  0.49156046  0.12302501  0.23445299  1
  O  O187  1  0.49046725  0.13136708  0.72985196  1
  O  O188  1  0.49532359  0.63866869  0.25302852  1
  O  O189  1  0.50599202  0.62314227  0.73756938  1
  O  O190  1  0.99185739  0.13186417  0.25142045  1
  O  O191  1  0.99003607  0.12593868  0.73589349  1
  O  O192  1  1.02869124  0.64747299  0.23110108  1
  O  O193  1  1.00599725  0.63173885  0.73438203  1
  O  O194  1  0.35586831  0.25391774  -0.00471682  1
  O  O195  1  0.36634475  0.25751031  0.50163756  1
  O  O196  1  0.35961666  0.75422603  -0.00682953  1
  O  O197  1  0.36602937  0.75158242  0.50995382  1
  O  O198  1  0.88855514  0.27004325  0.00608668  1
  O  O199  1  0.86308466  0.25609936  0.49577167  1
  O  O200  1  0.87195054  0.72942588  -0.02943665  1
  O  O201  1  0.86401418  0.76005066  0.49961252  1
  O  O202  1  0.13862812  0.25503584  0.48745227  1
  O  O203  1  0.12710595  0.24237555  0.98525681  1
  O  O204  1  0.13752358  0.75711037  0.48888469  1
  O  O205  1  0.14042208  0.74535860  0.98128547  1
  O  O206  1  0.63081450  0.24255850  0.49557474  1
  O  O207  1  0.62462921  0.24558326  0.99603751  1
  O  O208  1  0.62907983  0.74529864  0.49585702  1
  O  O209  1  0.61408765  0.73851802  1.02727463  1
  O  O210  1  0.49807808  0.22717742  0.14768587  1
  O  O211  1  0.50024416  0.23837903  0.61291100  1
  O  O212  1  0.50164917  0.75482204  0.14646860  1
  O  O213  1  0.48977684  0.74283297  0.62025755  1
  O  O214  1  1.00956665  0.28602951  0.16236066  1
  O  O215  1  1.01299914  0.23487260  0.61642690  1
  O  O216  1  0.99969090  0.74075768  0.10509594  1
  O  O217  1  1.00584158  0.73338043  0.62994782  1
  O  O218  1  0.02207508  0.24274028  0.37629337  1
  O  O219  1  0.01232169  0.24509466  0.87192321  1
  O  O220  1  0.01577645  0.75060790  0.38212032  1
  O  O221  1  0.02295107  0.73873227  0.85496411  1
  O  O222  1  0.51233439  0.24548192  0.38553823  1
  O  O223  1  0.51039240  0.18545169  0.88477473  1
  O  O224  1  0.50661615  0.76260183  0.37928547  1
  O  O225  1  0.49612045  0.76532010  0.86759180  1
  O  O226  1  0.26168657  0.13420930  0.48163852  1
  O  O227  1  0.23445901  0.12762515  0.98543000  1
  O  O228  1  0.25505416  0.63555768  0.48912030  1
  O  O229  1  0.24586049  0.63648037  1.00351631  1
  O  O230  1  0.74296799  0.13453552  0.50164705  1
  O  O231  1  0.75846961  0.13470679  0.97881527  1
  O  O232  1  0.73785124  0.63373070  0.50251150  1
  O  O233  1  0.73869655  0.64691903  0.99162154  1
  O  O234  1  0.25088337  0.35542800  -0.01287943  1
  O  O235  1  0.25758076  0.36223322  0.50183717  1
  O  O236  1  0.25552019  0.85738919  -0.01030685  1
  O  O237  1  0.24939379  0.87129228  0.50828486  1
  O  O238  1  0.74186905  0.35582082  -0.00861529  1
  O  O239  1  0.75577844  0.36451863  0.50260723  1
  O  O240  1  0.73867885  0.87340316  0.00003532  1
  O  O241  1  0.75987895  0.87062189  0.50033865  1
  O  O242  1  0.14114453  0.50938415  0.24595228  1
  O  O243  1  0.13615729  0.49179102  0.73791346  1
  O  O244  1  0.12422795  0.99318227  0.24196925  1
  O  O245  1  0.11466169  0.98201485  0.75228187  1
  O  O246  1  0.63263188  0.48943268  0.24347742  1
  O  O247  1  0.61875727  0.49149433  0.73903604  1
  O  O248  1  0.61991435  0.98336837  0.25536225  1
  O  O249  1  0.62279950  0.99134480  0.73490274  1
  O  O250  1  0.36037018  -0.01382971  0.23812190  1
  O  O251  1  0.37889196  0.02428036  0.75338811  1
  O  O252  1  0.36662668  0.51715888  0.25527878  1
  O  O253  1  0.36818970  0.48756432  0.76206857  1
  O  O254  1  0.87835105  0.02039342  0.24605345  1
  O  O255  1  0.88358216  -0.00440604  0.75950417  1
  O  O256  1  0.89527316  0.54880117  0.25726077  1
  O  O257  1  0.86707941  0.47145896  0.75877178  1
  O  O258  1  0.12954410  0.36467654  0.37045014  1
  O  O259  1  0.12471923  0.36172018  0.86652285  1
  O  O260  1  0.11237145  0.87024059  0.37224957  1
  O  O261  1  0.13219187  0.85749590  0.85782440  1
  O  O262  1  0.62348196  0.36242361  0.37790067  1
  O  O263  1  0.62541766  0.38959989  0.86957990  1
  O  O264  1  0.61796537  0.86967359  0.37379139  1
  O  O265  1  0.61582187  0.88147016  0.86211648  1
  O  O266  1  0.38302568  0.10622922  0.10707022  1
  O  O267  1  0.37895158  0.12692826  0.63120713  1
  O  O268  1  0.38894829  0.62959602  0.13865431  1
  O  O269  1  0.38793568  0.63592261  0.62213714  1
  O  O270  1  0.87729397  0.13004969  0.13195855  1
  O  O271  1  0.88521548  0.12508147  0.63576184  1
  O  O272  1  0.89783084  0.63647330  0.11770414  1
  O  O273  1  0.88550664  0.61952559  0.62555779  1
  O  O274  1  0.23796864  0.24174271  0.10157540  1
  O  O275  1  0.24070410  0.23289883  0.60691341  1
  O  O276  1  0.24517772  0.75321989  0.11346238  1
  O  O277  1  0.25979616  0.75771905  0.61651282  1
  O  O278  1  0.74747689  0.23460803  0.09833418  1
  O  O279  1  0.74144542  0.25119735  0.61045238  1
  O  O280  1  0.76992777  0.76736636  0.13075605  1
  O  O281  1  0.74178936  0.76756205  0.61477700  1
  O  O282  1  0.24214684  0.24449628  0.38338903  1
  O  O283  1  0.23681718  0.23698219  0.87980470  1
  O  O284  1  0.24481638  0.74948052  0.38312037  1
  O  O285  1  0.24431044  0.73984697  0.86915955  1
  O  O286  1  0.73652784  0.23804172  0.39027724  1
  O  O287  1  0.75695315  0.23972533  0.88389625  1
  O  O288  1  0.74035462  0.74380047  0.38722281  1
  O  O289  1  0.75205265  0.69484980  0.83403360  1
  O  O290  1  0.00876337  0.11665198  -0.01022739  1
  O  O291  1  -0.01719885  0.12053993  0.51246757  1
  O  O292  1  0.02938894  0.61995731  0.00447725  1
  O  O293  1  -0.00308600  0.61423901  0.51073569  1
  O  O294  1  0.44817883  0.10834036  0.05173266  1
  O  O295  1  0.50276277  0.11615613  0.50442763  1
  O  O296  1  0.49746725  0.62749460  0.01984665  1
  O  O297  1  0.50859139  0.62141605  0.50583870  1
  O  O298  1  0.49268802  0.39076782  0.49998010  1
  O  O299  1  0.47022613  0.35847448  1.01784185  1
  O  O300  1  0.50453810  0.88824625  0.49276579  1
  O  O301  1  0.47444746  0.86094422  0.98262807  1
  O  O302  1  0.99099102  0.38764432  0.49907326  1
  O  O303  1  1.00752153  0.38456706  1.00828129  1
  O  O304  1  0.98688860  0.87011541  0.49226709  1
  O  O305  1  1.00528079  0.88466326  0.99176772  1
  O  O306  1  0.50814986  0.51039875  0.38670487  1
  O  O307  1  0.48765344  0.49338366  0.87242718  1
  O  O308  1  0.50200551  0.99234942  0.38656204  1
  O  O309  1  0.49233672  0.98606692  0.89125703  1
  O  O310  1  1.01151111  0.51274270  0.38923947  1
  O  O311  1  0.97956845  0.52141543  0.87116210  1
  O  O312  1  1.00551221  0.99202547  0.38018054  1
  O  O313  1  0.98850234  0.99901351  0.88270672  1
  O  O314  1  0.00726395  -0.00635063  0.10953714  1
  O  O315  1  0.01097976  -0.00528038  0.61870603  1
  O  O316  1  0.00504468  0.52338710  0.13224761  1
  O  O317  1  0.00958632  0.51117715  0.61928584  1
  O  O318  1  0.52590830  -0.05844652  0.10795707  1
  O  O319  1  0.50521817  0.00718751  0.61316456  1
  O  O320  1  0.49372205  0.51064073  0.13195344  1
  O  O321  1  0.50647496  0.51466963  0.61924595  1
  O  O322  1  0.26152783  0.40072686  0.25268199  1
  O  O323  1  0.23716995  0.38697027  0.75059844  1
  O  O324  1  0.23182951  0.89016017  0.26382065  1
  O  O325  1  0.23524965  0.87021951  0.73407560  1
  O  O326  1  0.72697262  0.35480730  0.24976096  1
  O  O327  1  0.73015833  0.36712876  0.74898815  1
  O  O328  1  0.74301230  0.87883367  0.27623038  1
  O  O329  1  0.73987419  0.87605441  0.73562348  1
  O  O330  1  0.25772560  0.10930802  0.24482465  1
  O  O331  1  0.25578476  0.13063518  0.75546217  1
  O  O332  1  0.25756376  0.62594088  0.26034912  1
  O  O333  1  0.25210750  0.60122055  0.73741637  1
  O  O334  1  0.73358316  0.12329033  0.26371163  1
  O  O335  1  0.77565964  0.13623186  0.74985435  1
  O  O336  1  0.74424466  0.62599585  0.27221710  1
  O  O337  1  0.76051543  0.65404348  0.76929945  1
  O  O338  1  0.35979643  0.14350112  0.35080848  1
  O  O339  1  0.35059071  0.11871666  0.87557342  1
  O  O340  1  0.36151510  0.63547079  0.36895037  1
  O  O341  1  0.38265154  0.60868538  0.88234924  1
  O  O342  1  0.86024821  0.13480586  0.35831276  1
  O  O343  1  0.87727544  0.12333000  0.85576417  1
  O  O344  1  0.85452765  0.62748496  0.39493302  1
  O  O345  1  0.91989493  0.58441789  0.86620398  1
  O  O346  1  0.16497192  0.37365762  0.12803325  1
  O  O347  1  0.12224954  0.38309821  0.63107781  1
  O  O348  1  0.11626510  0.87741674  0.14058556  1
  O  O349  1  0.13088201  0.88432437  0.62655295  1
  O  O350  1  0.62317191  0.37514749  0.13145062  1
  O  O351  1  0.62323752  0.38975721  0.62308322  1
  O  O352  1  0.65217876  0.85762314  0.14999581  1
  O  O353  1  0.63135345  0.88279123  0.62880062  1
  O  O354  1  0.13921784  0.25470743  0.25656432  1
  O  O355  1  0.12946446  0.26010484  0.75533348  1
  O  O356  1  0.13475066  0.76801192  0.26403676  1
  O  O357  1  0.13017886  0.74665386  0.75375844  1
  O  O358  1  0.62105518  0.25076956  0.26724034  1
  O  O359  1  0.61805068  0.26120930  0.75818723  1
  O  O360  1  0.61257414  0.75855669  0.26557124  1
  O  O361  1  0.62273617  0.76895180  0.74522258  1
  O  O362  1  0.32263117  0.26671068  0.22480022  1
  O  O363  1  0.38092801  0.23291698  0.76555952  1
  O  O364  1  0.38712417  0.74687633  0.25817776  1
  O  O365  1  0.37081655  0.74351290  0.73359816  1
  O  O366  1  0.84953262  0.23569875  0.23807644  1
  O  O367  1  0.88426990  0.25372964  0.75082803  1
  O  O368  1  0.87129971  0.71516289  0.25379995  1
  O  O369  1  0.89535406  0.75392683  0.76510004  1
  O  O370  1  0.38970304  0.50723648  0.49754837  1
  O  O371  1  0.36322862  0.48486251  0.98631071  1
  O  O372  1  0.38771696  1.00495114  0.50417588  1
  O  O373  1  0.35636846  0.97522337  0.99028950  1
  O  O374  1  0.88782125  0.49340938  0.49696177  1
  O  O375  1  0.87571044  0.48604562  0.99082630  1
  O  O376  1  0.87058680  0.98769879  0.49914765  1
  O  O377  1  0.88802313  1.00331708  0.99266217  1
  O  O378  1  0.11579758  0.00228822  0.00280891  1
  O  O379  1  0.12156770  -0.00277880  0.50167919  1
  O  O380  1  0.14461512  0.50703433  0.00634335  1
  O  O381  1  0.11388411  0.48875805  0.51017730  1
  O  O382  1  0.61430654  0.03372664  -0.02503419  1
  O  O383  1  0.61665188  0.01248078  0.50884609  1
  O  O384  1  0.64288415  0.52866879  0.02194092  1
  O  O385  1  0.61340063  0.50805946  0.51123140  1
  O  O386  1  0.34274662  0.38044884  0.11174480  1
  O  O387  1  0.37857266  0.38743879  0.60455147  1
  O  O388  1  0.37063830  0.87054076  0.11191484  1
  O  O389  1  0.36814790  0.86723205  0.63375752  1
  O  O390  1  0.87802564  0.38034199  0.10790658  1
  O  O391  1  0.87285595  0.37923487  0.60444241  1
  O  O392  1  0.86844112  0.87455988  0.11556338  1
  O  O393  1  0.86247216  0.87953640  0.61465007  1
  O  O394  1  0.14684013  0.13625175  0.36244148  1
  O  O395  1  0.12787445  0.13291800  0.87232508  1
  O  O396  1  0.13938909  0.64357514  0.36829123  1
  O  O397  1  0.13025134  0.62623008  0.88246866  1
  O  O398  1  0.62759078  0.13170987  0.38533544  1
  O  O399  1  0.65915845  0.11993162  0.83600014  1
  O  O400  1  0.62926088  0.63479864  0.38625486  1
  O  O401  1  0.60830153  0.63187372  0.89462934  1
