# generated using pymatgen
data_V73Zn73O256
_symmetry_space_group_name_H-M   'P 1'
_cell_length_a   16.89733920
_cell_length_b   16.89704727
_cell_length_c   16.93456222
_cell_angle_alpha   90.05298986
_cell_angle_beta   90.02022395
_cell_angle_gamma   90.16558849
_symmetry_Int_Tables_number   1
_chemical_formula_structural   V73Zn73O256
_chemical_formula_sum   'V73 Zn73 O256'
_cell_volume   4835.05132271
_cell_formula_units_Z   1
loop_
 _symmetry_equiv_pos_site_id
 _symmetry_equiv_pos_as_xyz
  1  'x, y, z'
loop_
 _atom_site_type_symbol
 _atom_site_label
 _atom_site_symmetry_multiplicity
 _atom_site_fract_x
 _atom_site_fract_y
 _atom_site_fract_z
 _atom_site_occupancy
  V  V0  1  0.86695200  0.72531403  0.62927249  1
  V  V1  1  0.62055747  0.87283027  0.25211391  1
  V  V2  1  0.24513095  0.25959847  0.49077569  1
  V  V3  1  0.12358015  0.22962921  0.87719901  1
  V  V4  1  -0.00554943  0.02193292  0.01178039  1
  V  V5  1  0.25051533  0.65017175  0.88116684  1
  V  V6  1  0.63762400  0.24997409  0.38049899  1
  V  V7  1  0.87738200  0.50502451  0.86081004  1
  V  V8  1  0.37148304  0.75461028  0.62526839  1
  V  V9  1  0.74975099  0.37580391  0.12504488  1
  V  V10  1  0.51080535  0.12830621  0.10141104  1
  V  V11  1  0.75743499  0.62316490  0.87002384  1
  V  V12  1  0.62575825  0.11720872  0.49586728  1
  V  V13  1  0.10542364  0.61345466  0.50218297  1
  V  V14  1  0.25187365  0.37298611  0.12344715  1
  V  V15  1  0.75035180  0.75127151  0.00613515  1
  V  V16  1  0.11897403  0.87279934  0.25320392  1
  V  V17  1  0.00446933  0.24420920  0.24539892  1
  V  V18  1  0.20829160  0.90725910  0.64037332  1
  V  V19  1  0.73312742  0.62723567  0.36920731  1
  V  V20  1  0.25298049  0.00509736  0.25471802  1
  V  V21  1  0.49783432  0.50151567  0.00252032  1
  V  V22  1  0.00166610  0.37992858  0.87945502  1
  V  V23  1  0.74695961  0.87421487  0.13497540  1
  V  V24  1  0.87422489  0.23792165  0.12168522  1
  V  V25  1  0.48919892  0.37472926  0.37179572  1
  V  V26  1  0.50779294  0.62947419  0.65093840  1
  V  V27  1  0.49285241  0.87946559  0.38416845  1
  V  V28  1  0.48363186  0.13019052  0.61668437  1
  V  V29  1  0.49622914  0.75452910  0.24900893  1
  V  V30  1  0.37635518  0.36666301  0.00571607  1
  V  V31  1  0.01520461  0.12578624  0.62264548  1
  V  V32  1  0.87031938  0.50557328  0.34078121  1
  V  V33  1  0.51244203  0.87671833  0.85144087  1
  V  V34  1  0.87459592  0.12487756  0.25699697  1
  V  V35  1  0.12257333  0.37329494  0.25746747  1
  V  V36  1  0.11414119  0.49971463  0.11296901  1
  V  V37  1  0.62879887  0.75597287  0.86565721  1
  V  V38  1  0.62804791  0.37489233  0.24965345  1
  V  V39  1  0.51472600  0.37590120  0.87174485  1
  V  V40  1  0.74210337  0.75725180  0.49760910  1
  V  V41  1  0.40815100  0.87386313  0.00433396  1
  V  V42  1  0.36147532  0.74964987  0.12202052  1
  V  V43  1  0.25349878  0.38159615  0.64215721  1
  V  V44  1  0.36503915  0.62602240  0.26188250  1
  V  V45  1  0.49500227  0.62886113  0.12698033  1
  V  V46  1  0.62976550  0.48732333  0.64342029  1
  V  V47  1  0.12338443  0.64564570  0.00399149  1
  V  V48  1  0.25144701  0.50313445  0.25787888  1
  V  V49  1  0.24746875  0.87867653  0.11193999  1
  V  V50  1  0.09536453  0.49622042  0.63284976  1
  V  V51  1  0.62459717  0.22817205  0.86877151  1
  V  V52  1  0.87969508  -0.00321026  0.38775579  1
  V  V53  1  0.37918375  0.13112286  0.23529710  1
  V  V54  1  0.62705040  0.63010896  0.00473013  1
  V  V55  1  0.74108794  0.01064859  0.25629299  1
  V  V56  1  0.87590314  0.88309897  0.00454598  1
  V  V57  1  0.61890448  -0.01081944  0.62509164  1
  V  V58  1  -0.01256072  0.24632910  0.74704900  1
  V  V59  1  0.36628971  0.49947786  0.87195892  1
  V  V60  1  0.62874345  0.50079491  0.12949943  1
  V  V61  1  0.24427888  0.23816990  -0.00069868  1
  V  V62  1  0.13186347  0.13296709  0.47392551  1
  V  V63  1  0.37812476  0.00809647  0.38436846  1
  V  V64  1  0.12426813  0.01685936  0.11887456  1
  V  V65  1  0.74687843  0.24191094  -0.00966032  1
  V  V66  1  -0.01201913  0.37428008  0.38278438  1
  V  V67  1  0.88873396  0.74314649  0.13581360  1
  V  V68  1  0.88011385  0.38538673  0.00284881  1
  V  V69  1  -0.00251910  0.88107316  0.87420320  1
  V  V70  1  0.50876628  0.50860984  0.49598176  1
  V  V71  1  0.36478446  -0.01063397  0.86486682  1
  V  V72  1  0.38065018  0.37216083  0.52022304  1
  Zn  Zn73  1  0.03395530  -0.01839465  0.50300273  1
  Zn  Zn74  1  0.73088981  0.03897575  0.74008601  1
  Zn  Zn75  1  0.37005732  0.63042437  0.75657836  1
  Zn  Zn76  1  -0.03893182  0.68956065  0.28420024  1
  Zn  Zn77  1  0.49651555  0.25190949  0.24042050  1
  Zn  Zn78  1  0.13017682  0.37816499  0.76065290  1
  Zn  Zn79  1  0.48313052  0.24810587  0.73932551  1
  Zn  Zn80  1  -0.00352872  0.85566698  0.38184103  1
  Zn  Zn81  1  0.26021684  0.70938605  0.48508143  1
  Zn  Zn82  1  0.19155758  0.18873672  0.18865193  1
  Zn  Zn83  1  0.18366995  0.21175265  0.67833326  1
  Zn  Zn84  1  0.14299365  0.66722585  0.21355276  1
  Zn  Zn85  1  0.19800443  0.65900610  0.68001210  1
  Zn  Zn86  1  0.68203216  0.18953332  0.18327645  1
  Zn  Zn87  1  0.67090957  0.20011307  0.67468486  1
  Zn  Zn88  1  0.68751062  0.68985660  0.19334227  1
  Zn  Zn89  1  0.69039056  0.68088877  0.68444395  1
  Zn  Zn90  1  0.31082402  0.31291553  0.30898696  1
  Zn  Zn91  1  0.31739316  0.30553248  0.82187040  1
  Zn  Zn92  1  0.30726448  0.81617771  0.31386349  1
  Zn  Zn93  1  0.31745200  0.81913125  0.79981911  1
  Zn  Zn94  1  0.81438535  0.31207664  0.30878591  1
  Zn  Zn95  1  0.80852953  0.18532994  0.80458261  1
  Zn  Zn96  1  0.81420293  0.81184954  0.32103698  1
  Zn  Zn97  1  0.84317867  0.79667866  0.82563735  1
  Zn  Zn98  1  0.21923965  0.48905185  0.46441801  1
  Zn  Zn99  1  0.18865824  0.43353440  0.94082596  1
  Zn  Zn100  1  0.17865375  0.86024426  0.44630558  1
  Zn  Zn101  1  0.17533020  0.93928020  0.93194899  1
  Zn  Zn102  1  0.68638257  0.45004722  0.43050092  1
  Zn  Zn103  1  0.69527963  0.44063569  0.94216477  1
  Zn  Zn104  1  0.68567069  0.93738319  0.43431639  1
  Zn  Zn105  1  0.70079860  0.95212085  0.90512246  1
  Zn  Zn106  1  0.32227431  0.05598023  0.05506309  1
  Zn  Zn107  1  0.29415715  0.06339781  0.56177405  1
  Zn  Zn108  1  0.30483726  0.56382015  0.06423787  1
  Zn  Zn109  1  0.33006547  0.56046413  0.57019901  1
  Zn  Zn110  1  0.77089001  0.04229881  0.04881902  1
  Zn  Zn111  1  0.79948998  0.07327467  0.56464371  1
  Zn  Zn112  1  0.81542001  0.56635874  0.06815541  1
  Zn  Zn113  1  0.79825413  0.56622540  0.56256994  1
  Zn  Zn114  1  0.43544015  0.43983713  0.18826061  1
  Zn  Zn115  1  0.44946500  0.44363443  0.69181210  1
  Zn  Zn116  1  0.44045323  0.94617043  0.18205151  1
  Zn  Zn117  1  0.43873142  0.94195058  0.67326509  1
  Zn  Zn118  1  0.93929199  0.43119029  0.18311466  1
  Zn  Zn119  1  0.92264362  0.42119963  0.69607853  1
  Zn  Zn120  1  0.93574678  0.93838435  0.19094372  1
  Zn  Zn121  1  1.00247692  0.92452457  0.67698563  1
  Zn  Zn122  1  0.06224316  0.05570974  0.31381428  1
  Zn  Zn123  1  -0.06336179  0.04341144  0.81611155  1
  Zn  Zn124  1  0.06466495  0.54997606  0.32251497  1
  Zn  Zn125  1  0.07633850  0.56004126  0.82423865  1
  Zn  Zn126  1  0.55620520  0.06710871  0.31174585  1
  Zn  Zn127  1  0.54250155  0.05935048  0.80013042  1
  Zn  Zn128  1  0.55530355  0.56268787  0.31006667  1
  Zn  Zn129  1  0.57191323  0.56271812  0.82036656  1
  Zn  Zn130  1  0.43813688  0.19096461  0.43397948  1
  Zn  Zn131  1  0.42706400  0.18596739  0.91436337  1
  Zn  Zn132  1  0.44166634  0.69305516  0.43729045  1
  Zn  Zn133  1  0.44071862  0.69279897  0.93626008  1
  Zn  Zn134  1  0.94266937  0.18685162  0.43636218  1
  Zn  Zn135  1  0.93321386  0.19044187  0.93568402  1
  Zn  Zn136  1  0.92304479  0.68254454  0.45294964  1
  Zn  Zn137  1  0.94185283  0.69288114  0.94045275  1
  Zn  Zn138  1  0.06376757  0.30805144  0.06418275  1
  Zn  Zn139  1  0.06490432  0.31928103  0.56298934  1
  Zn  Zn140  1  0.06395104  0.82147305  0.06922585  1
  Zn  Zn141  1  0.07811957  0.79804994  0.56424512  1
  Zn  Zn142  1  0.56127589  0.30504660  0.05818016  1
  Zn  Zn143  1  0.56441921  0.31097381  0.56302433  1
  Zn  Zn144  1  0.58767711  0.96484402  0.06066658  1
  Zn  Zn145  1  0.56291432  0.80236640  0.56007596  1
  O  O146  1  0.12724579  0.11581272  0.12499672  1
  O  O147  1  0.11621636  0.13156274  0.63038417  1
  O  O148  1  0.13790960  0.60904023  0.11007435  1
  O  O149  1  0.11492699  0.60150317  0.62769524  1
  O  O150  1  0.61331011  0.12839968  0.11683831  1
  O  O151  1  0.61317727  0.12407846  0.60627529  1
  O  O152  1  0.61882931  0.61945496  0.12458482  1
  O  O153  1  0.61116264  0.61416102  0.63321692  1
  O  O154  1  0.38893889  0.37750522  0.36942550  1
  O  O155  1  0.38675739  0.38804261  0.88873384  1
  O  O156  1  0.38569543  0.89337084  0.36460001  1
  O  O157  1  0.40183960  0.86622632  0.88651734  1
  O  O158  1  0.87894763  0.38810559  0.36288404  1
  O  O159  1  0.88347296  0.39450121  0.88694312  1
  O  O160  1  0.88120909  0.89327200  0.37111676  1
  O  O161  1  0.86466765  0.88464818  0.90318674  1
  O  O162  1  0.26444797  0.00097093  0.35519596  1
  O  O163  1  0.26603420  -0.03729888  0.87104470  1
  O  O164  1  0.24911519  0.48343936  0.35452100  1
  O  O165  1  0.26602634  0.49272970  0.87911444  1
  O  O166  1  0.76092274  -0.00511103  0.36012976  1
  O  O167  1  0.77188837  -0.01875523  0.82533196  1
  O  O168  1  0.76335914  0.51098835  0.36821950  1
  O  O169  1  0.76872183  0.50919997  0.88904948  1
  O  O170  1  0.24290641  0.48651052  0.12960572  1
  O  O171  1  0.26647965  0.48183850  0.63524760  1
  O  O172  1  0.23995401  0.99852607  0.12295157  1
  O  O173  1  0.23442785  1.00651683  0.63738291  1
  O  O174  1  0.73725741  0.49017106  0.11574383  1
  O  O175  1  0.72852911  0.50480268  0.62631533  1
  O  O176  1  0.76375691  0.98569746  0.15078526  1
  O  O177  1  0.72653592  1.00621895  0.62118597  1
  O  O178  1  0.00469775  0.36234069  0.24990763  1
  O  O179  1  -0.00034161  0.36234577  0.76436151  1
  O  O180  1  0.01453390  0.88353887  0.25590923  1
  O  O181  1  -0.03563534  0.93387028  0.78254848  1
  O  O182  1  0.50627801  0.37793917  0.25771314  1
  O  O183  1  0.49452978  0.37044595  0.77094026  1
  O  O184  1  0.50333553  0.87203971  0.24705651  1
  O  O185  1  0.50611714  0.87125740  0.75476952  1
  O  O186  1  0.48965104  0.12612096  0.23827525  1
  O  O187  1  0.49573679  0.12683349  0.72381683  1
  O  O188  1  0.48719718  0.63181433  0.24681559  1
  O  O189  1  0.50251357  0.62737718  0.75300473  1
  O  O190  1  0.99295915  0.13795501  0.25334506  1
  O  O191  1  0.98868701  0.13303104  0.73059958  1
  O  O192  1  1.04047237  0.62533595  0.24433854  1
  O  O193  1  1.02938579  0.66461711  0.76396056  1
  O  O194  1  0.35934399  0.26178329  -0.01234828  1
  O  O195  1  0.36818801  0.26834754  0.49278658  1
  O  O196  1  0.38593761  0.76430184  0.01055362  1
  O  O197  1  0.37484120  0.72872897  0.51833654  1
  O  O198  1  0.86556220  0.26130536  0.00322476  1
  O  O199  1  0.88063267  0.20875253  0.53450204  1
  O  O200  1  0.86875438  0.75979174  0.01191890  1
  O  O201  1  0.85901508  0.74939766  0.51761951  1
  O  O202  1  0.13910585  0.25545380  0.50070575  1
  O  O203  1  0.13302668  0.25018253  0.99153642  1
  O  O204  1  0.13908001  0.71369743  0.51942081  1
  O  O205  1  0.13062987  0.74426480  1.01558069  1
  O  O206  1  0.62645782  0.25744499  0.48234123  1
  O  O207  1  0.64220038  0.25705283  0.98990877  1
  O  O208  1  0.64166237  0.74030001  0.50670243  1
  O  O209  1  0.64290128  0.74641939  0.99388220  1
  O  O210  1  0.49938781  0.23837418  0.12499904  1
  O  O211  1  0.49979338  0.24068632  0.62521649  1
  O  O212  1  0.48244032  0.74405556  0.13941314  1
  O  O213  1  0.49728482  0.73019600  0.62128654  1
  O  O214  1  0.98833692  0.25398071  0.13596977  1
  O  O215  1  1.00985700  0.25221096  0.64290893  1
  O  O216  1  0.98791045  0.75643593  0.12566939  1
  O  O217  1  0.97872875  0.76388105  0.62252051  1
  O  O218  1  -0.01581535  0.26301494  0.35632136  1
  O  O219  1  0.00938099  0.25381679  0.86893356  1
  O  O220  1  -0.02013402  0.74542545  0.37864677  1
  O  O221  1  -0.03488219  0.78136446  0.86381169  1
  O  O222  1  0.50751352  0.26664964  0.36807635  1
  O  O223  1  0.52285185  0.26884256  0.89572456  1
  O  O224  1  0.48586576  0.76701900  0.35892365  1
  O  O225  1  0.52181223  0.75799743  0.88089024  1
  O  O226  1  0.24297982  0.15039054  0.49923185  1
  O  O227  1  0.25735052  0.14052675  1.00723045  1
  O  O228  1  0.24864236  0.59521498  0.50339761  1
  O  O229  1  0.24443376  0.62442254  0.98905944  1
  O  O230  1  0.72514741  0.13390878  0.49805192  1
  O  O231  1  0.76153438  0.14531118  1.00306862  1
  O  O232  1  0.76042917  0.62762353  0.47635846  1
  O  O233  1  0.74679633  0.63329609  0.99875787  1
  O  O234  1  0.25831327  0.36959739  0.00766442  1
  O  O235  1  0.26955890  0.38189985  0.51052342  1
  O  O236  1  0.23518998  0.87672583  0.01330666  1
  O  O237  1  0.23152348  0.87067321  0.54828847  1
  O  O238  1  0.75904625  0.36809661  0.00785606  1
  O  O239  1  0.78377212  0.40604457  0.49625003  1
  O  O240  1  0.76224320  0.86784794  0.01720971  1
  O  O241  1  0.74497873  0.85863212  0.48921080  1
  O  O242  1  0.13752298  0.48980558  0.23802119  1
  O  O243  1  0.11765218  0.49473182  0.73967947  1
  O  O244  1  0.13765728  1.00568271  0.23742790  1
  O  O245  1  0.23682699  1.08653677  0.77619951  1
  O  O246  1  0.61667629  0.49021421  0.23712634  1
  O  O247  1  0.61946199  0.49599223  0.74437705  1
  O  O248  1  0.63723936  0.99888123  0.25674371  1
  O  O249  1  0.61772386  1.00357967  0.72995625  1
  O  O250  1  0.36594175  0.01048226  0.24552488  1
  O  O251  1  0.38266955  -0.01791354  0.76494012  1
  O  O252  1  0.35992119  0.50985981  0.24107264  1
  O  O253  1  0.38560277  0.50232555  0.77147277  1
  O  O254  1  0.87258804  0.01065900  0.25972636  1
  O  O255  1  0.80325573  -0.10473016  0.68434582  1
  O  O256  1  0.87043500  0.50176957  0.24142285  1
  O  O257  1  0.86886659  0.49880360  0.76292478  1
  O  O258  1  0.10354087  0.38240180  0.35853357  1
  O  O259  1  0.11217092  0.37754593  0.87803618  1
  O  O260  1  0.13659698  0.90264950  0.34823480  1
  O  O261  1  0.09684418  0.87657951  0.87328211  1
  O  O262  1  0.62407690  0.37079943  0.36504045  1
  O  O263  1  0.61463487  0.39004176  0.87853184  1
  O  O264  1  0.60606491  0.88497896  0.36101070  1
  O  O265  1  0.62421083  0.86544268  0.87527240  1
  O  O266  1  0.38423943  0.12068924  0.13081190  1
  O  O267  1  0.38456280  0.12158546  0.60561371  1
  O  O268  1  0.37482911  0.63265005  0.13020892  1
  O  O269  1  0.39661166  0.61858202  0.63929329  1
  O  O270  1  0.86582365  0.13643198  0.13601099  1
  O  O271  1  0.89169709  0.14936188  0.58827638  1
  O  O272  1  0.87363044  0.64384925  0.12318949  1
  O  O273  1  0.87696240  0.62492488  0.62265131  1
  O  O274  1  0.23992656  0.26218739  0.11139825  1
  O  O275  1  0.25127299  0.27343051  0.61036196  1
  O  O276  1  0.26086880  0.76239616  0.13038241  1
  O  O277  1  0.26956149  0.72787256  0.62617309  1
  O  O278  1  0.75284995  0.25831669  0.11417943  1
  O  O279  1  0.74153447  0.28462139  0.61312339  1
  O  O280  1  0.75478315  0.75759254  0.12335968  1
  O  O281  1  0.75576630  0.73764252  0.61240929  1
  O  O282  1  0.24718589  0.27076404  0.39129463  1
  O  O283  1  0.23374131  0.25390756  0.88847986  1
  O  O284  1  0.24474831  0.77987722  0.39787317  1
  O  O285  1  0.26340791  0.74857358  0.87960704  1
  O  O286  1  0.73707128  0.25289225  0.36769020  1
  O  O287  1  0.73747407  0.24584238  0.88024595  1
  O  O288  1  0.75378031  0.73861909  0.38508331  1
  O  O289  1  0.75139583  0.74510963  0.88695341  1
  O  O290  1  -0.01116920  0.12043801  0.01063619  1
  O  O291  1  0.02576155  0.14803198  0.50861477  1
  O  O292  1  0.02338271  0.63240995  -0.00988270  1
  O  O293  1  0.00577093  0.61967873  0.50501276  1
  O  O294  1  0.49116384  0.13710426  0.00372367  1
  O  O295  1  0.50987478  0.13749479  0.50440553  1
  O  O296  1  0.50501094  0.61948167  0.00629934  1
  O  O297  1  0.50092308  0.60800942  0.49000539  1
  O  O298  1  0.49151962  0.37375532  0.48832593  1
  O  O299  1  0.49523820  0.38440909  0.99842052  1
  O  O300  1  0.50100138  0.86529254  0.48089087  1
  O  O301  1  0.50617107  0.88124770  1.01131439  1
  O  O302  1  0.99532286  0.36091362  0.48097748  1
  O  O303  1  0.99103618  0.36245474  0.98984501  1
  O  O304  1  1.05811655  0.87296325  0.47897628  1
  O  O305  1  0.98661036  0.87472049  0.99642380  1
  O  O306  1  0.50971834  0.48506238  0.38521383  1
  O  O307  1  0.49656793  0.49550560  0.88864918  1
  O  O308  1  0.48958037  0.99223083  0.37244825  1
  O  O309  1  0.50323025  0.97883821  0.87286416  1
  O  O310  1  0.98183629  0.48311183  0.36674900  1
  O  O311  1  0.98964853  0.49533817  0.86973652  1
  O  O312  1  0.98878880  1.00674882  0.38965261  1
  O  O313  1  0.99543165  0.99580150  0.91042059  1
  O  O314  1  0.01286304  -0.00122730  0.12217804  1
  O  O315  1  -0.00551455  0.02216178  0.60864546  1
  O  O316  1  0.01585785  0.49410599  0.12711767  1
  O  O317  1  -0.00304918  0.47793880  0.62840165  1
  O  O318  1  0.50266354  0.01621037  0.11686766  1
  O  O319  1  0.50805290  0.01454000  0.61536294  1
  O  O320  1  0.50560737  0.50613775  0.11861096  1
  O  O321  1  0.50853678  0.51171240  0.61807047  1
  O  O322  1  0.24342594  0.37715685  0.24023751  1
  O  O323  1  0.25514257  0.36285775  0.74455217  1
  O  O324  1  0.25085186  0.89419384  0.23464852  1
  O  O325  1  0.24861212  0.86589071  0.72392447  1
  O  O326  1  0.74048244  0.37002852  0.23471698  1
  O  O327  1  0.78195740  0.33176594  0.66092533  1
  O  O328  1  0.73904017  0.87565858  0.25175946  1
  O  O329  1  0.76671110  0.88237188  0.74667008  1
  O  O330  1  0.26362960  0.11578805  0.23974249  1
  O  O331  1  0.27118457  0.14200342  0.74254006  1
  O  O332  1  0.24736943  0.60935849  0.24768982  1
  O  O333  1  0.25026375  0.62517875  0.77682321  1
  O  O334  1  0.75292303  0.11516573  0.24651641  1
  O  O335  1  0.76081814  0.14332824  0.71302516  1
  O  O336  1  0.75111419  0.63518042  0.26762894  1
  O  O337  1  0.74634597  0.62489866  0.77198663  1
  O  O338  1  0.38660245  0.11333716  0.35844207  1
  O  O339  1  0.37244607  0.08644010  0.88857920  1
  O  O340  1  0.37420741  0.63135117  0.36011178  1
  O  O341  1  0.36775330  0.61566672  0.88388209  1
  O  O342  1  0.87676006  0.12010276  0.36374038  1
  O  O343  1  0.87694949  0.12171710  0.86658876  1
  O  O344  1  0.88723070  0.60542980  0.36370893  1
  O  O345  1  0.87402396  0.61318777  0.88499621  1
  O  O346  1  0.13037050  0.38164996  0.13086000  1
  O  O347  1  0.13984260  0.38522741  0.63165973  1
  O  O348  1  0.13116334  0.89016165  0.13552749  1
  O  O349  1  0.10309996  0.88328986  0.64570782  1
  O  O350  1  0.62919542  0.38028279  0.12881028  1
  O  O351  1  0.61153251  0.38741984  0.63074797  1
  O  O352  1  0.63761038  0.88398635  0.13972779  1
  O  O353  1  0.61075677  0.89026310  0.61454678  1
  O  O354  1  0.11161321  0.25532569  0.24188025  1
  O  O355  1  0.12072964  0.25348894  0.76707101  1
  O  O356  1  0.13789305  0.77468600  0.24832494  1
  O  O357  1  0.08165553  0.71528829  0.74573525  1
  O  O358  1  0.62123712  0.26133299  0.25645667  1
  O  O359  1  0.61601738  0.24764432  0.76821830  1
  O  O360  1  0.60846173  0.76080521  0.24415893  1
  O  O361  1  0.63957947  0.74761562  0.76811860  1
  O  O362  1  0.37206407  0.23456536  0.25192471  1
  O  O363  1  0.39722159  0.23116228  0.81066303  1
  O  O364  1  0.37323555  0.74480630  0.24301445  1
  O  O365  1  0.38088223  0.74536360  0.73571487  1
  O  O366  1  0.87934836  0.24306736  0.24066615  1
  O  O367  1  0.88993782  0.25762506  0.75645990  1
  O  O368  1  0.87550781  0.75490207  0.23974568  1
  O  O369  1  0.85916752  0.74451338  0.72948227  1
  O  O370  1  0.39631661  0.48146329  0.50696370  1
  O  O371  1  0.38401092  0.49451047  0.99768482  1
  O  O372  1  0.36145795  1.00991057  0.48096089  1
  O  O373  1  0.37180903  0.97164053  0.99223628  1
  O  O374  1  0.83909370  0.45775835  0.50576454  1
  O  O375  1  0.87887147  0.48627980  1.01592207  1
  O  O376  1  0.86065993  1.01127401  0.48459301  1
  O  O377  1  0.88278392  0.98971650  1.02528331  1
  O  O378  1  0.11127256  0.00122941  0.01191599  1
  O  O379  1  0.13818430  0.03479637  0.49409215  1
  O  O380  1  0.12492265  0.49578643  0.01163714  1
  O  O381  1  0.11954074  0.49597899  0.52557133  1
  O  O382  1  0.67427373  -0.00037580  0.00040648  1
  O  O383  1  0.62266119  0.01199222  0.49757706  1
  O  O384  1  0.61673247  0.50716649  0.00974148  1
  O  O385  1  0.61158551  0.48921873  0.50897683  1
  O  O386  1  0.36718356  0.37826687  0.11657409  1
  O  O387  1  0.37886088  0.37157333  0.62429524  1
  O  O388  1  0.37119477  0.87228467  0.11355825  1
  O  O389  1  0.38699933  0.85454895  0.62085766  1
  O  O390  1  0.86629883  0.36272895  0.12150646  1
  O  O391  1  0.85039195  0.35729264  0.62843682  1
  O  O392  1  0.86792536  0.86541529  0.12561626  1
  O  O393  1  0.93590520  0.83653789  0.62439817  1
  O  O394  1  0.12134219  0.13637754  0.37471499  1
  O  O395  1  0.12019224  0.13412328  0.87698909  1
  O  O396  1  0.12779936  0.59605121  0.40398203  1
  O  O397  1  0.14125187  0.62876061  0.89006010  1
  O  O398  1  0.61315479  0.14208698  0.38085470  1
  O  O399  1  0.61005960  0.13030323  0.87283940  1
  O  O400  1  0.63283101  0.61691449  0.37283530  1
  O  O401  1  0.63493659  0.63556227  0.88647281  1
