# generated using pymatgen
data_V73Zn73O256
_symmetry_space_group_name_H-M   'P 1'
_cell_length_a   16.99752808
_cell_length_b   16.88994964
_cell_length_c   16.93976466
_cell_angle_alpha   90.28296174
_cell_angle_beta   90.17581835
_cell_angle_gamma   89.82593979
_symmetry_Int_Tables_number   1
_chemical_formula_structural   V73Zn73O256
_chemical_formula_sum   'V73 Zn73 O256'
_cell_volume   4863.08845569
_cell_formula_units_Z   1
loop_
 _symmetry_equiv_pos_site_id
 _symmetry_equiv_pos_as_xyz
  1  'x, y, z'
loop_
 _atom_site_type_symbol
 _atom_site_label
 _atom_site_symmetry_multiplicity
 _atom_site_fract_x
 _atom_site_fract_y
 _atom_site_fract_z
 _atom_site_occupancy
  V  V0  1  0.87899789  0.25701215  0.61737855  1
  V  V1  1  0.62875529  0.25566928  0.84987737  1
  V  V2  1  0.01148446  0.37134771  0.37348498  1
  V  V3  1  0.38048598  -0.00186641  0.88622342  1
  V  V4  1  0.13398570  0.23054211  0.91359404  1
  V  V5  1  0.88763595  0.63093850  0.74818998  1
  V  V6  1  0.62824096  0.50592789  0.12820606  1
  V  V7  1  0.11915400  0.90412167  0.75194511  1
  V  V8  1  0.61969920  0.51142586  0.63199699  1
  V  V9  1  0.25373242  0.35919431  0.62362798  1
  V  V10  1  0.73876423  0.63224176  0.38203713  1
  V  V11  1  0.34090768  0.49968934  0.37734722  1
  V  V12  1  0.63883177  0.89029952  0.74056980  1
  V  V13  1  0.11935504  0.87539373  0.26109019  1
  V  V14  1  0.49588671  0.48966600  -0.01589288  1
  V  V15  1  0.86022142  0.49202452  0.38311742  1
  V  V16  1  0.37978712  0.14693022  0.25768396  1
  V  V17  1  0.24496878  0.00702046  0.26760750  1
  V  V18  1  0.37653868  0.87673750  0.50716495  1
  V  V19  1  0.75799533  0.49771037  0.74664767  1
  V  V20  1  0.37044098  0.73417797  0.63095607  1
  V  V21  1  0.50168139  0.74740483  0.73917517  1
  V  V22  1  0.73321801  0.12647355  0.38387998  1
  V  V23  1  0.87073929  0.87869283  0.49864050  1
  V  V24  1  0.25125150  0.25174877  0.48314342  1
  V  V25  1  0.62847763  0.87442417  0.25536977  1
  V  V26  1  0.76290397  0.62932468  0.87160271  1
  V  V27  1  0.11699463  0.14097302  0.47984247  1
  V  V28  1  0.00773122  0.25217402  0.25252688  1
  V  V29  1  0.00198488  0.12682189  0.62570591  1
  V  V30  1  0.12111723  0.49029655  0.63931338  1
  V  V31  1  0.86853395  -0.00321992  0.36270879  1
  V  V32  1  0.88371855  0.76118947  0.62959101  1
  V  V33  1  0.22662707  0.36185018  0.12029374  1
  V  V34  1  0.73422158  0.25534639  0.50082964  1
  V  V35  1  0.10975697  0.75298850  0.85960612  1
  V  V36  1  0.39899676  0.25775816  0.10500013  1
  V  V37  1  0.23079005  0.51404614  0.22704624  1
  V  V38  1  0.74233476  0.75630954  0.50607144  1
  V  V39  1  0.49949900  0.74483873  0.28988155  1
  V  V40  1  0.75669930  0.75437906  0.01345993  1
  V  V41  1  0.63171114  0.75437303  0.86905463  1
  V  V42  1  -0.00509314  0.49599531  0.50208872  1
  V  V43  1  0.85905963  0.13713819  0.25700836  1
  V  V44  1  0.86829021  0.25588801  0.12456903  1
  V  V45  1  0.27055981  0.63771632  0.86934158  1
  V  V46  1  -0.00585248  0.11208347  0.12385145  1
  V  V47  1  0.00143835  -0.00146829  0.49503449  1
  V  V48  1  0.26256696  0.87176309  0.12373450  1
  V  V49  1  0.36292580  0.11995081  0.73793604  1
  V  V50  1  0.27086882  0.48479273  0.75840675  1
  V  V51  1  0.75049901  0.26043377  -0.01082574  1
  V  V52  1  0.50469639  0.00254688  0.51035873  1
  V  V53  1  0.87483092  0.75626906  0.13542199  1
  V  V54  1  0.87147898  0.61842039  0.25706069  1
  V  V55  1  0.11384749  0.62162261  -0.01016102  1
  V  V56  1  0.12305567  0.75088344  0.37946595  1
  V  V57  1  0.50117222  0.14517778  0.63000845  1
  V  V58  1  0.87586360  0.12119716  0.75455828  1
  V  V59  1  -0.00435097  0.75483394  0.25969981  1
  V  V60  1  0.12527440  -0.00194317  0.11943405  1
  V  V61  1  0.75283234  0.38484624  0.13185968  1
  V  V62  1  0.38704689  -0.00266656  0.37372581  1
  V  V63  1  0.62711669  0.61939644  -0.00363122  1
  V  V64  1  0.74381445  0.37676691  0.62485409  1
  V  V65  1  0.26487579  0.12214892  0.92519902  1
  V  V66  1  0.50548833  0.88583073  0.88040224  1
  V  V67  1  0.62950234  0.11193934  0.00484039  1
  V  V68  1  0.24715530  0.74771024  0.50241802  1
  V  V69  1  0.76177340  0.11084769  0.87478231  1
  V  V70  1  0.88539030  0.49509720  0.88922911  1
  V  V71  1  0.12689241  0.62165682  0.49804935  1
  V  V72  1  0.48506307  0.50077645  0.49143565  1
  Zn  Zn73  1  0.00795715  0.63367692  0.62951564  1
  Zn  Zn74  1  0.01613105  0.36487335  0.86682274  1
  Zn  Zn75  1  0.59294912  0.36922797  0.25399493  1
  Zn  Zn76  1  0.64336634  0.00342181  0.61202458  1
  Zn  Zn77  1  0.58692840  0.24410849  0.35563909  1
  Zn  Zn78  1  0.36296628  0.63877547  0.26393832  1
  Zn  Zn79  1  0.60673322  0.63522134  0.50549566  1
  Zn  Zn80  1  0.01017573  0.61457611  0.11560777  1
  Zn  Zn81  1  0.25071629  0.91583817  0.64478834  1
  Zn  Zn82  1  0.18886098  0.17997360  0.17960647  1
  Zn  Zn83  1  0.19245410  0.16424235  0.67089858  1
  Zn  Zn84  1  0.18473123  0.69021570  0.17931118  1
  Zn  Zn85  1  0.19276521  0.67491697  0.69414889  1
  Zn  Zn86  1  0.67605865  0.19306891  0.18271320  1
  Zn  Zn87  1  0.69938410  0.16297492  0.67420602  1
  Zn  Zn88  1  0.68118123  0.68655712  0.19636372  1
  Zn  Zn89  1  0.69615823  0.69286105  0.68607457  1
  Zn  Zn90  1  0.29206259  0.33172273  0.30903038  1
  Zn  Zn91  1  0.25004419  0.27366313  0.79163063  1
  Zn  Zn92  1  0.30693131  0.81745271  0.31699258  1
  Zn  Zn93  1  0.31103038  0.82507762  0.80697165  1
  Zn  Zn94  1  0.75330248  0.33499730  0.33083370  1
  Zn  Zn95  1  0.85555513  0.32559647  0.79339246  1
  Zn  Zn96  1  0.79914206  0.81388655  0.31250033  1
  Zn  Zn97  1  0.81634029  0.81888201  0.81054280  1
  Zn  Zn98  1  0.17872099  0.43065910  0.44432113  1
  Zn  Zn99  1  0.18141991  0.42598375  0.93495257  1
  Zn  Zn100  1  0.20222960  0.95401321  0.46909868  1
  Zn  Zn101  1  0.19038739  0.93448867  0.93389134  1
  Zn  Zn102  1  0.67067625  0.44044788  0.44489915  1
  Zn  Zn103  1  0.69547257  0.43370684  0.92312454  1
  Zn  Zn104  1  0.67987709  0.93756767  0.42089210  1
  Zn  Zn105  1  0.70435811  0.93616156  0.93840445  1
  Zn  Zn106  1  0.44564499  0.06887245  0.07613875  1
  Zn  Zn107  1  0.31372507  0.07735372  0.55399636  1
  Zn  Zn108  1  0.28982898  0.51421880  0.02135296  1
  Zn  Zn109  1  0.30674765  0.55678627  0.56885329  1
  Zn  Zn110  1  0.78411663  0.07110693  0.08095790  1
  Zn  Zn111  1  0.81611590  0.06703345  0.55809880  1
  Zn  Zn112  1  0.81612931  0.56877961  0.06290587  1
  Zn  Zn113  1  0.81413870  0.57043145  0.56510680  1
  Zn  Zn114  1  0.40603413  0.42437242  0.20574170  1
  Zn  Zn115  1  0.44186597  0.42638554  0.65780083  1
  Zn  Zn116  1  0.46782702  0.89736735  0.16809612  1
  Zn  Zn117  1  0.43989665  0.93725665  0.69592417  1
  Zn  Zn118  1  0.93687384  0.43876758  0.19111830  1
  Zn  Zn119  1  0.94259456  0.43502250  0.69470086  1
  Zn  Zn120  1  0.92894704  0.93405635  0.06447391  1
  Zn  Zn121  1  0.94524477  0.94240080  0.68652501  1
  Zn  Zn122  1  0.05004660  0.06106785  0.30997852  1
  Zn  Zn123  1  0.09636085  0.11320554  0.80154499  1
  Zn  Zn124  1  0.05515128  0.56164649  0.31700807  1
  Zn  Zn125  1  0.06131576  0.56286748  0.82383590  1
  Zn  Zn126  1  0.54241904  0.04507354  0.24986133  1
  Zn  Zn127  1  0.56458346  0.07586939  0.80732174  1
  Zn  Zn128  1  0.52681572  0.54099119  0.28627165  1
  Zn  Zn129  1  0.56498063  0.56091225  0.80636289  1
  Zn  Zn130  1  0.43111767  0.17849073  0.43360452  1
  Zn  Zn131  1  0.45092122  0.18676471  0.92778941  1
  Zn  Zn132  1  0.42918439  0.67514233  0.44587205  1
  Zn  Zn133  1  0.44912787  0.68396071  0.92494084  1
  Zn  Zn134  1  0.92935640  0.19216345  0.43732493  1
  Zn  Zn135  1  0.94686033  0.20503242  0.94079288  1
  Zn  Zn136  1  0.93688925  0.68536788  0.44158244  1
  Zn  Zn137  1  0.95332267  0.78299677  0.95462541  1
  Zn  Zn138  1  0.04631574  0.31542047  0.05531783  1
  Zn  Zn139  1  0.06017061  0.31451767  0.56194076  1
  Zn  Zn140  1  0.10704492  0.82391187  0.04264064  1
  Zn  Zn141  1  0.06790559  0.82325090  0.57335393  1
  Zn  Zn142  1  0.57323547  0.31840462  0.05290137  1
  Zn  Zn143  1  0.52340486  0.30404665  0.51856865  1
  Zn  Zn144  1  0.57250611  0.80978446  0.05979677  1
  Zn  Zn145  1  0.56018293  0.82270049  0.56343064  1
  O  O146  1  0.10524017  0.10924033  0.13848371  1
  O  O147  1  0.10413994  0.12935923  0.60547286  1
  O  O148  1  0.12646755  0.63942824  0.09611395  1
  O  O149  1  0.12371188  0.60934148  0.61973570  1
  O  O150  1  0.67030458  0.11040528  0.10579229  1
  O  O151  1  0.60062665  0.12054386  0.62637202  1
  O  O152  1  0.64669970  0.61801207  0.10210025  1
  O  O153  1  0.63885059  0.61528408  0.62265850  1
  O  O154  1  0.36659329  0.40094980  0.36708105  1
  O  O155  1  0.44387664  0.36337954  0.81996129  1
  O  O156  1  0.35863522  0.89004079  0.39551379  1
  O  O157  1  0.39412774  0.88561953  0.87050228  1
  O  O158  1  0.85549689  0.39252647  0.37326401  1
  O  O159  1  0.85624853  0.39796674  0.88336543  1
  O  O160  1  0.86252852  0.89026114  0.37864666  1
  O  O161  1  0.87748363  0.86574263  0.89627109  1
  O  O162  1  0.23999071  0.00051706  0.36886037  1
  O  O163  1  0.27455438  0.00409769  0.89552296  1
  O  O164  1  0.23979645  0.50023644  0.37781025  1
  O  O165  1  0.26057874  0.47352965  0.85846095  1
  O  O166  1  0.75860277  0.01711797  0.38433254  1
  O  O167  1  0.76595261  0.01192895  0.87868875  1
  O  O168  1  0.75789610  0.51648093  0.39638615  1
  O  O169  1  0.76016357  0.51354491  0.86505489  1
  O  O170  1  0.23978711  0.50763359  0.12727769  1
  O  O171  1  0.23613130  0.48835361  0.63292174  1
  O  O172  1  0.22872934  0.99228652  0.14414789  1
  O  O173  1  0.24053310  0.99602190  0.56938364  1
  O  O174  1  0.74653373  0.48906377  0.10812090  1
  O  O175  1  0.75406191  0.49600666  0.62873049  1
  O  O176  1  0.83126647  0.98117233  0.04131767  1
  O  O177  1  0.73907783  1.05445479  0.63457510  1
  O  O178  1  -0.01105060  0.36309324  0.26227644  1
  O  O179  1  -0.03325732  0.35383059  0.76653347  1
  O  O180  1  0.00677384  0.85749737  0.25381392  1
  O  O181  1  0.01793484  0.88228609  0.74785712  1
  O  O182  1  0.50632682  0.43578085  0.24503092  1
  O  O183  1  0.47938458  0.35059296  0.75743400  1
  O  O184  1  0.50152098  0.85173751  0.27122914  1
  O  O185  1  0.51622642  0.86687687  0.75724585  1
  O  O186  1  0.47992966  0.13824763  0.27281669  1
  O  O187  1  0.48869873  0.12847737  0.73600927  1
  O  O188  1  0.48199413  0.63892940  0.25517418  1
  O  O189  1  0.51134495  0.64944863  0.75403028  1
  O  O190  1  0.98328897  0.13742932  0.24920950  1
  O  O191  1  0.99534415  0.12632397  0.72953139  1
  O  O192  1  0.98006083  0.63211808  0.26230805  1
  O  O193  1  0.98997007  0.62119367  0.74848950  1
  O  O194  1  0.39062737  0.24445126  0.00626347  1
  O  O195  1  0.34787330  0.23343475  0.49638069  1
  O  O196  1  0.39222901  0.74473412  0.01236094  1
  O  O197  1  0.36940137  0.75296435  0.51487851  1
  O  O198  1  0.85579079  0.23714568  0.01691930  1
  O  O199  1  0.86104820  0.24366484  0.51314407  1
  O  O200  1  0.86563967  0.74197273  0.02106640  1
  O  O201  1  0.87257689  0.76272179  0.50654552  1
  O  O202  1  0.11783494  0.24402614  0.49224022  1
  O  O203  1  0.12409446  0.23191630  1.01167935  1
  O  O204  1  0.12764235  0.74437095  0.50105556  1
  O  O205  1  0.13417581  0.74007674  0.96986422  1
  O  O206  1  0.63611646  0.25430767  0.50547902  1
  O  O207  1  0.64335846  0.23944996  0.99943260  1
  O  O208  1  0.63974126  0.75188526  0.51613626  1
  O  O209  1  0.63833098  0.74027980  0.99180923  1
  O  O210  1  0.49707405  0.26720305  0.12258299  1
  O  O211  1  0.49709559  0.24356898  0.61454974  1
  O  O212  1  0.47821862  0.75240603  0.11570945  1
  O  O213  1  0.49159769  0.75544288  0.63261400  1
  O  O214  1  0.98569333  0.24542769  0.14067009  1
  O  O215  1  0.98616066  0.24272360  0.61220954  1
  O  O216  1  0.97900736  0.72995991  0.14329309  1
  O  O217  1  0.98688448  0.75162058  0.61615312  1
  O  O218  1  -0.01176328  0.26302981  0.36629605  1
  O  O219  1  0.04226363  0.19351232  0.87580495  1
  O  O220  1  0.01038228  0.74521069  0.37352514  1
  O  O221  1  0.00982683  0.74956446  0.86249540  1
  O  O222  1  0.49814718  0.26449719  0.41629566  1
  O  O223  1  0.53081478  0.23387681  0.86696396  1
  O  O224  1  0.50805430  0.73706422  0.39048826  1
  O  O225  1  0.51406453  0.76099489  0.86268048  1
  O  O226  1  0.22488187  0.14083421  0.49781619  1
  O  O227  1  0.27385614  0.11823027  1.02020281  1
  O  O228  1  0.23707623  0.63386403  0.51195170  1
  O  O229  1  0.24880909  0.60956319  0.96797140  1
  O  O230  1  0.74675589  0.13705051  0.48966454  1
  O  O231  1  0.75123097  0.13507441  0.98364297  1
  O  O232  1  0.75543101  0.64232439  0.49609271  1
  O  O233  1  0.74944354  0.63529427  0.98653068  1
  O  O234  1  0.25240016  0.39812477  0.02309360  1
  O  O235  1  0.23685180  0.36133376  0.51166233  1
  O  O236  1  0.22735129  0.87361960  0.02589902  1
  O  O237  1  0.25391171  0.85347413  0.50654520  1
  O  O238  1  0.74616104  0.36349532  0.00518659  1
  O  O239  1  0.74677689  0.36445640  0.50929400  1
  O  O240  1  0.74420106  0.85237719  0.00203108  1
  O  O241  1  0.75859071  0.86595269  0.49557698  1
  O  O242  1  0.13229703  0.51510243  0.25025911  1
  O  O243  1  0.11808291  0.49822605  0.73914150  1
  O  O244  1  0.12616361  0.99349008  0.25657581  1
  O  O245  1  0.11671400  1.00357091  0.76735811  1
  O  O246  1  0.63173698  0.52666791  0.22552821  1
  O  O247  1  0.65123549  0.51436296  0.74450191  1
  O  O248  1  0.62950271  0.97896483  0.26092177  1
  O  O249  1  0.62397051  0.99056553  0.75212165  1
  O  O250  1  0.35560595  -0.00609315  0.26914005  1
  O  O251  1  0.38910480  0.00987661  0.77112573  1
  O  O252  1  0.34542248  0.50893894  0.26116873  1
  O  O253  1  0.36674130  0.48489800  0.73565849  1
  O  O254  1  0.87030321  0.01562135  0.26383322  1
  O  O255  1  0.88239311  0.02141799  0.74253907  1
  O  O256  1  0.87177719  0.51164427  0.26972493  1
  O  O257  1  0.87098020  0.51395219  0.75186790  1
  O  O258  1  0.10867340  0.37594805  0.36840855  1
  O  O259  1  0.13025354  0.33637292  0.88558570  1
  O  O260  1  0.12702471  0.86300571  0.36850090  1
  O  O261  1  0.13070339  0.86427228  0.86267987  1
  O  O262  1  0.64679134  0.36976118  0.36210657  1
  O  O263  1  0.63636730  0.35682098  0.86448447  1
  O  O264  1  0.63155636  0.85856511  0.35994056  1
  O  O265  1  0.62641642  0.86876592  0.86580986  1
  O  O266  1  0.38336725  0.15364751  0.14646281  1
  O  O267  1  0.38831499  0.11781026  0.63049574  1
  O  O268  1  0.41346695  0.71867707  0.08389499  1
  O  O269  1  0.37472541  0.63512871  0.62749675  1
  O  O270  1  0.87277686  0.12997859  0.14367131  1
  O  O271  1  0.88591697  0.13445234  0.62697488  1
  O  O272  1  0.85913663  0.62691320  0.15256774  1
  O  O273  1  0.88136128  0.63932384  0.63180036  1
  O  O274  1  0.24619198  0.26032777  0.12595881  1
  O  O275  1  0.23532732  0.25722744  0.61542605  1
  O  O276  1  0.25214282  0.77356700  0.14522396  1
  O  O277  1  0.26445905  0.74402158  0.62673456  1
  O  O278  1  0.75293692  0.26548370  0.12025722  1
  O  O279  1  0.75400304  0.25475694  0.61462353  1
  O  O280  1  0.75640258  0.73947819  0.11789217  1
  O  O281  1  0.76842939  0.74942705  0.61217572  1
  O  O282  1  0.23859521  0.26638004  0.38511257  1
  O  O283  1  0.24938405  0.22921802  0.90231571  1
  O  O284  1  0.23464828  0.74813203  0.38883271  1
  O  O285  1  0.25741311  0.73879597  0.86184725  1
  O  O286  1  0.75532122  0.23957922  0.39179201  1
  O  O287  1  0.75101438  0.24960497  0.88574488  1
  O  O288  1  0.75519435  0.74211862  0.39445073  1
  O  O289  1  0.74970684  0.74634410  0.88025480  1
  O  O290  1  -0.01839339  0.12749549  0.02799570  1
  O  O291  1  0.00012270  0.12211172  0.49990387  1
  O  O292  1  0.01421549  0.63415956  -0.00957166  1
  O  O293  1  0.00708816  0.61305281  0.50528198  1
  O  O294  1  0.52699710  0.12857820  0.00804858  1
  O  O295  1  0.49037587  0.10808307  0.51201134  1
  O  O296  1  0.52597225  0.62682641  -0.00948987  1
  O  O297  1  0.49480018  0.60543193  0.51422471  1
  O  O298  1  0.49026005  0.41004394  0.54592066  1
  O  O299  1  0.51148154  0.38995432  0.98982116  1
  O  O300  1  0.48518588  0.88460319  0.50277024  1
  O  O301  1  0.51661926  0.87124251  0.97799046  1
  O  O302  1  1.00041900  0.38270909  0.48444432  1
  O  O303  1  0.98135628  0.31636608  0.96508932  1
  O  O304  1  0.99025010  0.89194055  0.50416085  1
  O  O305  1  1.00180886  0.85923775  1.02189990  1
  O  O306  1  0.50789766  0.49162646  0.39612124  1
  O  O307  1  0.50672218  0.50855672  0.88362658  1
  O  O308  1  0.48639878  0.99874135  0.37828790  1
  O  O309  1  0.50752226  0.98945837  0.86915657  1
  O  O310  1  0.98666163  0.48620197  0.38001986  1
  O  O311  1  0.98769340  0.48811928  0.86901122  1
  O  O312  1  0.97682254  1.00770929  0.38464329  1
  O  O313  1  0.94478514  0.98233002  0.92567037  1
  O  O314  1  0.00071548  0.00776649  0.13133861  1
  O  O315  1  -0.01065624  0.01714009  0.60491561  1
  O  O316  1  -0.01472305  0.50831195  0.12472624  1
  O  O317  1  0.00714600  0.49416397  0.61811670  1
  O  O318  1  0.48305430  0.00959140  0.16049817  1
  O  O319  1  0.50174709  -0.00447026  0.61322060  1
  O  O320  1  0.53237235  0.50728797  0.09694173  1
  O  O321  1  0.52451838  0.50737550  0.66285603  1
  O  O322  1  0.24238220  0.39502836  0.22719838  1
  O  O323  1  0.24348293  0.37631001  0.73439981  1
  O  O324  1  0.23831042  0.88768843  0.24967529  1
  O  O325  1  0.23622538  0.88777089  0.75244320  1
  O  O326  1  0.75492911  0.38682548  0.23058362  1
  O  O327  1  0.76741431  0.39017065  0.73907075  1
  O  O328  1  0.72637079  0.84821355  0.23488139  1
  O  O329  1  0.73802590  0.87674253  0.75389339  1
  O  O330  1  0.25824112  0.11063841  0.24581878  1
  O  O331  1  0.26778213  0.09071825  0.71865124  1
  O  O332  1  0.25105289  0.62007030  0.23959779  1
  O  O333  1  0.24809308  0.59645768  0.76442633  1
  O  O334  1  0.75599907  0.13584558  0.26362446  1
  O  O335  1  0.76613497  0.12693134  0.76774657  1
  O  O336  1  0.75805307  0.63706266  0.27365526  1
  O  O337  1  0.76552839  0.62580389  0.75485307  1
  O  O338  1  0.36621880  0.10595407  0.37012253  1
  O  O339  1  0.37026058  0.11638301  0.87269642  1
  O  O340  1  0.37133702  0.60375095  0.37878776  1
  O  O341  1  0.37040378  0.62869262  0.86798466  1
  O  O342  1  0.86599018  0.12199113  0.36740253  1
  O  O343  1  0.87544009  0.13824475  0.86319507  1
  O  O344  1  0.86691202  0.61885197  0.37367457  1
  O  O345  1  0.87025155  0.62040984  0.86427922  1
  O  O346  1  0.12612404  0.36644964  0.11607609  1
  O  O347  1  0.12522584  0.38679356  0.62223904  1
  O  O348  1  0.12068228  0.88590747  0.14535203  1
  O  O349  1  0.13057260  0.88446293  0.64365223  1
  O  O350  1  0.63923698  0.38979246  0.12497756  1
  O  O351  1  0.64361622  0.39589519  0.63234612  1
  O  O352  1  0.58545271  0.87217714  0.14886301  1
  O  O353  1  0.62728025  0.88442297  0.63593204  1
  O  O354  1  0.10444084  0.24168459  0.24643335  1
  O  O355  1  0.15533308  0.21017267  0.76814897  1
  O  O356  1  0.11561735  0.75168084  0.26053477  1
  O  O357  1  0.12963943  0.74513248  0.75769943  1
  O  O358  1  0.62518111  0.25994021  0.25173546  1
  O  O359  1  0.64543331  0.23603995  0.75359653  1
  O  O360  1  0.59939754  0.74204019  0.24796863  1
  O  O361  1  0.62338257  0.76043381  0.75137561  1
  O  O362  1  0.36107051  0.24314153  0.27304729  1
  O  O363  1  0.34923717  0.21871274  0.75895605  1
  O  O364  1  0.38747588  0.75222209  0.27434434  1
  O  O365  1  0.38990863  0.76055421  0.73785291  1
  O  O366  1  0.87296790  0.24206207  0.24479976  1
  O  O367  1  0.86583420  0.23341857  0.72576407  1
  O  O368  1  0.87621469  0.74256441  0.25368220  1
  O  O369  1  0.87295566  0.74970391  0.73549076  1
  O  O370  1  0.37421701  0.50318979  0.49073692  1
  O  O371  1  0.40087862  0.51033797  1.00709559  1
  O  O372  1  0.38545907  0.99662924  0.49120155  1
  O  O373  1  0.40594671  1.01153227  0.98256582  1
  O  O374  1  0.88536543  0.50796118  0.49237660  1
  O  O375  1  0.87935637  0.51585104  0.98639889  1
  O  O376  1  0.87677456  0.99424814  0.49207316  1
  O  O377  1  0.92233629  0.93796046  0.87054027  1
  O  O378  1  0.12436208  -0.00836911  0.02148278  1
  O  O379  1  0.10154920  0.01124616  0.48404552  1
  O  O380  1  0.12282095  0.51896171  -0.02669753  1
  O  O381  1  0.11359111  0.50485883  0.50712865  1
  O  O382  1  0.63651608  0.01344805  -0.01218078  1
  O  O383  1  0.60736179  -0.01128926  0.49534629  1
  O  O384  1  0.63588321  0.51416873  -0.01313221  1
  O  O385  1  0.61231455  0.50403694  0.52078481  1
  O  O386  1  0.36260068  0.35454974  0.13091966  1
  O  O387  1  0.35206641  0.36641947  0.62081117  1
  O  O388  1  0.36033121  0.88776678  0.12512101  1
  O  O389  1  0.36895252  0.87642558  0.61802230  1
  O  O390  1  0.86572848  0.36670411  0.12706518  1
  O  O391  1  0.86856704  0.36145077  0.62466755  1
  O  O392  1  0.87485871  0.85321182  0.14238931  1
  O  O393  1  0.87888912  0.86856238  0.61750234  1
  O  O394  1  0.10976260  0.13004712  0.38126780  1
  O  O395  1  0.16280400  0.10991497  0.90521330  1
  O  O396  1  0.11745453  0.63124927  0.39210298  1
  O  O397  1  0.13127311  0.63799207  0.87173062  1
  O  O398  1  0.63621362  0.12955220  0.37026692  1
  O  O399  1  0.64712076  0.13028319  0.87922220  1
  O  O400  1  0.64057467  0.62148606  0.38867244  1
  O  O401  1  0.64078584  0.63811479  0.87557929  1
