# generated using pymatgen
data_V73Zn73O256
_symmetry_space_group_name_H-M   'P 1'
_cell_length_a   16.86657722
_cell_length_b   16.86649477
_cell_length_c   16.84809325
_cell_angle_alpha   90.24253433
_cell_angle_beta   89.85700771
_cell_angle_gamma   89.97719868
_symmetry_Int_Tables_number   1
_chemical_formula_structural   V73Zn73O256
_chemical_formula_sum   'V73 Zn73 O256'
_cell_volume   4792.88791324
_cell_formula_units_Z   1
loop_
 _symmetry_equiv_pos_site_id
 _symmetry_equiv_pos_as_xyz
  1  'x, y, z'
loop_
 _atom_site_type_symbol
 _atom_site_label
 _atom_site_symmetry_multiplicity
 _atom_site_fract_x
 _atom_site_fract_y
 _atom_site_fract_z
 _atom_site_occupancy
  V  V0  1  0.11853578  0.74636901  0.36751462  1
  V  V1  1  0.24812191  0.12876858  0.87715436  1
  V  V2  1  0.63418320  0.87500532  0.24783236  1
  V  V3  1  0.63319230  0.13588880  -0.00527952  1
  V  V4  1  0.24911811  0.74427931  0.49303374  1
  V  V5  1  0.61621272  -0.00444374  0.62873650  1
  V  V6  1  0.24565185  0.50327448  0.75736392  1
  V  V7  1  0.75145004  0.36514001  0.12375242  1
  V  V8  1  0.37079606  0.75702785  0.62182457  1
  V  V9  1  0.63200841  0.62114664  0.49494913  1
  V  V10  1  0.63387125  0.49772177  0.13092894  1
  V  V11  1  0.12641804  0.48947538  0.62640545  1
  V  V12  1  0.00128342  0.00121396  -0.00085721  1
  V  V13  1  0.49659665  0.74629289  0.24663289  1
  V  V14  1  0.50677961  0.88121137  0.37877060  1
  V  V15  1  0.88329403  0.01047308  0.85766580  1
  V  V16  1  0.62406056  0.24316858  0.37926502  1
  V  V17  1  0.37402612  0.10945624  0.24703908  1
  V  V18  1  0.50647307  0.38375093  0.36810646  1
  V  V19  1  0.37657116  0.37645024  0.00007690  1
  V  V20  1  0.36052897  -0.01077455  0.36546633  1
  V  V21  1  0.25804600  0.36312554  0.62032000  1
  V  V22  1  0.13828721  0.11665997  0.49252840  1
  V  V23  1  0.75318085  0.76178191  0.49879727  1
  V  V24  1  0.25040050  0.86403399  0.13427098  1
  V  V25  1  0.62688919  0.49374022  0.62562056  1
  V  V26  1  0.35806617  0.51548558  0.37365465  1
  V  V27  1  0.49609193  0.61834286  0.61976258  1
  V  V28  1  0.12535892  0.12456142  0.00167035  1
  V  V29  1  -0.01449401  0.87095507  0.39540517  1
  V  V30  1  0.88762758  0.37567176  -0.01606364  1
  V  V31  1  -0.00634171  0.36453313  0.37851726  1
  V  V32  1  0.12088710  0.34857750  0.25823710  1
  V  V33  1  0.37452240  0.87506118  0.49710718  1
  V  V34  1  0.50676451  0.87893841  0.87147251  1
  V  V35  1  0.75002467  0.87692685  0.65099157  1
  V  V36  1  0.75604186  0.87685043  0.12649791  1
  V  V37  1  0.62849725  0.74985294  0.87398718  1
  V  V38  1  0.25138655  0.25026770  0.01088194  1
  V  V39  1  0.11991504  0.27014357  0.87804360  1
  V  V40  1  0.00964687  0.86879139  0.86530513  1
  V  V41  1  0.49691561  0.49599989  -0.00151328  1
  V  V42  1  -0.00888882  0.75434036  0.23343057  1
  V  V43  1  0.13513122  0.87219938  0.73863661  1
  V  V44  1  0.86711220  0.00854223  0.37463184  1
  V  V45  1  0.75989857  0.37612187  0.61464670  1
  V  V46  1  0.24437837  0.00191355  0.73913118  1
  V  V47  1  0.50252553  0.13825547  0.60722893  1
  V  V48  1  0.87977034  0.87520484  0.00374919  1
  V  V49  1  0.86897786  0.51132980  0.38319116  1
  V  V50  1  -0.00184335  0.62996156  0.64216813  1
  V  V51  1  0.88329162  0.24820516  0.13103892  1
  V  V52  1  0.50523240  0.75659983  0.74683924  1
  V  V53  1  0.37679377  0.00498713  0.87681578  1
  V  V54  1  0.15503915  0.74441912  0.88485414  1
  V  V55  1  0.75322816  0.75216440  -0.00157287  1
  V  V56  1  -0.00216869  0.50217258  0.50262433  1
  V  V57  1  0.62834047  0.37793487  0.76552572  1
  V  V58  1  0.84672808  0.61805250  0.76931594  1
  V  V59  1  0.37437338  0.50893155  0.88017744  1
  V  V60  1  0.38875618  0.24375967  0.13614149  1
  V  V61  1  0.24574203  0.38916595  0.13839609  1
  V  V62  1  0.62745132  0.00811266  0.12816911  1
  V  V63  1  0.64501711  0.61002929  -0.01373573  1
  V  V64  1  0.37684894  0.13592293  0.74438918  1
  V  V65  1  0.49397535  0.62845391  0.12320964  1
  V  V66  1  0.13460679  -0.00339218  0.14137483  1
  V  V67  1  0.84978451  0.20928548  0.62862833  1
  V  V68  1  0.50414552  0.00697075  0.00472278  1
  V  V69  1  0.49671443  0.26220162  0.76789668  1
  V  V70  1  0.87471830  0.62435862  0.22576097  1
  V  V71  1  0.37032232  0.86416356  0.00302395  1
  V  V72  1  -0.00018848  0.12748148  0.14220190  1
  Zn  Zn73  1  0.12728532  0.62477927  0.50164904  1
  Zn  Zn74  1  0.37743852  0.38919472  0.50043592  1
  Zn  Zn75  1  0.37163814  0.63331106  0.76067948  1
  Zn  Zn76  1  0.74738429  0.12647839  0.35017181  1
  Zn  Zn77  1  0.75846618  0.11593481  0.88327575  1
  Zn  Zn78  1  0.88042236  0.75602075  0.63440300  1
  Zn  Zn79  1  0.74644505  0.50609170  0.26116665  1
  Zn  Zn80  1  -0.00230407  0.24697220  0.74887645  1
  Zn  Zn81  1  0.63556199  0.73744088  0.36680778  1
  Zn  Zn82  1  0.19449355  0.18048111  0.19416629  1
  Zn  Zn83  1  0.16700185  0.18977967  0.69839514  1
  Zn  Zn84  1  0.16717722  0.68986875  0.16573810  1
  Zn  Zn85  1  0.18707868  0.68559491  0.68965971  1
  Zn  Zn86  1  0.68552111  0.19138183  0.19499817  1
  Zn  Zn87  1  0.67147527  0.19628354  0.68234845  1
  Zn  Zn88  1  0.69060963  0.68630846  0.17919870  1
  Zn  Zn89  1  0.68689978  0.68804872  0.68547413  1
  Zn  Zn90  1  0.32923827  0.33047919  0.30395364  1
  Zn  Zn91  1  0.30305665  0.31874822  0.81157196  1
  Zn  Zn92  1  0.28879722  0.74449178  0.28095116  1
  Zn  Zn93  1  0.31845871  0.81768582  0.81091988  1
  Zn  Zn94  1  0.81005906  0.31980548  0.30810445  1
  Zn  Zn95  1  0.81371968  0.30649597  0.79757045  1
  Zn  Zn96  1  0.81569179  0.80632900  0.31279869  1
  Zn  Zn97  1  0.82416535  0.80765013  0.81420596  1
  Zn  Zn98  1  0.18844930  0.43527258  0.43794638  1
  Zn  Zn99  1  0.19498187  0.44657796  0.94885454  1
  Zn  Zn100  1  0.18698248  0.91796309  0.42718241  1
  Zn  Zn101  1  0.18927499  0.93974269  0.93744920  1
  Zn  Zn102  1  0.68319948  0.43352158  0.43955365  1
  Zn  Zn103  1  0.69770337  0.43400859  0.94809481  1
  Zn  Zn104  1  0.68693521  0.94516483  0.43913696  1
  Zn  Zn105  1  0.69547058  0.94309273  0.93208273  1
  Zn  Zn106  1  0.31406090  0.05959999  0.06732913  1
  Zn  Zn107  1  0.32761282  0.05999392  0.55819105  1
  Zn  Zn108  1  0.31259419  0.57294504  0.19990077  1
  Zn  Zn109  1  0.31198331  0.56155864  0.56058273  1
  Zn  Zn110  1  0.81279645  0.06446470  0.06948255  1
  Zn  Zn111  1  0.77361230  0.04454493  0.54675778  1
  Zn  Zn112  1  0.82046787  0.55650906  0.04510215  1
  Zn  Zn113  1  0.81308863  0.56273593  0.57081825  1
  Zn  Zn114  1  0.44049792  0.43850309  0.19258200  1
  Zn  Zn115  1  0.43217341  0.43628636  0.69112577  1
  Zn  Zn116  1  0.44244707  0.92861185  0.18457887  1
  Zn  Zn117  1  0.44125913  0.94531163  0.68392558  1
  Zn  Zn118  1  0.93307758  0.42876421  0.19933883  1
  Zn  Zn119  1  0.93764456  0.43902746  0.72071265  1
  Zn  Zn120  1  0.94066138  0.93767147  0.19377983  1
  Zn  Zn121  1  0.92375572  0.94242666  0.56705224  1
  Zn  Zn122  1  0.04958066  0.04744743  0.31789710  1
  Zn  Zn123  1  0.02022583  0.04796031  0.71129755  1
  Zn  Zn124  1  0.04953116  0.57057682  0.31504710  1
  Zn  Zn125  1  0.07328527  0.57155294  0.81611190  1
  Zn  Zn126  1  0.56015442  0.06808349  0.30671733  1
  Zn  Zn127  1  0.56519020  0.07072584  0.80922604  1
  Zn  Zn128  1  0.55505181  0.55937078  0.31225184  1
  Zn  Zn129  1  0.55836597  0.56333163  0.80896925  1
  Zn  Zn130  1  0.44923081  0.17645965  0.40555329  1
  Zn  Zn131  1  0.44043846  0.18969053  0.94350766  1
  Zn  Zn132  1  0.44255692  0.68624122  0.43348645  1
  Zn  Zn133  1  0.44535272  0.68618788  0.94088390  1
  Zn  Zn134  1  0.93357752  0.18208809  0.45931190  1
  Zn  Zn135  1  0.94005765  0.19642938  0.94231613  1
  Zn  Zn136  1  0.93370232  0.68710153  0.44663023  1
  Zn  Zn137  1  0.93423660  0.69148873  0.92463956  1
  Zn  Zn138  1  0.06223268  0.31927134  0.06536066  1
  Zn  Zn139  1  -0.02436896  0.33867193  0.59151074  1
  Zn  Zn140  1  0.07117016  0.81435921  0.05729008  1
  Zn  Zn141  1  0.06487603  0.80897454  0.56432709  1
  Zn  Zn142  1  0.56542564  0.31426910  0.06736123  1
  Zn  Zn143  1  0.55554987  0.30950787  0.55303879  1
  Zn  Zn144  1  0.56643870  0.81456326  0.05826014  1
  Zn  Zn145  1  0.56878704  0.80885593  0.56145414  1
  O  O146  1  0.12037119  0.11671491  0.12226842  1
  O  O147  1  0.14668395  0.12268705  0.59645423  1
  O  O148  1  0.10754044  0.62056738  0.09209130  1
  O  O149  1  0.11476039  0.61858418  0.62647330  1
  O  O150  1  0.62786898  0.11184236  0.11725389  1
  O  O151  1  0.60791612  0.12419341  0.62230112  1
  O  O152  1  0.62787614  0.61105514  0.10817223  1
  O  O153  1  0.61384290  0.61433070  0.62350140  1
  O  O154  1  0.38065640  0.39485649  0.37791136  1
  O  O155  1  0.36265762  0.38397625  0.89430990  1
  O  O156  1  0.39243659  0.87787919  0.37738616  1
  O  O157  1  0.38429886  0.88740005  0.88476564  1
  O  O158  1  0.88988641  0.39040371  0.36198496  1
  O  O159  1  0.87085080  0.35124372  0.88426705  1
  O  O160  1  0.88156672  0.87355277  0.38041940  1
  O  O161  1  0.89271029  0.88553340  0.87749532  1
  O  O162  1  0.26255598  -0.02477174  0.36091368  1
  O  O163  1  0.25883662  0.01251288  0.87222223  1
  O  O164  1  0.25663542  0.50401201  0.37396570  1
  O  O165  1  0.25456641  0.49952979  0.86503032  1
  O  O166  1  0.75943983  0.00856520  0.37462096  1
  O  O167  1  0.77617442  -0.00300188  0.86837919  1
  O  O168  1  0.76527837  0.49125296  0.37764137  1
  O  O169  1  0.70860807  0.54855559  0.93243576  1
  O  O170  1  0.25261249  0.48710489  0.13493660  1
  O  O171  1  0.24003292  0.49989372  0.63112478  1
  O  O172  1  0.23946727  0.99534306  0.12662989  1
  O  O173  1  0.26494613  1.00615018  0.64162152  1
  O  O174  1  0.73802646  0.49745791  0.11513214  1
  O  O175  1  0.73392773  0.49146230  0.62740845  1
  O  O176  1  0.73703792  0.98943776  0.11941188  1
  O  O177  1  0.74084200  0.98053735  0.64204741  1
  O  O178  1  0.01176141  0.36444351  0.26312565  1
  O  O179  1  0.00206653  0.35188859  0.70187185  1
  O  O180  1  -0.01104753  0.85598509  0.26236713  1
  O  O181  1  0.02334068  0.88269871  0.76330956  1
  O  O182  1  0.49250967  0.37060869  0.26558027  1
  O  O183  1  0.50263303  0.36835759  0.75228719  1
  O  O184  1  0.51266720  0.86272731  0.25247639  1
  O  O185  1  0.49172557  0.87043178  0.76088778  1
  O  O186  1  0.47605621  0.12947595  0.26078520  1
  O  O187  1  0.49170549  0.14276968  0.75164862  1
  O  O188  1  0.51449379  0.63668845  0.23552950  1
  O  O189  1  0.49551670  0.63682159  0.73859109  1
  O  O190  1  1.00594486  0.12047333  0.24062744  1
  O  O191  1  1.05606243  0.15434710  0.71562700  1
  O  O192  1  0.98438803  0.64129928  0.25123020  1
  O  O193  1  1.00250197  0.62326819  0.74363788  1
  O  O194  1  0.37074001  0.25539264  0.01287775  1
  O  O195  1  0.34770250  0.24357249  0.44918117  1
  O  O196  1  0.38288747  0.76575364  -0.00272619  1
  O  O197  1  0.37267582  0.75535189  0.50197062  1
  O  O198  1  0.87932144  0.25796092  0.01730129  1
  O  O199  1  0.81313200  0.20199331  0.49482211  1
  O  O200  1  0.87084339  0.76753003  -0.00951441  1
  O  O201  1  0.85515558  0.73885886  0.51505802  1
  O  O202  1  0.13858309  0.21998084  0.48331254  1
  O  O203  1  0.13266454  0.24191886  1.00163684  1
  O  O204  1  0.13476016  0.74947332  0.49435992  1
  O  O205  1  0.12944011  0.75458296  0.98305456  1
  O  O206  1  0.62893462  0.25723384  0.48092657  1
  O  O207  1  0.61862921  0.23463412  1.00513027  1
  O  O208  1  0.63356659  0.73695199  0.49648597  1
  O  O209  1  0.63342689  0.74019088  0.99239919  1
  O  O210  1  0.48686633  0.25442747  0.12615388  1
  O  O211  1  0.50021373  0.24117444  0.63274272  1
  O  O212  1  0.51219956  0.73874643  0.13064821  1
  O  O213  1  0.49581411  0.74510462  0.63118213  1
  O  O214  1  0.99845755  0.23611537  0.12634532  1
  O  O215  1  0.93473211  0.23305393  0.56825953  1
  O  O216  1  1.00751355  0.75757952  0.13440242  1
  O  O217  1  0.99953953  0.73294923  0.62317250  1
  O  O218  1  -0.01632336  0.26737626  0.39548501  1
  O  O219  1  0.01795835  0.24588517  0.86963324  1
  O  O220  1  0.00024840  0.75513984  0.37879147  1
  O  O221  1  0.00612865  0.76695695  0.87510656  1
  O  O222  1  0.51487842  0.25866409  0.36804916  1
  O  O223  1  0.49749473  0.25520658  0.86797260  1
  O  O224  1  0.51056894  0.75459215  0.35971949  1
  O  O225  1  0.50407674  0.76123186  0.86810941  1
  O  O226  1  0.24362100  0.11625184  0.48886264  1
  O  O227  1  0.24619190  0.13017816  0.99864032  1
  O  O228  1  0.25022364  0.64038594  0.50116904  1
  O  O229  1  0.15853101  0.58189897  1.04378220  1
  O  O230  1  0.75862989  0.14773463  0.47900159  1
  O  O231  1  0.73868925  0.12314138  1.00256558  1
  O  O232  1  0.73487822  0.63063438  0.51467129  1
  O  O233  1  0.75568543  0.64980987  1.02023813  1
  O  O234  1  0.25555158  0.37076650  0.01998407  1
  O  O235  1  0.25200194  0.37572589  0.51486388  1
  O  O236  1  0.26800584  0.88472444  0.00007771  1
  O  O237  1  0.26551525  0.86079319  0.49334613  1
  O  O238  1  0.76318375  0.37211834  0.01554068  1
  O  O239  1  0.74921914  0.37810563  0.51544657  1
  O  O240  1  0.76033534  0.87334204  0.00492632  1
  O  O241  1  0.74289320  0.86315309  0.50409113  1
  O  O242  1  0.08772625  0.50052936  0.22260976  1
  O  O243  1  0.13686825  0.50251244  0.74435025  1
  O  O244  1  0.12204170  1.00025458  0.24004788  1
  O  O245  1  0.13928157  0.99382406  0.74608591  1
  O  O246  1  0.62855853  0.50910247  0.23411446  1
  O  O247  1  0.61180665  0.48722936  0.73874806  1
  O  O248  1  0.61706978  0.99121225  0.23497145  1
  O  O249  1  0.62097228  1.01072892  0.73133857  1
  O  O250  1  0.37948352  -0.00046554  0.25181601  1
  O  O251  1  0.37220761  0.01093147  0.76195649  1
  O  O252  1  0.37491370  0.50211897  0.26113088  1
  O  O253  1  0.37093366  0.50360644  0.76528271  1
  O  O254  1  0.88283060  -0.00719580  0.27312900  1
  O  O255  1  0.91247553  0.01546903  0.76323386  1
  O  O256  1  0.88123019  0.51547775  0.26073078  1
  O  O257  1  0.87829006  0.51821376  0.76356885  1
  O  O258  1  0.11466608  0.38006430  0.36384070  1
  O  O259  1  0.12564565  0.36785935  0.90336054  1
  O  O260  1  0.10283407  0.85810416  0.38116527  1
  O  O261  1  0.12174383  0.87125639  0.87425925  1
  O  O262  1  0.61318663  0.37475654  0.37420946  1
  O  O263  1  0.63565857  0.38602909  0.86443949  1
  O  O264  1  0.61903517  0.87874363  0.36576373  1
  O  O265  1  0.61348880  0.86874098  0.88605468  1
  O  O266  1  0.37721043  0.13245099  0.13264453  1
  O  O267  1  0.38772425  0.12052368  0.63707931  1
  O  O268  1  0.39592105  0.62267660  0.12300226  1
  O  O269  1  0.38844318  0.63510997  0.62049748  1
  O  O270  1  0.89160882  0.13211085  0.12182104  1
  O  O271  1  0.83719665  0.11131795  0.62571929  1
  O  O272  1  0.88388653  0.61081315  0.12759953  1
  O  O273  1  0.88963931  0.61658297  0.63745960  1
  O  O274  1  0.25634901  0.24880675  0.11853911  1
  O  O275  1  0.24093357  0.26636237  0.64021766  1
  O  O276  1  0.23280175  0.76891498  0.10724015  1
  O  O277  1  0.26600634  0.74678418  0.61813021  1
  O  O278  1  0.76030364  0.26042375  0.12865354  1
  O  O279  1  0.75300989  0.26326509  0.62721465  1
  O  O280  1  0.74339315  0.76985334  0.11368847  1
  O  O281  1  0.73456999  0.76541949  0.61671318  1
  O  O282  1  0.29351271  0.25127818  0.39688950  1
  O  O283  1  0.25146522  0.24783802  0.89544241  1
  O  O284  1  0.22783295  0.75590034  0.37852327  1
  O  O285  1  0.25594543  0.75460693  0.88095298  1
  O  O286  1  0.73515240  0.25118680  0.35522173  1
  O  O287  1  0.74030690  0.22122646  0.83018514  1
  O  O288  1  0.74995511  0.75081392  0.39150799  1
  O  O289  1  0.73797635  0.76203946  0.88586002  1
  O  O290  1  0.01187333  0.11912739  0.00828192  1
  O  O291  1  0.03466667  0.11481532  0.50167395  1
  O  O292  1  -0.00259466  0.59397476  -0.03624989  1
  O  O293  1  -0.00080151  0.61321666  0.51375697  1
  O  O294  1  0.51130005  0.11385505  -0.00340477  1
  O  O295  1  0.48429029  0.13813896  0.50929542  1
  O  O296  1  0.51275016  0.61703922  0.00965907  1
  O  O297  1  0.51423124  0.63594545  0.51484172  1
  O  O298  1  0.48647427  0.36052790  0.48013358  1
  O  O299  1  0.48682474  0.38381378  1.01458202  1
  O  O300  1  0.49803062  0.86424836  0.48272858  1
  O  O301  1  0.49111796  0.88484224  0.99365507  1
  O  O302  1  1.00193889  0.39014620  0.49163686  1
  O  O303  1  0.98926395  0.37328415  1.00098048  1
  O  O304  1  0.98775629  0.86398423  0.50051658  1
  O  O305  1  0.99752266  0.88338166  0.99654191  1
  O  O306  1  0.49684884  0.48967694  0.37606159  1
  O  O307  1  0.49237150  0.50347092  0.88907591  1
  O  O308  1  0.49956027  0.98261244  0.36683293  1
  O  O309  1  0.49489383  0.99714383  0.87988221  1
  O  O310  1  0.99169475  0.49738122  0.38603571  1
  O  O311  1  1.00700045  0.53728438  0.91221241  1
  O  O312  1  0.99328135  0.97668575  0.38421476  1
  O  O313  1  0.99778358  0.99092762  0.89031599  1
  O  O314  1  0.01089345  0.00809809  0.12070123  1
  O  O315  1  0.01041147  -0.00985450  0.61734290  1
  O  O316  1  0.03314621  0.49595024  0.16651478  1
  O  O317  1  0.01331638  0.50431605  0.62426649  1
  O  O318  1  0.51418208  -0.00902933  0.11485474  1
  O  O319  1  0.50744678  0.01350774  0.61868040  1
  O  O320  1  0.50855115  0.51028440  0.12380871  1
  O  O321  1  0.50169771  0.51373776  0.62839259  1
  O  O322  1  0.23656367  0.36959361  0.24619088  1
  O  O323  1  0.25970957  0.39592958  0.73684156  1
  O  O324  1  0.26082636  0.85497906  0.23268087  1
  O  O325  1  0.24742020  0.89326657  0.75747356  1
  O  O326  1  0.76531969  0.39312596  0.22665140  1
  O  O327  1  0.73050132  0.37127944  0.73687330  1
  O  O328  1  0.74291406  0.86893764  0.24253693  1
  O  O329  1  0.74407997  0.86229784  0.74976327  1
  O  O330  1  0.27139992  0.12424685  0.25188813  1
  O  O331  1  0.25522180  0.12024380  0.75790970  1
  O  O332  1  0.24374937  0.65024192  0.23579805  1
  O  O333  1  0.25871428  0.60881301  0.74125326  1
  O  O334  1  0.75696848  0.11869674  0.23671223  1
  O  O335  1  0.74173520  0.16020156  0.76828057  1
  O  O336  1  0.76690962  0.62384801  0.24018066  1
  O  O337  1  0.74701112  0.61534315  0.74793438  1
  O  O338  1  0.37354911  0.09625446  0.36788911  1
  O  O339  1  0.36756819  0.12372015  0.87151836  1
  O  O340  1  0.37982608  0.61800565  0.36963081  1
  O  O341  1  0.37706054  0.61459974  0.88181164  1
  O  O342  1  0.89139514  0.10964421  0.38053766  1
  O  O343  1  0.88283937  0.11207856  0.88692177  1
  O  O344  1  0.87476369  0.61326021  0.37579884  1
  O  O345  1  0.85456606  0.63338151  0.87058731  1
  O  O346  1  0.13629368  0.36589533  0.14208111  1
  O  O347  1  0.13720387  0.39003577  0.62390518  1
  O  O348  1  0.13606949  0.89030506  0.12030541  1
  O  O349  1  0.13021797  0.86539112  0.63988149  1
  O  O350  1  0.63935181  0.38425059  0.12165863  1
  O  O351  1  0.62167701  0.38729902  0.62237299  1
  O  O352  1  0.63311378  0.88289404  0.12961913  1
  O  O353  1  0.62276181  0.88810031  0.62445433  1
  O  O354  1  0.12779338  0.24954792  0.25966898  1
  O  O355  1  0.15163607  0.26993225  0.78212081  1
  O  O356  1  0.10491667  0.74281908  0.26069841  1
  O  O357  1  0.14522418  0.76810918  0.76336523  1
  O  O358  1  0.62767168  0.25907732  0.26220984  1
  O  O359  1  0.60672447  0.26854520  0.74928485  1
  O  O360  1  0.62464063  0.75862503  0.24871052  1
  O  O361  1  0.61234699  0.74840630  0.75755897  1
  O  O362  1  0.36992140  0.24461817  0.23842399  1
  O  O363  1  0.38118969  0.24654975  0.75755937  1
  O  O364  1  0.39824062  0.75212014  0.24739613  1
  O  O365  1  0.38405217  0.75242721  0.74001959  1
  O  O366  1  0.87802142  0.25811668  0.23111052  1
  O  O367  1  0.88097341  0.23809958  0.72544215  1
  O  O368  1  0.87907692  0.73806913  0.24159804  1
  O  O369  1  0.86781565  0.72688043  0.74624136  1
  O  O370  1  0.37364785  0.50701573  0.48352999  1
  O  O371  1  0.38181129  0.49290394  0.99773104  1
  O  O372  1  0.37029156  0.98571698  0.48190000  1
  O  O373  1  0.38470426  1.00304704  0.99131827  1
  O  O374  1  0.88069934  0.50420749  0.49195131  1
  O  O375  1  0.87195459  0.47732101  0.98784434  1
  O  O376  1  0.86348952  0.99703180  0.48902385  1
  O  O377  1  0.88589303  0.99239089  1.00071648  1
  O  O378  1  0.12106415  0.00978346  0.00562806  1
  O  O379  1  0.14316254  0.01059215  0.49361356  1
  O  O380  1  0.12584124  0.51470630  0.01531771  1
  O  O381  1  0.12020210  0.50300658  0.51231894  1
  O  O382  1  0.62104012  0.00199864  0.00879882  1
  O  O383  1  0.65510117  0.01503017  0.52571301  1
  O  O384  1  0.60797239  0.49269414  0.01412819  1
  O  O385  1  0.62539226  0.51078090  0.51400578  1
  O  O386  1  0.36213250  0.36461994  0.12680400  1
  O  O387  1  0.36479457  0.37818522  0.61973381  1
  O  O388  1  0.36544076  0.88096457  0.11185725  1
  O  O389  1  0.38933339  0.86812099  0.61001074  1
  O  O390  1  0.87514647  0.36669336  0.11747070  1
  O  O391  1  0.85926185  0.38827082  0.62791604  1
  O  O392  1  0.86873162  0.88535728  0.11601950  1
  O  O393  1  0.85454412  0.87154423  0.63142753  1
  O  O394  1  0.13058288  0.10962241  0.38767364  1
  O  O395  1  0.14015907  0.13718913  0.88821854  1
  O  O396  1  0.11073824  0.64075110  0.38293904  1
  O  O397  1  0.13892059  0.64560469  0.86818924  1
  O  O398  1  0.62429435  0.13577765  0.37121462  1
  O  O399  1  0.63059824  0.11482034  0.89197412  1
  O  O400  1  0.62254352  0.61713555  0.39098054  1
  O  O401  1  0.60705586  0.64335797  0.87940804  1
