# generated using pymatgen
data_V73Zn73O256
_symmetry_space_group_name_H-M   'P 1'
_cell_length_a   16.92426035
_cell_length_b   16.90402449
_cell_length_c   16.89137070
_cell_angle_alpha   90.44516584
_cell_angle_beta   90.04938442
_cell_angle_gamma   89.97955474
_symmetry_Int_Tables_number   1
_chemical_formula_structural   V73Zn73O256
_chemical_formula_sum   'V73 Zn73 O256'
_cell_volume   4832.27239386
_cell_formula_units_Z   1
loop_
 _symmetry_equiv_pos_site_id
 _symmetry_equiv_pos_as_xyz
  1  'x, y, z'
loop_
 _atom_site_type_symbol
 _atom_site_label
 _atom_site_symmetry_multiplicity
 _atom_site_fract_x
 _atom_site_fract_y
 _atom_site_fract_z
 _atom_site_occupancy
  V  V0  1  0.73444522  0.75544648  -0.01368495  1
  V  V1  1  0.25098003  0.37683661  0.61962021  1
  V  V2  1  0.50424825  0.37550001  0.38085618  1
  V  V3  1  0.30813634  0.70032384  0.05120698  1
  V  V4  1  0.75766065  0.37771384  0.63281257  1
  V  V5  1  0.85922637  -0.01671242  0.86350893  1
  V  V6  1  0.37237491  0.73454496  0.63702493  1
  V  V7  1  0.11276410  0.36914099  0.75094025  1
  V  V8  1  0.87927974  0.74397099  0.60854461  1
  V  V9  1  0.37518915  -0.00159209  0.87281853  1
  V  V10  1  0.25422242  0.50426104  0.75809518  1
  V  V11  1  0.88135238  0.13712830  0.22251639  1
  V  V12  1  0.25497513  0.75160087  0.49188237  1
  V  V13  1  0.50574105  0.24340190  0.24410996  1
  V  V14  1  0.62627581  0.12419713  0.00030888  1
  V  V15  1  0.59626412  0.49231887  0.62496457  1
  V  V16  1  0.87309388  0.62811934  0.76507364  1
  V  V17  1  0.87478994  0.87696739  0.48744120  1
  V  V18  1  0.63164670  0.00755507  0.63579324  1
  V  V19  1  0.00712932  0.00419013  0.48651558  1
  V  V20  1  0.49544408  0.23988070  0.74645475  1
  V  V21  1  0.84251779  0.62669981  0.24855883  1
  V  V22  1  0.62749457  0.36911063  0.75518821  1
  V  V23  1  0.11765800  0.50557779  0.62525798  1
  V  V24  1  0.24250191  0.88181706  0.11880586  1
  V  V25  1  0.37315431  0.11710548  0.74703698  1
  V  V26  1  0.48149028  0.49970036  0.00573249  1
  V  V27  1  0.13474025  0.46386904  0.16852328  1
  V  V28  1  0.48199342  0.37426727  0.88053101  1
  V  V29  1  0.73394203  0.86494841  0.13591792  1
  V  V30  1  0.25350049  0.01493164  0.24278156  1
  V  V31  1  -0.00765793  0.49142406  0.49898675  1
  V  V32  1  0.25063223  0.12367795  0.87157998  1
  V  V33  1  0.38141130  0.49893109  0.40120198  1
  V  V34  1  0.64297184  0.49614844  0.11589193  1
  V  V35  1  0.13058825  0.74861739  0.87836210  1
  V  V36  1  0.37647419  0.24734515  0.61468694  1
  V  V37  1  0.12090551  0.00420431  0.62617956  1
  V  V38  1  0.75825040  0.24626558  0.50082822  1
  V  V39  1  0.25501463  0.26869123  -0.00328130  1
  V  V40  1  0.11354530  0.24825405  0.87425604  1
  V  V41  1  0.11838349  0.11413888  0.01042835  1
  V  V42  1  0.86967014  0.11053097  0.75161406  1
  V  V43  1  0.00131373  0.87854088  0.87008742  1
  V  V44  1  0.87733190  0.24877952  0.64399406  1
  V  V45  1  0.00579996  0.74399940  0.73576904  1
  V  V46  1  0.89886115  0.88472909  0.03699008  1
  V  V47  1  0.85816299  0.50067915  0.37219819  1
  V  V48  1  0.62181189  0.00947421  0.13704048  1
  V  V49  1  0.22535487  0.25410772  0.49853546  1
  V  V50  1  0.25806970  0.88451524  0.62178267  1
  V  V51  1  0.62576438  0.12529535  0.49497159  1
  V  V52  1  0.38051172  0.87443731  0.00760840  1
  V  V53  1  0.24028626  0.13212929  0.38119626  1
  V  V54  1  0.75156439  0.88418035  0.63000180  1
  V  V55  1  0.37885528  0.00386728  0.39005494  1
  V  V56  1  0.26103958  0.63036867  0.87149177  1
  V  V57  1  0.86259878  0.01031135  0.36650773  1
  V  V58  1  0.00207170  0.36763387  0.35766771  1
  V  V59  1  0.62438127  0.23989920  0.88120610  1
  V  V60  1  0.65753908  0.72616613  0.37942642  1
  V  V61  1  0.60773002  0.87552483  0.26601635  1
  V  V62  1  0.37445110  0.25276495  0.12979055  1
  V  V63  1  0.49749071  0.00950707  0.00549381  1
  V  V64  1  0.11040114  0.63194890  0.01135760  1
  V  V65  1  0.25493756  0.61908109  0.36861063  1
  V  V66  1  0.63681940  0.37601835  0.24398259  1
  V  V67  1  0.13168838  0.87831991  0.74232817  1
  V  V68  1  0.00041797  0.12808137  0.62871084  1
  V  V69  1  0.00403543  0.73370309  0.25046860  1
  V  V70  1  0.12354961  0.87799957  0.27325947  1
  V  V71  1  0.88363066  0.42760150  -0.02724927  1
  V  V72  1  0.11764991  0.63211330  0.49926783  1
  Zn  Zn73  1  0.86882317  0.30453422  0.13844735  1
  Zn  Zn74  1  0.62054124  0.59783180  0.48892309  1
  Zn  Zn75  1  0.74592062  0.13453420  0.35585139  1
  Zn  Zn76  1  0.78547506  0.15152808  0.89216249  1
  Zn  Zn77  1  0.60833110  0.81317012  0.76601627  1
  Zn  Zn78  1  0.61650893  0.62581693  -0.00350900  1
  Zn  Zn79  1  0.46257526  0.06715173  0.56549684  1
  Zn  Zn80  1  0.76795127  0.27900455  0.00201318  1
  Zn  Zn81  1  0.74420494  0.51887122  0.75581139  1
  Zn  Zn82  1  0.19183639  0.19290279  0.17659422  1
  Zn  Zn83  1  0.18823971  0.18649082  0.68737537  1
  Zn  Zn84  1  0.18911463  0.69863066  0.19565815  1
  Zn  Zn85  1  0.19320407  0.69071739  0.68407333  1
  Zn  Zn86  1  0.70210914  0.19661337  0.17875433  1
  Zn  Zn87  1  0.69108374  0.18338282  0.69504670  1
  Zn  Zn88  1  0.64451822  0.69551484  0.18066915  1
  Zn  Zn89  1  0.70322653  0.67521426  0.64697189  1
  Zn  Zn90  1  0.32626896  0.30771097  0.32162013  1
  Zn  Zn91  1  0.30304230  0.30963331  0.80402893  1
  Zn  Zn92  1  0.31964993  0.82632087  0.30809717  1
  Zn  Zn93  1  0.41497926  0.82186691  0.80906509  1
  Zn  Zn94  1  0.82747774  0.31301330  0.31841321  1
  Zn  Zn95  1  0.90409027  0.28627959  0.85656494  1
  Zn  Zn96  1  0.81583323  0.81047909  0.30593275  1
  Zn  Zn97  1  0.81274811  0.80213387  0.80166529  1
  Zn  Zn98  1  0.18120077  0.44135169  0.42393132  1
  Zn  Zn99  1  0.15149303  0.44928015  0.93071095  1
  Zn  Zn100  1  0.19684499  0.94357548  0.44075211  1
  Zn  Zn101  1  0.19072006  0.93628958  0.93311583  1
  Zn  Zn102  1  0.68433030  0.42274834  0.44569496  1
  Zn  Zn103  1  0.68733306  0.43548177  0.93380247  1
  Zn  Zn104  1  0.68910966  0.93879921  0.44600144  1
  Zn  Zn105  1  0.67848150  0.92564787  0.93749219  1
  Zn  Zn106  1  0.30733441  0.07089492  0.05780373  1
  Zn  Zn107  1  0.29800042  0.07036900  0.55921313  1
  Zn  Zn108  1  0.29907077  0.43979410  0.06778453  1
  Zn  Zn109  1  0.30806461  0.56428632  0.56585741  1
  Zn  Zn110  1  0.80230693  0.04672640  0.05895754  1
  Zn  Zn111  1  0.81603851  0.06251777  0.55860099  1
  Zn  Zn112  1  0.81648910  0.57425553  0.06240954  1
  Zn  Zn113  1  0.80283042  0.56354707  0.55153781  1
  Zn  Zn114  1  0.44361449  0.42971383  0.18576707  1
  Zn  Zn115  1  0.43002599  0.42611873  0.69880400  1
  Zn  Zn116  1  0.43388706  0.94468154  0.19100162  1
  Zn  Zn117  1  0.47376890  0.89263689  0.64634595  1
  Zn  Zn118  1  0.93871425  0.48408806  0.17362189  1
  Zn  Zn119  1  0.93467144  0.44694136  0.69482721  1
  Zn  Zn120  1  0.93875530  0.93767085  0.19730834  1
  Zn  Zn121  1  0.94300615  0.93343357  0.68142927  1
  Zn  Zn122  1  0.06462906  0.06849164  0.29973226  1
  Zn  Zn123  1  0.05834176  0.06479000  0.81307249  1
  Zn  Zn124  1  0.06925446  0.55223445  0.31577716  1
  Zn  Zn125  1  0.05560283  0.56484829  0.81525618  1
  Zn  Zn126  1  0.56072228  0.06582197  0.32061852  1
  Zn  Zn127  1  0.55618351  -0.03820314  0.81258478  1
  Zn  Zn128  1  0.56541172  0.54954912  0.30950044  1
  Zn  Zn129  1  0.56311602  0.55119161  0.82245677  1
  Zn  Zn130  1  0.43644333  0.18625264  0.42564476  1
  Zn  Zn131  1  0.43662738  0.18868453  0.93953930  1
  Zn  Zn132  1  0.43556352  0.67511188  0.45393435  1
  Zn  Zn133  1  0.44338991  0.69723990  1.19216976  1
  Zn  Zn134  1  0.93732472  0.18912805  0.44316506  1
  Zn  Zn135  1  0.93248496  0.17890785  1.02552283  1
  Zn  Zn136  1  0.93832984  0.68988817  0.41864151  1
  Zn  Zn137  1  0.93178453  0.70680731  0.94662756  1
  Zn  Zn138  1  0.04159551  0.32820316  0.07689444  1
  Zn  Zn139  1  0.05437927  0.31609007  0.56543482  1
  Zn  Zn140  1  0.05662667  0.81350263  0.07139485  1
  Zn  Zn141  1  0.06140097  0.81964782  0.55075422  1
  Zn  Zn142  1  0.55998857  0.31828377  0.06349736  1
  Zn  Zn143  1  0.56666208  0.30502947  0.56474598  1
  Zn  Zn144  1  0.55685407  0.80699899  0.06321119  1
  Zn  Zn145  1  0.56389405  0.73279231  0.58057891  1
  O  O146  1  0.12459179  0.13140354  0.11081175  1
  O  O147  1  0.11530178  0.11600548  0.63349867  1
  O  O148  1  0.13401476  0.65590685  0.10670039  1
  O  O149  1  0.13216316  0.61605894  0.61204156  1
  O  O150  1  0.63104243  0.11470226  0.11759603  1
  O  O151  1  0.63521282  0.11503696  0.61907463  1
  O  O152  1  0.62829795  0.59989348  0.11489307  1
  O  O153  1  0.61072211  0.58896451  0.64668276  1
  O  O154  1  0.38470035  0.39435819  0.36605037  1
  O  O155  1  0.38391211  0.36680206  0.86330263  1
  O  O156  1  0.34872146  0.90481732  0.38627438  1
  O  O157  1  0.36940256  0.88756967  0.89158586  1
  O  O158  1  0.88420110  0.39586619  0.37627053  1
  O  O159  1  0.89664567  0.39773936  0.87386465  1
  O  O160  1  0.87068635  0.88886324  0.38070159  1
  O  O161  1  0.89213664  0.87546949  0.85387999  1
  O  O162  1  0.25239456  0.02093371  0.37553576  1
  O  O163  1  0.26205321  0.01303255  0.87924312  1
  O  O164  1  0.26688308  0.50829387  0.38346468  1
  O  O165  1  0.23899525  0.51382196  0.86384564  1
  O  O166  1  0.76217226  0.00786672  0.37931682  1
  O  O167  1  0.76111473  -0.02026897  0.86912776  1
  O  O168  1  0.76146948  0.49527156  0.39884080  1
  O  O169  1  0.71731529  0.53227069  0.87271731  1
  O  O170  1  0.22306070  0.49844216  0.12697128  1
  O  O171  1  0.23918210  0.49359805  0.62991357  1
  O  O172  1  0.25619018  0.99705144  0.13552330  1
  O  O173  1  0.23318794  0.99177057  0.61012518  1
  O  O174  1  0.74218002  0.49449212  0.11050103  1
  O  O175  1  0.75566435  0.48196629  0.63226054  1
  O  O176  1  0.72411594  0.98652084  0.11827918  1
  O  O177  1  0.75131543  0.99455144  0.62542994  1
  O  O178  1  -0.00774572  0.38475539  0.25999442  1
  O  O179  1  0.01398962  0.37668281  0.74177903  1
  O  O180  1  0.02534997  0.89794194  0.25877213  1
  O  O181  1  0.01295669  0.86605269  0.74928954  1
  O  O182  1  0.51216303  0.36769602  0.25751554  1
  O  O183  1  0.50569489  0.36154087  0.76066180  1
  O  O184  1  0.50865189  0.88240506  0.25227877  1
  O  O185  1  0.50070182  0.87360749  0.75515379  1
  O  O186  1  0.50744759  0.14464427  0.25400911  1
  O  O187  1  0.48558900  0.13677095  0.75321863  1
  O  O188  1  0.46892998  0.58491352  0.24592150  1
  O  O189  1  0.50061014  0.64978705  0.78700693  1
  O  O190  1  0.97926858  0.11610352  0.24369447  1
  O  O191  1  0.98741729  0.11537696  0.73738687  1
  O  O192  1  1.01997556  0.63418515  0.25477468  1
  O  O193  1  0.99142632  0.63423619  0.74905544  1
  O  O194  1  0.36010583  0.25717859  -0.00248403  1
  O  O195  1  0.37519062  0.24063279  0.51345430  1
  O  O196  1  0.37091980  0.76761239  -0.00138024  1
  O  O197  1  0.35642033  0.74502203  0.50898333  1
  O  O198  1  0.86061854  0.22711297  -0.05092160  1
  O  O199  1  0.86306834  0.24116460  0.52458323  1
  O  O200  1  0.86994575  0.78785711  0.00325587  1
  O  O201  1  0.89532795  0.76808629  0.49960617  1
  O  O202  1  0.12719523  0.25122741  0.50147672  1
  O  O203  1  0.13360939  0.24426251  0.98086719  1
  O  O204  1  0.13264650  0.73762749  0.50731827  1
  O  O205  1  0.12515508  0.75838783  0.98059540  1
  O  O206  1  0.64562664  0.23638081  0.51490156  1
  O  O207  1  0.61830146  0.24224057  0.99288129  1
  O  O208  1  0.62160023  0.76753063  0.46320402  1
  O  O209  1  0.62857496  0.74410545  0.99126284  1
  O  O210  1  0.48649003  0.25858026  0.13264469  1
  O  O211  1  0.48875257  0.25792327  0.63618130  1
  O  O212  1  0.53753661  0.73115551  0.14323301  1
  O  O213  1  0.46311541  0.78171286  0.61167371  1
  O  O214  1  0.96600217  0.25333089  0.10249560  1
  O  O215  1  0.98934549  0.23929563  0.61966301  1
  O  O216  1  0.99374394  0.76637837  0.15199166  1
  O  O217  1  0.99408782  0.76089781  0.62782178  1
  O  O218  1  -0.02168099  0.26947251  0.37805618  1
  O  O219  1  0.01598438  0.24662599  0.86858668  1
  O  O220  1  -0.00912082  0.76374967  0.34967079  1
  O  O221  1  0.01361959  0.75817239  0.85393206  1
  O  O222  1  0.48363641  0.26493108  0.35470633  1
  O  O223  1  0.50320007  0.25608324  0.86861509  1
  O  O224  1  0.47552001  0.78664471  0.39099030  1
  O  O225  1  0.51210662  0.71137428  0.82997897  1
  O  O226  1  0.23740484  0.13990816  0.49176851  1
  O  O227  1  0.24007765  0.13778430  0.98667106  1
  O  O228  1  0.24226607  0.63581980  0.49805162  1
  O  O229  1  0.24532180  0.64274671  0.98522192  1
  O  O230  1  0.74728719  0.13584186  0.50111242  1
  O  O231  1  0.73217862  0.11082764  0.98967589  1
  O  O232  1  0.71867991  0.63312189  0.53798256  1
  O  O233  1  0.76361033  0.66042787  1.01027538  1
  O  O234  1  0.23783046  0.36993766  -0.01347868  1
  O  O235  1  0.23880524  0.36488965  0.50768191  1
  O  O236  1  0.26232093  0.88756466  0.01175645  1
  O  O237  1  0.23800763  0.86024236  0.51171129  1
  O  O238  1  0.78066813  0.39036286  -0.02107813  1
  O  O239  1  0.74534164  0.35840992  0.52342506  1
  O  O240  1  0.73291740  0.86491788  0.01790252  1
  O  O241  1  0.77063357  0.88157891  0.50421621  1
  O  O242  1  0.14432784  0.48017674  0.27132214  1
  O  O243  1  0.12854394  0.49130444  0.73953261  1
  O  O244  1  0.14609280  0.99261457  0.25873352  1
  O  O245  1  0.11784807  0.99067031  0.73732034  1
  O  O246  1  0.62546280  0.48556293  0.23373595  1
  O  O247  1  0.62079837  0.48117578  0.74479090  1
  O  O248  1  0.61743718  1.00188259  0.23996613  1
  O  O249  1  0.62993509  1.00774946  0.73557053  1
  O  O250  1  0.35630657  -0.00340709  0.26152083  1
  O  O251  1  0.38147901  0.01055229  0.76431883  1
  O  O252  1  0.40985160  0.52897841  0.25068897  1
  O  O253  1  0.35293918  0.49641378  0.74802282  1
  O  O254  1  0.87475261  0.00384490  0.26294045  1
  O  O255  1  0.87603792  -0.00396946  0.75380028  1
  O  O256  1  0.85931647  0.50629185  0.26656844  1
  O  O257  1  0.87455442  0.52335092  0.75254287  1
  O  O258  1  0.10154860  0.37371438  0.38436550  1
  O  O259  1  0.13328347  0.35771755  0.85902247  1
  O  O260  1  0.13751734  0.87438247  0.37172529  1
  O  O261  1  0.12278176  0.86948432  0.86267036  1
  O  O262  1  0.61206895  0.38497717  0.36219901  1
  O  O263  1  0.61422373  0.36303965  0.86889512  1
  O  O264  1  0.62297405  0.90340717  0.36157296  1
  O  O265  1  0.61692552  0.87517826  0.85958594  1
  O  O266  1  0.36763333  0.15148589  0.11345924  1
  O  O267  1  0.37477295  0.12633049  0.63039735  1
  O  O268  1  0.36662273  0.64683259  0.10868021  1
  O  O269  1  0.37504077  0.63465459  0.62725958  1
  O  O270  1  0.87540568  0.11249231  0.11916926  1
  O  O271  1  0.87947993  0.12723357  0.63535051  1
  O  O272  1  0.88110713  0.59754063  0.15500546  1
  O  O273  1  0.87887862  0.64407418  0.60737081  1
  O  O274  1  0.25547163  0.25599186  0.10340411  1
  O  O275  1  0.25136929  0.25319273  0.61146235  1
  O  O276  1  0.25725056  0.76561959  0.11945793  1
  O  O277  1  0.25981687  0.76149553  0.61882569  1
  O  O278  1  0.76492953  0.26030008  0.11125354  1
  O  O279  1  0.76050547  0.25585061  0.63167469  1
  O  O280  1  0.72663961  0.76380613  0.12315492  1
  O  O281  1  0.77788561  0.76879788  0.61365308  1
  O  O282  1  0.25890838  0.24617855  0.39403592  1
  O  O283  1  0.24679045  0.24194635  0.87941549  1
  O  O284  1  0.25616753  0.73917384  0.38838860  1
  O  O285  1  0.23311172  0.73966118  0.85827679  1
  O  O286  1  0.76488461  0.25238873  0.39791605  1
  O  O287  1  0.72452496  0.25416202  0.87670529  1
  O  O288  1  0.75633546  0.74426897  0.37905771  1
  O  O289  1  0.75072103  0.76497087  0.88705086  1
  O  O290  1  0.02084214  0.12036711  -0.01412519  1
  O  O291  1  -0.00896256  0.11243474  0.51430062  1
  O  O292  1  0.01047869  0.64864283  0.00154337  1
  O  O293  1  0.01572676  0.62477346  0.48723741  1
  O  O294  1  0.50855675  0.11905239  0.00049586  1
  O  O295  1  0.51967169  0.14021982  0.49713119  1
  O  O296  1  0.50448391  0.59647504  -0.01496773  1
  O  O297  1  0.52198014  0.64878540  0.51529599  1
  O  O298  1  0.50867181  0.35562223  0.47849364  1
  O  O299  1  0.49458669  0.37274847  0.98507836  1
  O  O300  1  0.48443188  0.84689377  0.43197503  1
  O  O301  1  0.48605033  0.88451186  1.00834983  1
  O  O302  1  0.99285227  0.39012816  0.50230690  1
  O  O303  1  0.98229003  0.39515501  1.00517365  1
  O  O304  1  0.99045710  0.89484821  0.49866713  1
  O  O305  1  0.99876294  0.85641067  0.97034088  1
  O  O306  1  0.49199228  0.49033966  0.38377072  1
  O  O307  1  0.49666224  0.47920186  0.88063062  1
  O  O308  1  0.47723370  1.00851009  0.36973051  1
  O  O309  1  0.48452568  1.00440836  0.89145287  1
  O  O310  1  0.99553945  0.49423533  0.38857308  1
  O  O311  1  1.04679800  0.48011243  0.88388154  1
  O  O312  1  0.99867621  1.01398900  0.38538769  1
  O  O313  1  1.00145561  0.98065341  0.86875884  1
  O  O314  1  -0.02014468  -0.07991481  0.09243512  1
  O  O315  1  0.00656134  0.00743489  0.61539427  1
  O  O316  1  0.04626769  0.50998585  0.14542463  1
  O  O317  1  0.00725038  0.49930693  0.61434754  1
  O  O318  1  0.50941810  0.00034064  0.11759477  1
  O  O319  1  0.52493504  -0.01049892  0.61734059  1
  O  O320  1  0.50614779  0.48539278  0.10732203  1
  O  O321  1  0.49725550  0.47937015  0.62632197  1
  O  O322  1  0.22182374  0.33252096  0.26083142  1
  O  O323  1  0.23786372  0.38645348  0.74107306  1
  O  O324  1  0.24135412  0.88135707  0.23641221  1
  O  O325  1  0.23741651  0.87528606  0.72872025  1
  O  O326  1  0.73366430  0.36171041  0.26395674  1
  O  O327  1  0.73539085  0.37261760  0.74281288  1
  O  O328  1  0.73338485  0.86959468  0.24257799  1
  O  O329  1  0.75276013  0.86853670  0.72981262  1
  O  O330  1  0.24871686  0.11911395  0.25166435  1
  O  O331  1  0.26238318  0.13109835  0.75732470  1
  O  O332  1  0.24520168  0.63237794  0.27101407  1
  O  O333  1  0.23950891  0.61293109  0.75621260  1
  O  O334  1  0.77054703  0.12861922  0.24410437  1
  O  O335  1  0.76808773  0.12933030  0.76458263  1
  O  O336  1  0.74500942  0.63901606  0.23906143  1
  O  O337  1  0.77114786  0.63527178  0.73577994  1
  O  O338  1  0.35653535  0.11913915  0.37622293  1
  O  O339  1  0.36809234  0.12099375  0.86977804  1
  O  O340  1  0.36788914  0.61085001  0.38671247  1
  O  O341  1  0.35581365  0.63383486  0.87185414  1
  O  O342  1  0.87273330  0.11627108  0.37394899  1
  O  O343  1  0.88212504  0.08807266  0.86760740  1
  O  O344  1  0.87372005  0.61283724  0.36206201  1
  O  O345  1  0.87478950  0.64997022  0.86207101  1
  O  O346  1  0.12639430  0.36542915  0.13543850  1
  O  O347  1  0.13076728  0.38050243  0.63244809  1
  O  O348  1  0.14306024  0.87783581  0.11613632  1
  O  O349  1  0.12635308  0.88496767  0.62639119  1
  O  O350  1  0.62861991  0.37718620  0.13547716  1
  O  O351  1  0.63161919  0.37469011  0.63659444  1
  O  O352  1  0.62119533  0.88560902  0.14117144  1
  O  O353  1  0.64912046  0.89379971  0.60994801  1
  O  O354  1  0.17095013  0.27577595  0.26178211  1
  O  O355  1  0.12964589  0.26218534  0.75214874  1
  O  O356  1  0.11743545  0.77069284  0.24992835  1
  O  O357  1  0.12122970  0.75773953  0.74647510  1
  O  O358  1  0.61331007  0.25912872  0.23726472  1
  O  O359  1  0.61468261  0.24901665  0.75887757  1
  O  O360  1  0.61938076  0.76564296  0.28398495  1
  O  O361  1  0.62108886  0.74776456  0.67816566  1
  O  O362  1  0.38079845  0.25213186  0.23660258  1
  O  O363  1  0.37607895  0.24041725  0.73800354  1
  O  O364  1  0.38576998  0.74719435  0.27226131  1
  O  O365  1  0.36544891  0.75123222  0.73676687  1
  O  O366  1  0.87680262  0.24118511  0.24075017  1
  O  O367  1  0.88305598  0.23462673  0.74925776  1
  O  O368  1  0.88025871  0.72804851  0.25110915  1
  O  O369  1  0.88692915  0.74295356  0.73027687  1
  O  O370  1  0.37618664  0.49504617  0.50017554  1
  O  O371  1  0.38105934  0.49453368  1.00705523  1
  O  O372  1  0.38020629  1.01766197  0.49726409  1
  O  O373  1  0.38017525  0.99872310  0.99737659  1
  O  O374  1  0.88966487  0.51577677  0.49467419  1
  O  O375  1  0.87508306  0.52734554  0.97450634  1
  O  O376  1  0.88489544  0.99559313  0.48703124  1
  O  O377  1  0.86682426  0.97121394  0.98392502  1
  O  O378  1  0.13689186  0.01550759  -0.00476545  1
  O  O379  1  0.11211552  -0.00186798  0.50568539  1
  O  O380  1  0.12767797  0.53259901  0.00347560  1
  O  O381  1  0.11372533  0.50738896  0.50699344  1
  O  O382  1  0.61154660  0.00523368  0.00317584  1
  O  O383  1  0.63573706  0.02076286  0.50761619  1
  O  O384  1  0.61660445  0.48215407  0.01099211  1
  O  O385  1  0.62248828  0.48525385  0.52168354  1
  O  O386  1  0.36495878  0.36531588  0.12865019  1
  O  O387  1  0.35658939  0.36204644  0.63236018  1
  O  O388  1  0.36749049  0.88323932  0.11401165  1
  O  O389  1  0.35569978  0.89509953  0.62313147  1
  O  O390  1  0.88781461  0.41077480  0.09710933  1
  O  O391  1  0.86437528  0.36587598  0.64388873  1
  O  O392  1  0.84264654  0.88692566  0.13010923  1
  O  O393  1  0.87326637  0.87778843  0.60858581  1
  O  O394  1  0.14134733  0.13341430  0.36082699  1
  O  O395  1  0.13445037  0.13549854  0.86363546  1
  O  O396  1  0.14433788  0.61292809  0.39271647  1
  O  O397  1  0.12358809  0.64069989  0.88149257  1
  O  O398  1  0.63426144  0.12444237  0.38849490  1
  O  O399  1  0.61733649  0.13773079  0.88254214  1
  O  O400  1  0.62682989  0.62408328  0.37279847  1
  O  O401  1  0.65498274  0.59193892  0.88153185  1
