# generated using pymatgen
data_V73Zn73O256
_symmetry_space_group_name_H-M   'P 1'
_cell_length_a   16.95004810
_cell_length_b   16.90631663
_cell_length_c   16.89515030
_cell_angle_alpha   90.09563834
_cell_angle_beta   90.01349322
_cell_angle_gamma   90.44425949
_symmetry_Int_Tables_number   1
_chemical_formula_structural   V73Zn73O256
_chemical_formula_sum   'V73 Zn73 O256'
_cell_volume   4841.37049696
_cell_formula_units_Z   1
loop_
 _symmetry_equiv_pos_site_id
 _symmetry_equiv_pos_as_xyz
  1  'x, y, z'
loop_
 _atom_site_type_symbol
 _atom_site_label
 _atom_site_symmetry_multiplicity
 _atom_site_fract_x
 _atom_site_fract_y
 _atom_site_fract_z
 _atom_site_occupancy
  V  V0  1  0.01709516  0.62417748  0.62930901  1
  V  V1  1  0.62718204  0.37068144  0.75359655  1
  V  V2  1  0.85884460  0.76272364  0.11733676  1
  V  V3  1  0.25472061  0.12243584  0.86700960  1
  V  V4  1  0.75343006  0.26259424  -0.00054466  1
  V  V5  1  0.38441094  0.34662093  0.01031680  1
  V  V6  1  0.87867579  0.62684161  0.25253600  1
  V  V7  1  0.74560164  0.75371370  0.48503712  1
  V  V8  1  0.24894768  0.87061728  0.11128372  1
  V  V9  1  0.25992445  0.25682690  0.50288432  1
  V  V10  1  0.61735601  0.88441277  0.26431224  1
  V  V11  1  0.24762267  0.88689023  0.62563951  1
  V  V12  1  0.00872550  0.11502102  0.12377026  1
  V  V13  1  0.62103268  0.62158143  0.49732883  1
  V  V14  1  -0.01365646  0.88884437  0.88548308  1
  V  V15  1  0.00040819  -0.01810920  0.49719902  1
  V  V16  1  0.75309595  0.13719050  0.39162119  1
  V  V17  1  0.72951859  0.60568556  0.36116225  1
  V  V18  1  0.23696959  0.62906972  0.36971191  1
  V  V19  1  0.50416107  0.37421736  0.87519080  1
  V  V20  1  0.23710822  0.23580784  0.00148295  1
  V  V21  1  0.75639497  0.00328447  0.75325890  1
  V  V22  1  0.86865184  0.62917265  0.75139496  1
  V  V23  1  0.38952841  0.25147760  0.62909360  1
  V  V24  1  0.37035656  0.50273597  0.38509832  1
  V  V25  1  0.00013505  0.63138640  0.10621953  1
  V  V26  1  0.62471590  0.49761530  0.62516814  1
  V  V27  1  0.38711457  0.10919052  0.73963472  1
  V  V28  1  0.24033846  0.74347249  0.49873442  1
  V  V29  1  0.24116183  -0.00438910  0.24472450  1
  V  V30  1  0.62469132  0.63682946  0.00681887  1
  V  V31  1  0.75162708  0.87642910  0.62274386  1
  V  V32  1  0.49367594  0.87691535  0.87787039  1
  V  V33  1  0.59618765  -0.00371645  0.11442762  1
  V  V34  1  0.25022954  0.38087115  0.63918197  1
  V  V35  1  0.50367038  0.74348897  0.75178049  1
  V  V36  1  0.48882881  0.37889859  0.38211347  1
  V  V37  1  0.61874708  0.01485425  0.61485178  1
  V  V38  1  0.62564674  0.87431878  0.75236733  1
  V  V39  1  0.00722689  0.26024501  0.25103730  1
  V  V40  1  0.74025492  0.64121664  0.88029894  1
  V  V41  1  0.12679598  0.11255358  0.49979710  1
  V  V42  1  0.57317212  0.18960688  0.93691126  1
  V  V43  1  0.23815258  0.37262539  0.12089523  1
  V  V44  1  0.01078782  0.12187152  0.62966800  1
  V  V45  1  0.37550735  0.74883271  0.10713054  1
  V  V46  1  0.37119630  0.51138707  0.86625321  1
  V  V47  1  0.88342142  0.26136094  0.62696743  1
  V  V48  1  0.38777823  0.88424375  0.49084976  1
  V  V49  1  0.63018742  0.37496877  0.25326559  1
  V  V50  1  0.88074098  0.12657936  0.75255787  1
  V  V51  1  0.37411183  0.74462669  0.62394809  1
  V  V52  1  0.49334751  0.75441638  0.26699455  1
  V  V53  1  0.13720774  0.62256531  -0.00584913  1
  V  V54  1  0.48834516  0.25515376  0.23656085  1
  V  V55  1  0.64260783  0.49830471  0.13030722  1
  V  V56  1  0.13078226  0.88544587  0.74224029  1
  V  V57  1  0.37784891  -0.00295131  0.88980942  1
  V  V58  1  0.74948214  0.49643741  0.75036825  1
  V  V59  1  0.49717040  0.50361951  0.01279196  1
  V  V60  1  0.49667564  0.61940909  0.62149733  1
  V  V61  1  0.12389616  0.25207018  0.37420870  1
  V  V62  1  0.87470813  0.49269299  0.89187590  1
  V  V63  1  0.86830785  0.75276215  0.62605363  1
  V  V64  1  -0.00220093  0.75963668  0.75261203  1
  V  V65  1  0.38103209  0.11802859  0.23718786  1
  V  V66  1  0.75475397  0.12734210  0.88062614  1
  V  V67  1  0.13404586  0.76001071  0.88776650  1
  V  V68  1  0.87510426  -0.01179374  0.37759263  1
  V  V69  1  0.87185125  0.26594102  0.12722277  1
  V  V70  1  0.87264609  0.12048435  0.25256745  1
  V  V71  1  0.12186013  0.85303190  0.25955684  1
  V  V72  1  0.26080377  0.11418918  0.37793065  1
  Zn  Zn73  1  0.51443225  0.24069140  0.74600530  1
  Zn  Zn74  1  0.85888966  0.49055719  0.36965136  1
  Zn  Zn75  1  0.24287039  0.50383932  0.22928161  1
  Zn  Zn76  1  0.01867920  0.00134776  0.00215395  1
  Zn  Zn77  1  0.11942410  0.32776551  0.76997528  1
  Zn  Zn78  1  0.90270634  0.37315363  0.46878307  1
  Zn  Zn79  1  0.75692220  0.27752267  0.50570555  1
  Zn  Zn80  1  0.38021075  0.62366835  0.24075616  1
  Zn  Zn81  1  0.97140190  0.77180374  0.29730738  1
  Zn  Zn82  1  0.19372723  0.19093624  0.19134905  1
  Zn  Zn83  1  0.19640039  0.18315492  0.68953384  1
  Zn  Zn84  1  0.19036363  0.69038935  0.17879224  1
  Zn  Zn85  1  0.19156713  0.69446624  0.69891645  1
  Zn  Zn86  1  0.68952113  0.19991000  0.20148526  1
  Zn  Zn87  1  0.69934183  0.19120957  0.68049435  1
  Zn  Zn88  1  0.67284280  0.70039665  0.18660003  1
  Zn  Zn89  1  0.68404062  0.68527703  0.68741212  1
  Zn  Zn90  1  0.31051655  0.31145940  0.30859426  1
  Zn  Zn91  1  0.28447517  0.33859749  0.84750607  1
  Zn  Zn92  1  0.31643736  0.81290422  0.31192231  1
  Zn  Zn93  1  0.31095540  0.79700917  0.80835551  1
  Zn  Zn94  1  0.82109260  0.31558532  0.31414601  1
  Zn  Zn95  1  0.81755908  0.31204231  0.81202268  1
  Zn  Zn96  1  0.79724072  0.81819851  0.29354566  1
  Zn  Zn97  1  0.80949230  0.81779641  0.81640061  1
  Zn  Zn98  1  0.15235622  0.45926947  0.36741007  1
  Zn  Zn99  1  0.16278488  0.45821057  0.89722394  1
  Zn  Zn100  1  0.19189025  0.92968756  0.43788042  1
  Zn  Zn101  1  0.18733560  0.93896387  0.92696018  1
  Zn  Zn102  1  0.68049394  0.41668800  0.44580005  1
  Zn  Zn103  1  0.68888249  0.44666874  0.93786163  1
  Zn  Zn104  1  0.69038714  0.94394123  0.43401246  1
  Zn  Zn105  1  0.67622332  0.95084960  0.93565081  1
  Zn  Zn106  1  0.19403054  0.06252241  0.06289719  1
  Zn  Zn107  1  0.32111246  0.06181006  0.56153043  1
  Zn  Zn108  1  0.31232332  0.56108116  0.05533738  1
  Zn  Zn109  1  0.30728557  0.56133318  0.56039894  1
  Zn  Zn110  1  0.79316802  0.07411981  0.07848308  1
  Zn  Zn111  1  0.82033348  0.06132517  0.56390182  1
  Zn  Zn112  1  0.81128840  0.57269804  0.06611963  1
  Zn  Zn113  1  0.80913715  0.50315045  0.54762637  1
  Zn  Zn114  1  0.42616497  0.44104942  0.19285294  1
  Zn  Zn115  1  0.43665848  0.43103937  0.68660367  1
  Zn  Zn116  1  0.43217035  0.93505676  0.18713323  1
  Zn  Zn117  1  0.44267063  0.92944563  0.67628693  1
  Zn  Zn118  1  0.94646695  0.44694804  0.19339564  1
  Zn  Zn119  1  0.95282617  0.44724157  0.70641591  1
  Zn  Zn120  1  0.94172448  0.93434421  0.19324954  1
  Zn  Zn121  1  0.94013748  0.93981819  0.68409858  1
  Zn  Zn122  1  0.06077931  0.06474539  0.31527975  1
  Zn  Zn123  1  0.06874583  0.06436040  0.81460412  1
  Zn  Zn124  1  0.07442250  0.58453980  0.27899784  1
  Zn  Zn125  1  0.05029668  0.57780302  0.82637770  1
  Zn  Zn126  1  0.57332137  0.07631484  0.30600459  1
  Zn  Zn127  1  0.56492170  0.05531679  0.80518087  1
  Zn  Zn128  1  0.55013570  0.56410546  0.30376055  1
  Zn  Zn129  1  0.56002016  0.55959525  0.81696159  1
  Zn  Zn130  1  0.43620620  0.19841348  0.42658022  1
  Zn  Zn131  1  0.39611620  0.12419397  1.02544621  1
  Zn  Zn132  1  0.43031747  0.68663092  0.43993255  1
  Zn  Zn133  1  0.44082802  0.68719832  0.93736528  1
  Zn  Zn134  1  0.94080811  0.18474788  0.44316442  1
  Zn  Zn135  1  0.92920196  0.18365527  0.94671827  1
  Zn  Zn136  1  0.91840731  0.64362568  0.45258147  1
  Zn  Zn137  1  0.92936452  0.69854720  0.93672671  1
  Zn  Zn138  1  0.06446682  0.29530931  0.05896256  1
  Zn  Zn139  1  0.07798561  0.30012143  0.57473371  1
  Zn  Zn140  1  0.05696482  0.81496158  0.07305698  1
  Zn  Zn141  1  0.03209253  0.76853271  0.48670619  1
  Zn  Zn142  1  0.56815966  0.31678537  0.07023885  1
  Zn  Zn143  1  0.56653483  0.31485025  0.55585742  1
  Zn  Zn144  1  0.55432394  0.81793877  0.06976956  1
  Zn  Zn145  1  0.56725497  0.81274157  0.56159484  1
  O  O146  1  0.11249857  0.12845626  0.12808905  1
  O  O147  1  0.11791975  0.11842930  0.61504520  1
  O  O148  1  0.11230692  0.63977592  0.10621483  1
  O  O149  1  0.11569114  0.62843368  0.64892347  1
  O  O150  1  0.64262735  0.10585381  0.14343601  1
  O  O151  1  0.63279891  0.11469812  0.63076556  1
  O  O152  1  0.63018344  0.61304130  0.11271091  1
  O  O153  1  0.61760696  0.61730504  0.61921852  1
  O  O154  1  0.37568432  0.38837341  0.36734619  1
  O  O155  1  0.38916016  0.37376203  0.89405904  1
  O  O156  1  0.36834101  0.87436923  0.39240462  1
  O  O157  1  0.38398330  0.88371905  0.86400926  1
  O  O158  1  0.89842052  0.38568052  0.35542552  1
  O  O159  1  0.87347416  0.39322513  0.86827006  1
  O  O160  1  0.86896128  0.89044089  0.35877420  1
  O  O161  1  0.88727671  0.87986400  0.87077135  1
  O  O162  1  0.24958163  0.01058455  0.36778536  1
  O  O163  1  0.26896526  0.00608780  0.87666411  1
  O  O164  1  0.25484195  0.51664008  0.38006028  1
  O  O165  1  0.27345681  0.49490588  0.88471137  1
  O  O166  1  0.77186274  0.01465115  0.38511864  1
  O  O167  1  0.74315753  0.01343448  0.86283054  1
  O  O168  1  0.73768677  0.50524511  0.36851667  1
  O  O169  1  0.75456264  0.51220883  0.86685328  1
  O  O170  1  0.25425336  0.47739017  0.11132628  1
  O  O171  1  0.26095382  0.47964745  0.62188347  1
  O  O172  1  0.24949665  0.99175935  0.13906274  1
  O  O173  1  0.25177230  0.98526906  0.62130287  1
  O  O174  1  0.74088968  0.50225648  0.12873808  1
  O  O175  1  0.73988402  0.50811180  0.63902308  1
  O  O176  1  0.70321663  1.04428391  0.14674154  1
  O  O177  1  0.74967013  0.99255731  0.63197047  1
  O  O178  1  0.00968585  0.35886886  0.23597865  1
  O  O179  1  0.04682749  0.42074474  0.77258221  1
  O  O180  1  0.01683190  0.86811774  0.25079232  1
  O  O181  1  0.00817599  0.87601905  0.75369982  1
  O  O182  1  0.49591530  0.36531564  0.24799567  1
  O  O183  1  0.50821009  0.36767274  0.76189177  1
  O  O184  1  0.49596645  0.86416589  0.25128924  1
  O  O185  1  0.51055144  0.86631991  0.75053523  1
  O  O186  1  0.48741969  0.13916733  0.26086372  1
  O  O187  1  0.49175608  0.12644731  0.75304991  1
  O  O188  1  0.49853881  0.64610252  0.24564990  1
  O  O189  1  0.51051165  0.63818723  0.74349262  1
  O  O190  1  0.99437031  0.13414526  0.24179257  1
  O  O191  1  0.99419503  0.10597603  0.73611895  1
  O  O192  1  0.98146914  0.64211613  0.26334916  1
  O  O193  1  0.98701223  0.64088770  0.75019901  1
  O  O194  1  0.39284814  0.24846809  0.00813283  1
  O  O195  1  0.36515502  0.23624480  0.50812177  1
  O  O196  1  0.37741069  0.75001503  0.00630808  1
  O  O197  1  0.36774617  0.75801580  0.51054281  1
  O  O198  1  0.86496288  0.25366881  0.01612734  1
  O  O199  1  0.89102460  0.26189263  0.51521251  1
  O  O200  1  0.86937213  0.75066108  0.01597686  1
  O  O201  1  0.84900837  0.73560382  0.51770197  1
  O  O202  1  0.13946845  0.23298800  0.49485740  1
  O  O203  1  0.13908947  0.23213537  0.99356473  1
  O  O204  1  0.14346908  0.75878862  0.50210242  1
  O  O205  1  0.11109293  0.74973793  0.98928958  1
  O  O206  1  0.65106106  0.31042944  0.48682033  1
  O  O207  1  0.63554650  0.24321830  1.00616184  1
  O  O208  1  0.63923021  0.73691615  0.51137589  1
  O  O209  1  0.61384404  0.73445495  1.01145742  1
  O  O210  1  0.50080458  0.24950926  0.13723981  1
  O  O211  1  0.49227529  0.25185702  0.61447422  1
  O  O212  1  0.47719828  0.75752565  0.12726270  1
  O  O213  1  0.49670316  0.73916851  0.63058239  1
  O  O214  1  0.98869898  0.23895040  0.12816662  1
  O  O215  1  0.99761815  0.22891049  0.62202416  1
  O  O216  1  0.98663498  0.73771978  0.12833618  1
  O  O217  1  0.98423213  0.74898368  0.64247119  1
  O  O218  1  0.01682318  0.24147573  0.37006110  1
  O  O219  1  -0.00336621  0.27731952  0.90534365  1
  O  O220  1  -0.02904395  0.73391354  0.40120497  1
  O  O221  1  -0.00321219  0.76637269  0.86688449  1
  O  O222  1  0.49170058  0.27222884  0.36215737  1
  O  O223  1  0.51962108  0.25770264  0.87935873  1
  O  O224  1  0.49281658  0.75040474  0.36739585  1
  O  O225  1  0.49331269  0.75928104  0.85749893  1
  O  O226  1  0.24681920  0.11978783  0.48977189  1
  O  O227  1  0.26823808  0.12960269  0.99893023  1
  O  O228  1  0.24974250  0.63695026  0.49386046  1
  O  O229  1  0.23549652  0.62866835  1.00174468  1
  O  O230  1  0.76207922  0.13108730  0.49411129  1
  O  O231  1  0.75704458  0.13403857  0.98741533  1
  O  O232  1  0.73516265  0.63546533  0.47525293  1
  O  O233  1  0.73638960  0.62608358  0.98980662  1
  O  O234  1  0.27165529  0.34707472  0.00393476  1
  O  O235  1  0.25230630  0.35468245  0.50925089  1
  O  O236  1  0.24353027  0.88331133  0.01402208  1
  O  O237  1  0.25671073  0.86668949  0.51109520  1
  O  O238  1  0.74167534  0.36041508  -0.00332982  1
  O  O239  1  0.78948794  0.39878415  0.49654884  1
  O  O240  1  0.77695109  0.91484771  0.00562109  1
  O  O241  1  0.74237486  0.86145671  0.51042272  1
  O  O242  1  0.13273684  0.49439491  0.26093612  1
  O  O243  1  0.10431657  0.48438586  0.78407559  1
  O  O244  1  0.13977738  1.00308253  0.25448079  1
  O  O245  1  0.12738681  0.98404986  0.75264766  1
  O  O246  1  0.61496733  0.49465448  0.23394494  1
  O  O247  1  0.63170796  0.49652143  0.74607182  1
  O  O248  1  0.59460613  0.98772562  0.24151720  1
  O  O249  1  0.63841128  0.99397454  0.73899673  1
  O  O250  1  0.36437107  0.01272728  0.25030229  1
  O  O251  1  0.38164723  0.00845478  0.73627846  1
  O  O252  1  0.35800122  0.50745070  0.25314007  1
  O  O253  1  0.38596003  0.49105163  0.76813666  1
  O  O254  1  0.88512632  0.01409224  0.26217758  1
  O  O255  1  0.86402035  0.01036587  0.74160819  1
  O  O256  1  0.87579895  0.52195837  0.25120128  1
  O  O257  1  0.86469814  0.51262668  0.75709156  1
  O  O258  1  0.13781018  0.34926976  0.38601388  1
  O  O259  1  0.17173445  0.35222586  0.86771833  1
  O  O260  1  0.13389064  0.87172940  0.35924113  1
  O  O261  1  0.11160715  0.87128359  0.86572855  1
  O  O262  1  0.59918407  0.39814162  0.35519655  1
  O  O263  1  0.61652854  0.38597426  0.86575494  1
  O  O264  1  0.61689311  0.88996215  0.36611464  1
  O  O265  1  0.61399668  0.88544948  0.86092019  1
  O  O266  1  0.37604922  0.12470486  0.13921000  1
  O  O267  1  0.37388900  0.13217301  0.63357710  1
  O  O268  1  0.35786513  0.64327344  0.12398204  1
  O  O269  1  0.38506841  0.63234237  0.61615695  1
  O  O270  1  0.87968916  0.12522513  0.14059544  1
  O  O271  1  0.88869549  0.13260627  0.63182047  1
  O  O272  1  0.87682289  0.63636626  0.13681509  1
  O  O273  1  0.86750413  0.63797822  0.64532883  1
  O  O274  1  0.24889440  0.25020744  0.11001028  1
  O  O275  1  0.26187484  0.24619289  0.61405215  1
  O  O276  1  0.25722254  0.76347368  0.12282942  1
  O  O277  1  0.25797796  0.75125586  0.61310238  1
  O  O278  1  0.76303036  0.24570934  0.11849738  1
  O  O279  1  0.77807139  0.25145849  0.62151457  1
  O  O280  1  0.75894686  0.74804448  0.12902959  1
  O  O281  1  0.75312086  0.76100600  0.63258430  1
  O  O282  1  0.24707753  0.23755281  0.38457263  1
  O  O283  1  0.27349118  0.22745095  0.89297820  1
  O  O284  1  0.25911717  0.73893144  0.38798331  1
  O  O285  1  0.23125297  0.77745742  0.89178688  1
  O  O286  1  0.77233442  0.24103823  0.38721206  1
  O  O287  1  0.75761402  0.24455471  0.88983813  1
  O  O288  1  0.74779015  0.76162766  0.38611317  1
  O  O289  1  0.74320822  0.74063004  0.87109665  1
  O  O290  1  -0.01241430  0.11826825  0.01894207  1
  O  O291  1  0.01140010  0.11704062  0.50828951  1
  O  O292  1  -0.00458992  0.62836122  0.00487909  1
  O  O293  1  0.00851421  0.65195096  0.53095701  1
  O  O294  1  0.50726762  0.13619082  -0.01266024  1
  O  O295  1  0.50791984  0.10934437  0.46866597  1
  O  O296  1  0.51498885  0.61035291  -0.00729508  1
  O  O297  1  0.51046555  0.63139667  0.50933174  1
  O  O298  1  0.49615905  0.37815876  0.48055960  1
  O  O299  1  0.49879436  0.38108567  0.99798274  1
  O  O300  1  0.48640439  0.86697394  0.50739914  1
  O  O301  1  0.50430242  0.86536056  0.97494284  1
  O  O302  1  1.01335011  0.37993663  0.51439773  1
  O  O303  1  1.00756453  0.33311316  0.95756572  1
  O  O304  1  1.00764212  0.88395937  0.50450925  1
  O  O305  1  1.00025725  0.88147366  0.98966306  1
  O  O306  1  0.47799474  0.49385722  0.36210282  1
  O  O307  1  0.49711463  0.48840710  0.88587627  1
  O  O308  1  0.51354632  1.05036607  0.42169426  1
  O  O309  1  0.49111770  0.98579594  0.86476696  1
  O  O310  1  1.05671287  0.48728984  0.44015648  1
  O  O311  1  0.97083710  0.52086430  0.88460239  1
  O  O312  1  0.99058547  1.00346284  0.38668087  1
  O  O313  1  1.00144888  0.99253844  0.87770475  1
  O  O314  1  -0.00131667  0.01231069  0.12912253  1
  O  O315  1  -0.00696425  0.00980892  0.60715424  1
  O  O316  1  -0.00248010  0.53439709  0.14042572  1
  O  O317  1  -0.01031629  0.52704499  0.63254418  1
  O  O318  1  0.49531457  0.00544124  0.11934119  1
  O  O319  1  0.52005864  -0.00281958  0.62707505  1
  O  O320  1  0.49919079  0.49837439  0.11367167  1
  O  O321  1  0.50705136  0.51249557  0.63511675  1
  O  O322  1  0.25195985  0.36326082  0.22369859  1
  O  O323  1  0.26790285  0.36504428  0.73685898  1
  O  O324  1  0.24408928  0.88643084  0.25055620  1
  O  O325  1  0.24093760  0.86866435  0.73868159  1
  O  O326  1  0.72826300  0.36717888  0.26469062  1
  O  O327  1  0.74161673  0.38739470  0.75814792  1
  O  O328  1  0.71803080  0.88041654  0.24712045  1
  O  O329  1  0.74443767  0.88452604  0.74661715  1
  O  O330  1  0.25899619  0.11798395  0.25791085  1
  O  O331  1  0.27292037  0.13037905  0.76043165  1
  O  O332  1  0.24867878  0.63137969  0.26210060  1
  O  O333  1  0.27570539  0.68988266  0.76915640  1
  O  O334  1  0.77173394  0.13883298  0.26191900  1
  O  O335  1  0.76027576  0.12242530  0.75811348  1
  O  O336  1  0.73187624  0.63135795  0.26100756  1
  O  O337  1  0.74811856  0.62070054  0.76225363  1
  O  O338  1  0.36208385  0.12768382  0.36945839  1
  O  O339  1  0.37748355  0.10288728  0.85937089  1
  O  O340  1  0.36774810  0.61397849  0.37246388  1
  O  O341  1  0.38684306  0.61096989  0.87456624  1
  O  O342  1  0.87713544  0.12207868  0.36712087  1
  O  O343  1  0.86967377  0.12966141  0.86512747  1
  O  O344  1  0.84329908  0.63054207  0.35574771  1
  O  O345  1  0.85647789  0.62864077  0.86946713  1
  O  O346  1  0.13876813  0.36748027  0.10551454  1
  O  O347  1  0.14716993  0.36179217  0.63946296  1
  O  O348  1  0.13916930  0.86666895  0.14239899  1
  O  O349  1  0.13765060  0.87149865  0.63660083  1
  O  O350  1  0.62656757  0.38788161  0.13747605  1
  O  O351  1  0.61079721  0.39165261  0.63937943  1
  O  O352  1  0.61400705  0.89310915  0.12840413  1
  O  O353  1  0.63622590  0.88124996  0.63435422  1
  O  O354  1  0.12330066  0.24035683  0.26674159  1
  O  O355  1  0.10837739  0.22260665  0.74150854  1
  O  O356  1  0.12609813  0.75237040  0.25535462  1
  O  O357  1  0.11287714  0.76299024  0.76372809  1
  O  O358  1  0.60881705  0.26632047  0.24796623  1
  O  O359  1  0.63127980  0.26584509  0.73857025  1
  O  O360  1  0.60277121  0.76877530  0.24296174  1
  O  O361  1  0.61378053  0.76108080  0.74232184  1
  O  O362  1  0.38135583  0.23855323  0.24998123  1
  O  O363  1  0.38931837  0.23943747  0.73261214  1
  O  O364  1  0.38204972  0.74934720  0.24479433  1
  O  O365  1  0.39787132  0.76249020  0.73367138  1
  O  O366  1  0.88687710  0.24296483  0.24085390  1
  O  O367  1  0.87681962  0.23630032  0.74310211  1
  O  O368  1  0.86785175  0.74354380  0.24368428  1
  O  O369  1  0.87634558  0.74876232  0.74895624  1
  O  O370  1  0.37374106  0.50219307  0.48463982  1
  O  O371  1  0.39236397  0.49978803  0.99425165  1
  O  O372  1  0.37840840  0.98422645  0.50661995  1
  O  O373  1  0.38511992  1.00918117  0.98701346  1
  O  O374  1  0.88746268  0.53388578  0.47437729  1
  O  O375  1  0.85478816  0.50024451  0.99102339  1
  O  O376  1  0.88882699  0.99693196  0.48981980  1
  O  O377  1  0.82845306  0.96954418  1.02134704  1
  O  O378  1  0.12956009  0.00546746  -0.00542905  1
  O  O379  1  0.11410664  0.00381343  0.48871214  1
  O  O380  1  0.11910237  0.52441039  -0.02106911  1
  O  O381  1  0.06084078  0.45206306  0.50883969  1
  O  O382  1  0.61900013  0.00369264  0.01416151  1
  O  O383  1  0.63745732  -0.00114128  0.51694351  1
  O  O384  1  0.61683408  0.49880231  0.01481969  1
  O  O385  1  0.63403406  0.50945268  0.51439716  1
  O  O386  1  0.37602552  0.37389395  0.10938846  1
  O  O387  1  0.37149987  0.35691785  0.62288381  1
  O  O388  1  0.35717018  0.86677083  0.12764426  1
  O  O389  1  0.36227862  0.86568793  0.62023181  1
  O  O390  1  0.88000284  0.36396224  0.13624777  1
  O  O391  1  0.90363311  0.35807411  0.64996252  1
  O  O392  1  0.87745889  0.86167140  0.13722871  1
  O  O393  1  0.86301552  0.86614129  0.63222429  1
  O  O394  1  0.13762601  0.12914998  0.38273613  1
  O  O395  1  0.15532536  0.11708036  0.86656632  1
  O  O396  1  0.13773210  0.62575118  0.37419400  1
  O  O397  1  0.12244067  0.64900232  0.88237196  1
  O  O398  1  0.65580916  0.12553660  0.36661525  1
  O  O399  1  0.63162808  0.12915337  0.87296164  1
  O  O400  1  0.62239688  0.61419442  0.38240619  1
  O  O401  1  0.63315268  0.61986242  0.88764346  1
