# generated using pymatgen
data_V73Zn73O256
_symmetry_space_group_name_H-M   'P 1'
_cell_length_a   16.93973614
_cell_length_b   16.92526791
_cell_length_c   16.90086371
_cell_angle_alpha   90.05160187
_cell_angle_beta   90.22171299
_cell_angle_gamma   90.09674884
_symmetry_Int_Tables_number   1
_chemical_formula_structural   V73Zn73O256
_chemical_formula_sum   'V73 Zn73 O256'
_cell_volume   4845.59422638
_cell_formula_units_Z   1
loop_
 _symmetry_equiv_pos_site_id
 _symmetry_equiv_pos_as_xyz
  1  'x, y, z'
loop_
 _atom_site_type_symbol
 _atom_site_label
 _atom_site_symmetry_multiplicity
 _atom_site_fract_x
 _atom_site_fract_y
 _atom_site_fract_z
 _atom_site_occupancy
  V  V0  1  0.13390243  -0.01143652  0.13530630  1
  V  V1  1  0.61758028  0.10082571  0.50596077  1
  V  V2  1  0.47743546  0.38763167  0.36563655  1
  V  V3  1  0.12661106  0.74971407  0.88190292  1
  V  V4  1  0.24465988  0.49880387  0.75619607  1
  V  V5  1  0.12538616  0.61981358  0.00915823  1
  V  V6  1  0.13146222  0.13670086  0.00326172  1
  V  V7  1  0.86455096  0.74825441  0.61271244  1
  V  V8  1  0.62208558  0.50533437  0.11796746  1
  V  V9  1  0.13680176  0.64070895  0.49665943  1
  V  V10  1  0.62312365  0.25789167  0.38582318  1
  V  V11  1  0.00204810  0.61670551  0.12774486  1
  V  V12  1  0.24731552  0.62566339  0.87912751  1
  V  V13  1  -0.01817321  0.49814785  -0.00250200  1
  V  V14  1  0.87427132  -0.01150993  0.36724541  1
  V  V15  1  0.86958096  0.00315566  0.86742774  1
  V  V16  1  0.75397269  0.50120721  0.24923409  1
  V  V17  1  0.37708576  0.74587229  0.10243403  1
  V  V18  1  0.26382416  0.12015771  0.37955800  1
  V  V19  1  0.87641807  0.75289461  0.12845814  1
  V  V20  1  0.75558330  0.89543312  0.61128868  1
  V  V21  1  0.01585737  0.87514348  0.39594916  1
  V  V22  1  0.12828899  0.37114976  0.77735060  1
  V  V23  1  0.73809220  0.47836611  0.75011945  1
  V  V24  1  0.87398221  0.24083002  0.12538603  1
  V  V25  1  0.62321608  0.00700946  0.10595569  1
  V  V26  1  -0.00881644  0.37443432  0.38469536  1
  V  V27  1  0.87361656  0.62563743  0.25682101  1
  V  V28  1  0.61311534  0.36097984  0.74606164  1
  V  V29  1  0.76016649  0.37439517  0.11687922  1
  V  V30  1  0.35534080  0.37289354  0.01346025  1
  V  V31  1  0.62288112  0.37357570  0.24270996  1
  V  V32  1  0.12393637  0.24674634  0.39214934  1
  V  V33  1  0.75332143  0.24995529  -0.00578543  1
  V  V34  1  0.62287678  0.62636671  -0.00947154  1
  V  V35  1  0.12307901  0.48598557  0.61848277  1
  V  V36  1  0.51202239  0.73498788  0.23519429  1
  V  V37  1  0.49788539  0.23843560  0.23841844  1
  V  V38  1  -0.02674622  0.37659221  0.88176455  1
  V  V39  1  0.12295866  0.37950870  0.23797366  1
  V  V40  1  0.37106595  0.50168982  0.88101280  1
  V  V41  1  0.23948423  0.13006097  0.85764228  1
  V  V42  1  0.75351264  0.74686877  -0.01168650  1
  V  V43  1  0.13308047  0.88813627  0.75028415  1
  V  V44  1  0.00217005  0.00461513  0.00298653  1
  V  V45  1  0.61571264  0.24232421  0.88467859  1
  V  V46  1  0.39210010  0.82434848  0.49798264  1
  V  V47  1  0.63325214  0.90891955  0.73560229  1
  V  V48  1  0.49770687  0.37198908  0.88717305  1
  V  V49  1  0.87444446  0.49722863  0.38830846  1
  V  V50  1  0.35316064  0.26573628  0.63664203  1
  V  V51  1  0.35645963  0.24021477  0.12362572  1
  V  V52  1  0.62013721  0.56715910  0.54300124  1
  V  V53  1  0.86633217  0.13036864  0.73990011  1
  V  V54  1  0.01536854  0.75910251  0.25519448  1
  V  V55  1  0.63732477  0.73599852  0.38252396  1
  V  V56  1  0.75040425  0.88225498  0.12758056  1
  V  V57  1  0.74366670  0.12384112  0.87687455  1
  V  V58  1  0.35027913  0.88120783  -0.00560331  1
  V  V59  1  0.52091601  0.87514405  0.87045314  1
  V  V60  1  -0.00198956  0.87735827  0.87327261  1
  V  V61  1  -0.00119694  0.75032835  0.74917722  1
  V  V62  1  0.75370474  0.13215699  0.37169106  1
  V  V63  1  0.87275543  0.61825209  0.75903038  1
  V  V64  1  0.37237286  0.62662787  0.25465496  1
  V  V65  1  0.01230867  0.11660108  0.62527211  1
  V  V66  1  -0.00753537  0.24286511  0.25225860  1
  V  V67  1  0.00506078  0.62463738  0.61951557  1
  V  V68  1  0.39881153  0.12415720  0.74289861  1
  V  V69  1  -0.00046067  0.24849090  0.75880748  1
  V  V70  1  0.87616254  0.87653436  -0.00054871  1
  V  V71  1  0.24740850  0.86241865  0.60399203  1
  V  V72  1  0.62088387  0.87980998  0.24952392  1
  Zn  Zn73  1  0.46089402  0.71544136  0.73564420  1
  Zn  Zn74  1  0.76252058  0.60642160  0.88143752  1
  Zn  Zn75  1  0.24524548  0.50236142  0.24583584  1
  Zn  Zn76  1  -0.00378035  0.11801946  0.13547090  1
  Zn  Zn77  1  0.12654852  0.09990216  0.50541113  1
  Zn  Zn78  1  0.49617571  0.12190815  0.09488725  1
  Zn  Zn79  1  0.36947849  -0.00284150  0.86079264  1
  Zn  Zn80  1  0.28018068  0.01195956  0.25078796  1
  Zn  Zn81  1  0.48668265  0.51046878  0.00947640  1
  Zn  Zn82  1  0.17553919  0.17932841  0.19637854  1
  Zn  Zn83  1  0.18035908  0.20133547  0.67905234  1
  Zn  Zn84  1  0.22933919  0.75942048  0.23914525  1
  Zn  Zn85  1  0.19273961  0.68826963  0.69076564  1
  Zn  Zn86  1  0.69005110  0.18808141  0.18351005  1
  Zn  Zn87  1  0.66804779  0.17369715  0.69269087  1
  Zn  Zn88  1  0.69363597  0.68776066  0.18175805  1
  Zn  Zn89  1  0.68708649  0.67303467  0.68197196  1
  Zn  Zn90  1  0.30203597  0.30037282  0.30390828  1
  Zn  Zn91  1  0.31075625  0.30645854  0.82138272  1
  Zn  Zn92  1  0.37407760  0.85028099  0.30118559  1
  Zn  Zn93  1  0.31833497  0.80736606  0.81021914  1
  Zn  Zn94  1  0.81035736  0.31133026  0.31203790  1
  Zn  Zn95  1  0.82223184  0.31734503  0.68844058  1
  Zn  Zn96  1  0.81190573  0.81375330  0.31377811  1
  Zn  Zn97  1  0.80896933  0.81480339  0.79948797  1
  Zn  Zn98  1  0.17227936  0.45093316  0.41808391  1
  Zn  Zn99  1  0.18049514  0.44274048  0.95318864  1
  Zn  Zn100  1  0.22742313  0.90109772  0.40036924  1
  Zn  Zn101  1  0.18778371  0.94893637  0.93452960  1
  Zn  Zn102  1  0.68134079  0.44680407  0.42753693  1
  Zn  Zn103  1  0.69412140  0.43242467  0.93029544  1
  Zn  Zn104  1  0.69519253  0.93532820  0.43076036  1
  Zn  Zn105  1  0.69210813  0.92902212  0.93296810  1
  Zn  Zn106  1  0.30815664  0.05840207  0.06077325  1
  Zn  Zn107  1  0.30024149  0.07994994  0.57031336  1
  Zn  Zn108  1  0.30796759  0.56544754  0.07878638  1
  Zn  Zn109  1  0.30192692  0.55769100  0.56491205  1
  Zn  Zn110  1  0.81172829  0.06326882  0.05878960  1
  Zn  Zn111  1  0.81808516  0.07103384  0.54213624  1
  Zn  Zn112  1  0.81243576  0.56574606  0.06810554  1
  Zn  Zn113  1  0.80568140  0.56448177  0.57070975  1
  Zn  Zn114  1  0.43285044  0.43870733  0.19174791  1
  Zn  Zn115  1  0.43145542  0.43380999  0.70131682  1
  Zn  Zn116  1  0.44634671  0.93458783  0.16589322  1
  Zn  Zn117  1  0.43776632  0.93054185  0.67767826  1
  Zn  Zn118  1  0.94049650  0.43378444  0.19211771  1
  Zn  Zn119  1  0.94541900  0.44524863  0.69645379  1
  Zn  Zn120  1  0.93788688  0.94153889  0.19444767  1
  Zn  Zn121  1  0.93239986  0.93744503  0.68189382  1
  Zn  Zn122  1  0.06406752  0.05625554  0.31858320  1
  Zn  Zn123  1  0.06119998  0.06709144  0.81653833  1
  Zn  Zn124  1  0.05951664  0.56373349  0.31631476  1
  Zn  Zn125  1  0.05784107  0.55959256  0.81681758  1
  Zn  Zn126  1  0.60329883  0.07854648  0.29129708  1
  Zn  Zn127  1  0.55270390  0.05433172  0.92513285  1
  Zn  Zn128  1  0.56519645  0.56697526  0.31004046  1
  Zn  Zn129  1  0.56327952  0.55663084  0.81171993  1
  Zn  Zn130  1  0.44821354  0.19394191  0.43745372  1
  Zn  Zn131  1  0.41836843  0.18980469  0.93107780  1
  Zn  Zn132  1  0.47242201  0.67092881  0.42949512  1
  Zn  Zn133  1  0.44918923  0.68804316  0.90819645  1
  Zn  Zn134  1  0.94655357  0.15433884  0.42902332  1
  Zn  Zn135  1  0.93323235  0.18851706  0.93731316  1
  Zn  Zn136  1  0.94512504  0.68758382  0.43548839  1
  Zn  Zn137  1  0.94126704  0.68966590  0.94085120  1
  Zn  Zn138  1  0.05279516  0.31425368  0.06074820  1
  Zn  Zn139  1  0.00357229  0.32827862  0.58844619  1
  Zn  Zn140  1  0.06522965  0.81098693  0.06579224  1
  Zn  Zn141  1  0.06612283  0.81420456  0.56804802  1
  Zn  Zn142  1  0.56212530  0.31331932  0.06031305  1
  Zn  Zn143  1  0.55687208  0.36349832  0.54450070  1
  Zn  Zn144  1  0.56690854  0.80944768  0.06058105  1
  Zn  Zn145  1  0.57068350  0.81610893  0.56906766  1
  O  O146  1  0.11575921  0.11387372  0.11649469  1
  O  O147  1  0.11655855  0.11894407  0.62778521  1
  O  O148  1  0.11006299  0.63487762  0.11197969  1
  O  O149  1  0.12098785  0.62138256  0.61896258  1
  O  O150  1  0.63278109  0.10830256  0.12229946  1
  O  O151  1  0.63240344  0.11591941  0.60533803  1
  O  O152  1  0.63692338  0.60985454  0.11393532  1
  O  O153  1  0.61480901  0.59297990  0.64196376  1
  O  O154  1  0.38060098  0.37383093  0.34133843  1
  O  O155  1  0.37598282  0.37858097  0.89298746  1
  O  O156  1  0.42150958  0.85433093  0.40773918  1
  O  O157  1  0.36889597  0.87607243  0.88766511  1
  O  O158  1  0.88009852  0.38353301  0.37164513  1
  O  O159  1  0.87859161  0.37659630  0.87240217  1
  O  O160  1  0.87557611  0.88562206  0.37672671  1
  O  O161  1  0.88125039  0.88224249  0.87502741  1
  O  O162  1  0.25819463  0.01366595  0.37384920  1
  O  O163  1  0.25500929  0.02254788  0.88106033  1
  O  O164  1  0.24694779  0.50165761  0.35663757  1
  O  O165  1  0.24939154  0.50533101  0.87709564  1
  O  O166  1  0.76672106  0.01387898  0.37384368  1
  O  O167  1  0.76207183  0.00875426  0.88289417  1
  O  O168  1  0.76276789  0.48886471  0.36121907  1
  O  O169  1  0.75683247  0.49276648  0.85642040  1
  O  O170  1  0.23270799  0.50974474  0.13626276  1
  O  O171  1  0.23224012  0.50303212  0.64442257  1
  O  O172  1  0.23797256  1.00506790  0.13747408  1
  O  O173  1  0.22399501  0.98320935  0.57707817  1
  O  O174  1  0.74781145  0.49126749  0.13089104  1
  O  O175  1  0.76459594  0.49646216  0.65422768  1
  O  O176  1  0.74367227  0.98922009  0.11288567  1
  O  O177  1  0.77751122  0.99270554  0.61566831  1
  O  O178  1  0.00107307  0.36337921  0.26072248  1
  O  O179  1  0.00811308  0.37131376  0.77023891  1
  O  O180  1  -0.00014574  0.85950953  0.24813128  1
  O  O181  1  0.00290199  0.86874967  0.75653649  1
  O  O182  1  0.51000354  0.36513555  0.24191612  1
  O  O183  1  0.50783175  0.38195659  0.77031200  1
  O  O184  1  0.51851661  0.86422189  0.23757445  1
  O  O185  1  0.52620940  0.89303449  0.73893730  1
  O  O186  1  0.51102083  0.13922871  0.25061528  1
  O  O187  1  0.49380042  0.13874181  0.74633863  1
  O  O188  1  0.50561782  0.63201380  0.23294168  1
  O  O189  1  0.48378667  0.63048169  0.80684452  1
  O  O190  1  1.00007823  0.13969916  0.25615003  1
  O  O191  1  0.99068336  0.13053100  0.75096354  1
  O  O192  1  0.99301007  0.63399858  0.24602925  1
  O  O193  1  0.99576196  0.63369562  0.74650512  1
  O  O194  1  0.37133952  0.26309323  0.01270292  1
  O  O195  1  0.40235456  0.25675359  0.53033594  1
  O  O196  1  0.37884859  0.75070942  -0.00276766  1
  O  O197  1  0.39888696  0.72449565  0.49973042  1
  O  O198  1  0.86485311  0.24925024  0.00977725  1
  O  O199  1  0.75403790  0.26702147  0.54517361  1
  O  O200  1  0.87458128  0.75595980  0.01010208  1
  O  O201  1  0.87923362  0.73860016  0.51458750  1
  O  O202  1  0.11932170  0.25914908  0.48789339  1
  O  O203  1  0.11367643  0.23450359  1.00851340  1
  O  O204  1  0.12626559  0.74057189  0.50337402  1
  O  O205  1  0.10899124  0.73667958  0.98957788  1
  O  O206  1  0.61485086  0.27565338  0.48271325  1
  O  O207  1  0.63560784  0.25172139  0.99322262  1
  O  O208  1  0.61319573  0.75912435  0.47909777  1
  O  O209  1  0.64045004  0.73219505  1.00723561  1
  O  O210  1  0.50285202  0.24192557  0.13034032  1
  O  O211  1  0.46245061  0.26471830  0.58771014  1
  O  O212  1  0.49896017  0.74908974  0.12702667  1
  O  O213  1  0.54998515  0.74348841  0.66510499  1
  O  O214  1  0.98905058  0.24766018  0.13644593  1
  O  O215  1  1.00584909  0.23337991  0.65030519  1
  O  O216  1  0.99098430  0.74496417  0.13447896  1
  O  O217  1  0.99467941  0.74483482  0.63518675  1
  O  O218  1  -0.00282121  0.25442409  0.36834246  1
  O  O219  1  -0.00764176  0.26294559  0.87084722  1
  O  O220  1  -0.00585743  0.76319513  0.36324755  1
  O  O221  1  0.00299348  0.76017146  0.86905743  1
  O  O222  1  0.50766699  0.26373366  0.35614892  1
  O  O223  1  0.50400897  0.26183327  0.88426774  1
  O  O224  1  0.52686142  0.74284763  0.34574536  1
  O  O225  1  0.48330061  0.78197824  0.84420278  1
  O  O226  1  0.24003973  0.12648681  0.48523010  1
  O  O227  1  0.23253663  0.12670200  1.00528710  1
  O  O228  1  0.23692308  0.62370904  0.50504073  1
  O  O229  1  0.22947154  0.61947016  0.99669217  1
  O  O230  1  0.73273013  0.12302557  0.48042366  1
  O  O231  1  0.75550801  0.13546680  0.98781455  1
  O  O232  1  0.71245299  0.59966356  0.51279381  1
  O  O233  1  0.75083919  0.63162803  0.99787793  1
  O  O234  1  0.25644058  0.37723613  0.00674075  1
  O  O235  1  0.28068151  0.39882843  0.48886105  1
  O  O236  1  0.25054168  0.87442337  -0.00119531  1
  O  O237  1  0.28482883  0.85799111  0.50053745  1
  O  O238  1  0.74741598  0.36527688  0.00811087  1
  O  O239  1  0.77513334  0.33748484  0.52917159  1
  O  O240  1  0.75760911  0.86534154  0.00614583  1
  O  O241  1  0.75177978  0.87626648  0.51218401  1
  O  O242  1  0.11322230  0.48240263  0.25727940  1
  O  O243  1  0.12701190  0.48551072  0.75466422  1
  O  O244  1  0.11448818  1.00115894  0.23389819  1
  O  O245  1  0.11545835  0.98569586  0.75821339  1
  O  O246  1  0.63628323  0.49501929  0.23635290  1
  O  O247  1  0.63120324  0.47926668  0.75735496  1
  O  O248  1  0.62483334  0.98431459  0.23058322  1
  O  O249  1  0.64445302  1.00389949  0.74094133  1
  O  O250  1  0.44386652  0.00978188  0.36553328  1
  O  O251  1  0.38699610  0.01816484  0.74122597  1
  O  O252  1  0.36885260  0.52310858  0.22870414  1
  O  O253  1  0.35727530  0.49102752  0.77236197  1
  O  O254  1  0.88612950  0.01188500  0.26797956  1
  O  O255  1  0.88126556  0.01268149  0.76097267  1
  O  O256  1  0.86967419  0.50683435  0.25353082  1
  O  O257  1  0.88098847  0.51699953  0.75538298  1
  O  O258  1  0.10689967  0.36398855  0.36915857  1
  O  O259  1  0.12155206  0.37410733  0.87749802  1
  O  O260  1  0.11414482  0.87616234  0.38917685  1
  O  O261  1  0.11226165  0.87051254  0.87335071  1
  O  O262  1  0.62105300  0.37224566  0.35720152  1
  O  O263  1  0.61511636  0.36358770  0.87558742  1
  O  O264  1  0.63466837  0.87316724  0.35117992  1
  O  O265  1  0.62857064  0.88053431  0.84992658  1
  O  O266  1  0.37713432  0.13784950  0.11361316  1
  O  O267  1  0.36416119  0.13990192  0.63995394  1
  O  O268  1  0.38233348  0.64091159  0.12353505  1
  O  O269  1  0.40803385  0.57530356  0.61325722  1
  O  O270  1  0.87512410  0.13537098  0.12416076  1
  O  O271  1  0.87685733  0.12436320  0.63828786  1
  O  O272  1  0.88322935  0.63454167  0.13483209  1
  O  O273  1  0.88457418  0.63150410  0.63614406  1
  O  O274  1  0.25930133  0.24064151  0.13762335  1
  O  O275  1  0.25461079  0.25404291  0.61392196  1
  O  O276  1  0.28253378  0.76355835  0.13264412  1
  O  O277  1  0.24433204  0.76350224  0.62398551  1
  O  O278  1  0.75519486  0.25505460  0.11742948  1
  O  O279  1  0.74788269  0.24936789  0.62982094  1
  O  O280  1  0.76424789  0.75578544  0.11514113  1
  O  O281  1  0.76468637  0.73739673  0.62363666  1
  O  O282  1  0.22794185  0.24070493  0.37117073  1
  O  O283  1  0.25258688  0.22929966  0.88160865  1
  O  O284  1  0.26144503  0.84170539  0.30872688  1
  O  O285  1  0.23370656  0.73877514  0.87263978  1
  O  O286  1  0.72872543  0.25299612  0.36831985  1
  O  O287  1  0.73775742  0.24096256  0.88455423  1
  O  O288  1  0.73685159  0.75495328  0.37035985  1
  O  O289  1  0.76170004  0.75351836  0.88751127  1
  O  O290  1  0.00405677  0.11392040  -0.00391395  1
  O  O291  1  0.00578284  0.13906383  0.52356757  1
  O  O292  1  0.00104924  0.61812705  0.00831278  1
  O  O293  1  0.00741656  0.62856060  0.51569064  1
  O  O294  1  0.49786029  0.13117713  -0.01662177  1
  O  O295  1  0.52041604  0.12801661  0.49136730  1
  O  O296  1  0.51972749  0.62563003  -0.00952308  1
  O  O297  1  0.54075962  0.60427742  0.49192263  1
  O  O298  1  0.47928354  0.38246432  0.46654814  1
  O  O299  1  0.49287570  0.38165077  0.99762302  1
  O  O300  1  0.46245171  0.85820034  0.56917452  1
  O  O301  1  0.52714098  0.86357474  0.97064360  1
  O  O302  1  0.99548859  0.36695173  0.48294249  1
  O  O303  1  0.99515547  0.38300480  0.99017461  1
  O  O304  1  0.99839387  0.86936019  0.49476888  1
  O  O305  1  0.99549464  0.88135836  0.99085206  1
  O  O306  1  0.49978660  0.48462755  0.34604121  1
  O  O307  1  0.48506230  0.48940510  0.88576574  1
  O  O308  1  0.51596283  1.00034464  0.36841346  1
  O  O309  1  0.48891634  0.97736684  0.86966372  1
  O  O310  1  0.98479727  0.48500581  0.37298635  1
  O  O311  1  0.99767969  0.48689337  0.88334314  1
  O  O312  1  0.99656329  0.97830827  0.37061368  1
  O  O313  1  0.99209890  0.99256162  0.88276218  1
  O  O314  1  0.00118951  -0.00083899  0.11486501  1
  O  O315  1  -0.00704107  0.01730747  0.63041807  1
  O  O316  1  -0.00975720  0.51108464  0.11974999  1
  O  O317  1  0.01746850  0.51439381  0.63742208  1
  O  O318  1  0.51826960  0.00555301  0.11482409  1
  O  O319  1  0.45968518  0.01131985  0.57788306  1
  O  O320  1  0.51996629  0.49454892  0.12325225  1
  O  O321  1  0.45646165  0.51351239  0.61582631  1
  O  O322  1  0.22429843  0.36735384  0.25082693  1
  O  O323  1  0.23434902  0.38187511  0.76673840  1
  O  O324  1  0.37651925  0.95514655  0.24967638  1
  O  O325  1  0.22936467  0.87660965  0.77127697  1
  O  O326  1  0.74283547  0.38106137  0.23854558  1
  O  O327  1  0.73391275  0.37273441  0.74874042  1
  O  O328  1  0.74269429  0.86770884  0.23205673  1
  O  O329  1  0.74098905  0.87187210  0.73107767  1
  O  O330  1  0.24106413  0.12302198  0.27145894  1
  O  O331  1  0.22657015  0.12865043  0.75842756  1
  O  O332  1  0.27401260  0.65028042  0.25555241  1
  O  O333  1  0.23368694  0.61066322  0.76818677  1
  O  O334  1  0.71934286  0.12152508  0.27193483  1
  O  O335  1  0.76132332  0.13283554  0.75860287  1
  O  O336  1  0.76340545  0.61387964  0.24051391  1
  O  O337  1  0.76477102  0.62115508  0.75552046  1
  O  O338  1  0.36073194  0.14683719  0.38246559  1
  O  O339  1  0.36222269  0.12609024  0.85267090  1
  O  O340  1  0.40009560  0.62516236  0.35117302  1
  O  O341  1  0.35428880  0.61172950  0.89752434  1
  O  O342  1  0.84878068  0.16507206  0.36922792  1
  O  O343  1  0.86660877  0.11932495  0.86755238  1
  O  O344  1  0.88633637  0.61005678  0.36594227  1
  O  O345  1  0.88024710  0.63273538  0.86258280  1
  O  O346  1  0.10848662  0.37393514  0.13852526  1
  O  O347  1  0.10686378  0.38676606  0.63497920  1
  O  O348  1  0.12394951  0.88878538  0.12045727  1
  O  O349  1  0.13665048  0.87173533  0.64195650  1
  O  O350  1  0.63636308  0.38405833  0.12665604  1
  O  O351  1  0.59959920  0.35516668  0.64854282  1
  O  O352  1  0.63441878  0.88458613  0.12223762  1
  O  O353  1  0.64427075  0.88977411  0.62381079  1
  O  O354  1  0.10546518  0.25698467  0.25452331  1
  O  O355  1  0.11737716  0.26758570  0.75366219  1
  O  O356  1  0.11248008  0.74599905  0.24636499  1
  O  O357  1  0.11298000  0.75552579  0.76155135  1
  O  O358  1  0.61628027  0.25988909  0.24558705  1
  O  O359  1  0.62565589  0.25526529  0.76762727  1
  O  O360  1  0.62463102  0.75935748  0.23531394  1
  O  O361  1  0.61421601  0.75564784  0.71851890  1
  O  O362  1  0.38895294  0.25116186  0.23215722  1
  O  O363  1  0.36654266  0.24299360  0.74302068  1
  O  O364  1  0.40247416  0.74734569  0.23975921  1
  O  O365  1  0.35243561  0.73531079  0.73484564  1
  O  O366  1  0.88340487  0.25573106  0.24084003  1
  O  O367  1  0.88312081  0.23595546  0.75369921  1
  O  O368  1  0.87731374  0.74244149  0.24399998  1
  O  O369  1  0.88482538  0.74175496  0.74334466  1
  O  O370  1  0.33187586  0.45217762  0.49892176  1
  O  O371  1  0.36971740  0.48911917  1.00195168  1
  O  O372  1  0.40229608  1.01243848  0.52923568  1
  O  O373  1  0.36905276  0.98338144  1.00068906  1
  O  O374  1  0.86410283  0.50657955  0.48592179  1
  O  O375  1  0.88192188  0.50622276  1.00067984  1
  O  O376  1  0.89349107  1.04613080  0.45695048  1
  O  O377  1  0.88346138  0.99585976  0.99136181  1
  O  O378  1  0.11609838  0.00624139  0.01009760  1
  O  O379  1  0.16388408  -0.01628129  0.52079741  1
  O  O380  1  0.10613699  0.51564895  -0.00031922  1
  O  O381  1  0.13029096  0.49559895  0.51712526  1
  O  O382  1  0.62976456  -0.00083043  0.00142952  1
  O  O383  1  0.61971282  0.00164372  0.48581824  1
  O  O384  1  0.63403369  0.50607841  0.00860337  1
  O  O385  1  0.62554542  0.46040462  0.52179288  1
  O  O386  1  0.37576658  0.36560805  0.11770233  1
  O  O387  1  0.35982762  0.36674507  0.64662217  1
  O  O388  1  0.39801837  0.86170223  0.09177148  1
  O  O389  1  0.32840841  0.89477901  0.65116618  1
  O  O390  1  0.86479926  0.36583290  0.12998454  1
  O  O391  1  0.90292220  0.36772447  0.63031211  1
  O  O392  1  0.87088605  0.87074522  0.12195046  1
  O  O393  1  0.86541785  0.85737880  0.63127809  1
  O  O394  1  0.10894313  0.13529361  0.38982396  1
  O  O395  1  0.12988650  0.12131147  0.89096200  1
  O  O396  1  0.11174049  0.61618863  0.40021353  1
  O  O397  1  0.12396975  0.63090797  0.88624707  1
  O  O398  1  0.62549688  0.14667280  0.38735181  1
  O  O399  1  0.63478291  0.12893406  0.87217151  1
  O  O400  1  0.63749458  0.63453005  0.36383864  1
  O  O401  1  0.63986128  0.61206741  0.89002702  1
