# generated using pymatgen
data_V73Zn73O256
_symmetry_space_group_name_H-M   'P 1'
_cell_length_a   16.91734069
_cell_length_b   16.93557524
_cell_length_c   16.91066716
_cell_angle_alpha   89.91522227
_cell_angle_beta   90.03083352
_cell_angle_gamma   90.02538825
_symmetry_Int_Tables_number   1
_chemical_formula_structural   V73Zn73O256
_chemical_formula_sum   'V73 Zn73 O256'
_cell_volume   4844.98245603
_cell_formula_units_Z   1
loop_
 _symmetry_equiv_pos_site_id
 _symmetry_equiv_pos_as_xyz
  1  'x, y, z'
loop_
 _atom_site_type_symbol
 _atom_site_label
 _atom_site_symmetry_multiplicity
 _atom_site_fract_x
 _atom_site_fract_y
 _atom_site_fract_z
 _atom_site_occupancy
  V  V0  1  0.76988394  0.86125427  0.61080417  1
  V  V1  1  0.12004457  0.50117897  0.60346454  1
  V  V2  1  0.24430202  0.63570755  0.87820538  1
  V  V3  1  0.50255599  -0.00336391  -0.00172584  1
  V  V4  1  0.11160211  -0.01524731  0.63163260  1
  V  V5  1  0.56412101  0.04640277  0.17954754  1
  V  V6  1  0.35878785  0.63314391  0.24584893  1
  V  V7  1  0.01342729  0.77816484  0.23229050  1
  V  V8  1  0.75208328  -0.00586446  0.75673374  1
  V  V9  1  0.60457111  0.24681717  0.36604881  1
  V  V10  1  0.01128328  0.86933447  0.87611819  1
  V  V11  1  0.59297177  0.74985383  0.37539884  1
  V  V12  1  0.86966448  0.24880973  0.62911828  1
  V  V13  1  0.74481012  0.63154058  0.87016084  1
  V  V14  1  0.00039582  0.25426686  0.75154675  1
  V  V15  1  0.23962639  0.48727905  0.24123822  1
  V  V16  1  -0.03128831  0.24708796  0.25716829  1
  V  V17  1  0.50126363  0.87566105  0.87174627  1
  V  V18  1  0.24849364  0.38479485  0.62668288  1
  V  V19  1  0.62786159  0.00156411  0.61086084  1
  V  V20  1  0.62057978  0.62815395  -0.01063910  1
  V  V21  1  0.25010578  0.24849243  0.50126307  1
  V  V22  1  0.51698728  0.36538252  0.85776573  1
  V  V23  1  0.59909876  0.86204348  0.24185059  1
  V  V24  1  0.33552589  0.00613204  0.37968107  1
  V  V25  1  0.36969890  0.62873121  0.74314489  1
  V  V26  1  0.36841757  0.75683231  0.11243036  1
  V  V27  1  0.36411966  0.49846997  0.86236442  1
  V  V28  1  0.00044302  0.62164926  0.61483773  1
  V  V29  1  0.39101375  0.88027557  0.51007691  1
  V  V30  1  0.50180053  0.74833471  0.74905884  1
  V  V31  1  0.11283430  0.13076941  0.52303977  1
  V  V32  1  0.24997008  0.11730369  0.87220983  1
  V  V33  1  0.61368422  0.12889297  0.00088283  1
  V  V34  1  0.87143005  0.38101127  0.50812930  1
  V  V35  1  0.02156403  0.74670642  0.75540985  1
  V  V36  1  0.12338378  0.38535358  0.75760247  1
  V  V37  1  0.00624592  0.38106806  0.37643908  1
  V  V38  1  0.74940088  0.87610560  0.13401139  1
  V  V39  1  0.38350675  0.38514925  0.49501008  1
  V  V40  1  0.62539050  0.49476681  0.61402961  1
  V  V41  1  0.87732255  0.63558317  0.24063920  1
  V  V42  1  0.62889470  0.86852809  0.75060942  1
  V  V43  1  0.38298627  0.50349121  0.37053530  1
  V  V44  1  -0.02921646  0.13783802  0.13127719  1
  V  V45  1  -0.00034732  0.60689982  0.11708100  1
  V  V46  1  0.49900371  0.62679026  0.13075104  1
  V  V47  1  0.74424074  0.12552392  0.87770481  1
  V  V48  1  0.87057528  0.47883913  0.87611624  1
  V  V49  1  0.13416332  0.25248385  0.87547885  1
  V  V50  1  0.74715146  0.24437713  0.49019223  1
  V  V51  1  0.49982859  0.62995388  0.61112834  1
  V  V52  1  0.35806480  0.37049251  -0.00268754  1
  V  V53  1  0.13259997  0.24320454  0.36819007  1
  V  V54  1  0.74561370  0.49380237  0.73783404  1
  V  V55  1  0.38602531  0.24926400  0.62663676  1
  V  V56  1  0.74987930  0.74797616  0.00881740  1
  V  V57  1  0.86623039  0.49571353  0.37132768  1
  V  V58  1  0.75758611  0.37003174  0.12600692  1
  V  V59  1  0.87693702  0.63338127  0.74967271  1
  V  V60  1  0.75070782  0.00128665  0.25543290  1
  V  V61  1  0.88360290  0.12155419  0.75583215  1
  V  V62  1  0.25234479  -0.00600347  0.73770768  1
  V  V63  1  0.23433987  0.76080864  0.50640690  1
  V  V64  1  0.01326319  0.89510043  0.38447653  1
  V  V65  1  0.38304905  0.21489555  0.15373583  1
  V  V66  1  0.62009136  0.49154291  0.12262039  1
  V  V67  1  0.38566554  0.12817816  0.75056975  1
  V  V68  1  0.49898477  0.49756704  -0.01319578  1
  V  V69  1  0.12551314  0.13121371  0.01699615  1
  V  V70  1  0.75853080  0.25071397  0.00408749  1
  V  V71  1  0.76459902  0.64999840  0.37819630  1
  V  V72  1  0.36350717  0.87501114  -0.00788562  1
  Zn  Zn73  1  0.12242745  0.61627205  -0.00518381  1
  Zn  Zn74  1  0.60700428  0.37683632  0.25978983  1
  Zn  Zn75  1  0.88385870  -0.00030827  0.89159112  1
  Zn  Zn76  1  0.87115440  0.87203207  0.00151518  1
  Zn  Zn77  1  0.21955709  0.62604716  0.38838051  1
  Zn  Zn78  1  0.00598111  -0.02736002  0.04435843  1
  Zn  Zn79  1  0.74472669  0.50277245  0.24919864  1
  Zn  Zn80  1  0.00762632  0.46243937  0.99023327  1
  Zn  Zn81  1  0.64183734  0.63207469  0.49728815  1
  Zn  Zn82  1  0.21232139  0.30273870  0.18926760  1
  Zn  Zn83  1  0.19584353  0.19442221  0.69227108  1
  Zn  Zn84  1  0.17016423  0.69661347  0.14889736  1
  Zn  Zn85  1  0.18676201  0.68454257  0.68015242  1
  Zn  Zn86  1  0.68266488  0.18910028  0.18939118  1
  Zn  Zn87  1  0.68142125  0.18781152  0.68808497  1
  Zn  Zn88  1  0.68211923  0.68546070  0.19225421  1
  Zn  Zn89  1  0.68683737  0.68565166  0.68265544  1
  Zn  Zn90  1  0.43195740  0.31741481  0.31139574  1
  Zn  Zn91  1  0.31313555  0.31525569  0.80991929  1
  Zn  Zn92  1  0.19529438  0.81274611  0.30953462  1
  Zn  Zn93  1  0.31445281  0.81182211  0.80848411  1
  Zn  Zn94  1  0.79901341  0.32459034  0.31434859  1
  Zn  Zn95  1  0.77795407  0.30258354  0.80085277  1
  Zn  Zn96  1  0.86390541  0.81303873  0.44330213  1
  Zn  Zn97  1  0.81581533  0.81165454  0.81774077  1
  Zn  Zn98  1  0.19761661  0.43653303  0.42598883  1
  Zn  Zn99  1  0.17924581  0.44244247  1.05555334  1
  Zn  Zn100  1  0.17551570  0.93548180  0.45730407  1
  Zn  Zn101  1  0.15892351  0.92432072  0.98949619  1
  Zn  Zn102  1  0.68387857  0.43096467  0.44059492  1
  Zn  Zn103  1  0.69220085  0.43851264  0.93584162  1
  Zn  Zn104  1  0.69236142  0.90469564  0.43122997  1
  Zn  Zn105  1  0.68185734  0.93600119  0.93874208  1
  Zn  Zn106  1  0.31452686  0.05958429  0.05493131  1
  Zn  Zn107  1  0.31279259  0.06503416  0.56416178  1
  Zn  Zn108  1  0.31452396  0.55654410  0.05743122  1
  Zn  Zn109  1  0.30662007  0.56810065  0.56179197  1
  Zn  Zn110  1  0.81023961  0.05324686  0.06394677  1
  Zn  Zn111  1  0.78471501  0.07898474  0.58927408  1
  Zn  Zn112  1  0.81058754  0.55674936  0.05904895  1
  Zn  Zn113  1  0.81898943  0.56691332  0.55994462  1
  Zn  Zn114  1  0.42949413  0.44259264  0.18005724  1
  Zn  Zn115  1  0.44453236  0.44206448  0.68210301  1
  Zn  Zn116  1  0.38669965  0.88025590  0.27527893  1
  Zn  Zn117  1  0.44356253  0.94617038  0.68243498  1
  Zn  Zn118  1  0.94004520  0.43594658  0.19132513  1
  Zn  Zn119  1  0.93826308  0.44111849  0.69271210  1
  Zn  Zn120  1  0.96248380  0.98401095  0.23908887  1
  Zn  Zn121  1  0.94131044  0.93322325  0.69654842  1
  Zn  Zn122  1  0.13067400  0.04011230  0.33034732  1
  Zn  Zn123  1  0.06900129  0.05383740  0.81705100  1
  Zn  Zn124  1  0.06124589  0.56039489  0.30678983  1
  Zn  Zn125  1  0.05858864  0.55587516  0.82489062  1
  Zn  Zn126  1  0.69299544  0.07342942  0.42793706  1
  Zn  Zn127  1  0.56556459  0.05689626  0.81272025  1
  Zn  Zn128  1  0.56812532  0.56778530  0.31329715  1
  Zn  Zn129  1  0.56162903  0.55791992  0.80340466  1
  Zn  Zn130  1  0.44089487  0.14628610  0.32119501  1
  Zn  Zn131  1  0.43700786  0.19347297  0.93309183  1
  Zn  Zn132  1  0.39770189  0.68903170  0.44183086  1
  Zn  Zn133  1  0.43630756  0.68877060  0.92932529  1
  Zn  Zn134  1  0.94465593  0.19913976  0.44488766  1
  Zn  Zn135  1  0.96109057  0.25144459  0.96093658  1
  Zn  Zn136  1  1.04222470  0.70602034  0.42998323  1
  Zn  Zn137  1  0.93276422  0.68587263  0.93477629  1
  Zn  Zn138  1  0.05400995  0.31933449  0.08376126  1
  Zn  Zn139  1  0.05681635  0.31427010  0.56664760  1
  Zn  Zn140  1  0.05696625  0.79287889  0.05757675  1
  Zn  Zn141  1  0.03779527  0.81213093  0.55749990  1
  Zn  Zn142  1  0.54608972  0.31118801  0.05792876  1
  Zn  Zn143  1  0.56525036  0.31265586  0.55714878  1
  Zn  Zn144  1  0.55871894  0.80793858  0.05734571  1
  Zn  Zn145  1  0.56659862  0.81385758  0.56333106  1
  O  O146  1  0.14615143  0.13841823  0.11058325  1
  O  O147  1  0.12308467  0.13655154  0.62389501  1
  O  O148  1  0.09849150  0.60152478  0.13600028  1
  O  O149  1  0.11482790  0.60708505  0.62984713  1
  O  O150  1  0.61767780  0.11547821  0.11500735  1
  O  O151  1  0.65470050  0.10204601  0.62268383  1
  O  O152  1  0.61313911  0.61669337  0.11539729  1
  O  O153  1  0.61406874  0.62608531  0.61368552  1
  O  O154  1  0.37367643  0.38913325  0.38537785  1
  O  O155  1  0.37982356  0.38872813  0.87095963  1
  O  O156  1  0.37449465  0.90140423  0.39230156  1
  O  O157  1  0.38802361  0.86739577  0.88417410  1
  O  O158  1  0.87902728  0.38034779  0.38411025  1
  O  O159  1  0.85312937  0.38135032  0.85995595  1
  O  O160  1  0.91028597  0.89089777  0.37077033  1
  O  O161  1  0.87973097  0.87868396  0.87965970  1
  O  O162  1  0.23041138  0.01019392  0.38197364  1
  O  O163  1  0.24700404  0.01752889  0.85595127  1
  O  O164  1  0.25823984  0.51114144  0.36227128  1
  O  O165  1  0.26657910  0.51016684  0.86056480  1
  O  O166  1  0.73260148  -0.01022910  0.36021975  1
  O  O167  1  0.75189664  0.00381928  0.87122782  1
  O  O168  1  0.75744354  0.49654131  0.37302466  1
  O  O169  1  0.75200721  0.50845661  0.85729634  1
  O  O170  1  0.24860348  0.50427011  0.13489180  1
  O  O171  1  0.23351298  0.49695774  0.61941024  1
  O  O172  1  0.24014715  0.98742503  0.11658056  1
  O  O173  1  0.23926645  1.00637851  0.63474821  1
  O  O174  1  0.73696010  0.48466519  0.11785468  1
  O  O175  1  0.74050385  0.51644603  0.62992862  1
  O  O176  1  0.74096778  0.98163233  0.12585601  1
  O  O177  1  0.75161094  0.98030345  0.63799692  1
  O  O178  1  -0.00970445  0.36164300  0.26709644  1
  O  O179  1  0.01257500  0.36765051  0.74683885  1
  O  O180  1  -0.00574997  0.87259244  0.21069114  1
  O  O181  1  -0.00070327  0.85225738  0.75830677  1
  O  O182  1  0.49422979  0.38744949  0.25087194  1
  O  O183  1  0.50019935  0.38050186  0.75862568  1
  O  O184  1  0.50000803  0.86708855  0.24396953  1
  O  O185  1  0.50633981  0.87049466  0.75173198  1
  O  O186  1  0.51298127  0.10031482  0.24482902  1
  O  O187  1  0.48510676  0.12166614  0.75993250  1
  O  O188  1  0.49588348  0.61719273  0.23175852  1
  O  O189  1  0.49622995  0.63452588  0.74407964  1
  O  O190  1  0.98994004  0.14478549  0.24501234  1
  O  O191  1  0.98569571  0.12938851  0.76108773  1
  O  O192  1  0.98081355  0.60410431  0.23683051  1
  O  O193  1  0.98932266  0.63006546  0.75745020  1
  O  O194  1  0.37038252  0.27040641  -0.01577839  1
  O  O195  1  0.36053940  0.26821928  0.51181020  1
  O  O196  1  0.38254617  0.76091840  0.00069102  1
  O  O197  1  0.36242881  0.77911094  0.49579745  1
  O  O198  1  0.85598911  0.24276213  0.00656987  1
  O  O199  1  0.86961346  0.25764290  0.50779669  1
  O  O200  1  0.85122597  0.74485563  -0.00351434  1
  O  O201  1  0.95523746  0.76331028  0.48764124  1
  O  O202  1  0.13216506  0.24823037  0.50491957  1
  O  O203  1  0.12917166  0.24146325  0.97782178  1
  O  O204  1  0.12869448  0.75028360  0.50626615  1
  O  O205  1  0.13724456  0.71881392  1.03610837  1
  O  O206  1  0.64309511  0.25468883  0.49993880  1
  O  O207  1  0.62014246  0.23084419  1.00713820  1
  O  O208  1  0.61986940  0.75014548  0.47903904  1
  O  O209  1  0.62879708  0.73343342  0.99740212  1
  O  O210  1  0.47123981  0.25420118  0.11810303  1
  O  O211  1  0.48454125  0.25813982  0.61839670  1
  O  O212  1  0.49187620  0.72971819  0.11289491  1
  O  O213  1  0.50487494  0.73808807  0.63370074  1
  O  O214  1  0.98800655  0.25282190  0.15149689  1
  O  O215  1  0.98504027  0.25443848  0.63969824  1
  O  O216  1  0.99649331  0.72557452  0.13719036  1
  O  O217  1  1.00797338  0.72884384  0.64413646  1
  O  O218  1  0.01004299  0.25459503  0.36562299  1
  O  O219  1  0.01700039  0.24523178  0.86053276  1
  O  O220  1  0.01352068  0.78257544  0.33966840  1
  O  O221  1  -0.00211009  0.75013748  0.86251532  1
  O  O222  1  0.50122799  0.24228971  0.37418683  1
  O  O223  1  0.50161088  0.26683787  0.87339350  1
  O  O224  1  0.49654533  0.73413555  0.37498954  1
  O  O225  1  0.50041881  0.75923698  0.85959533  1
  O  O226  1  0.24307302  0.14669994  0.51189260  1
  O  O227  1  0.24134326  0.11743019  0.98033083  1
  O  O228  1  0.28317560  0.64457679  0.48544833  1
  O  O229  1  0.25779387  0.61735573  0.97847494  1
  O  O230  1  0.76309496  0.13732324  0.49518580  1
  O  O231  1  0.73660939  0.12863584  1.00003277  1
  O  O232  1  0.76140683  0.62704999  0.48078514  1
  O  O233  1  0.73976529  0.62992593  0.99226884  1
  O  O234  1  0.26036618  0.38896176  -0.01380920  1
  O  O235  1  0.25314073  0.37343460  0.51060917  1
  O  O236  1  0.26579162  0.88467742  -0.01354173  1
  O  O237  1  0.24422620  0.86408385  0.50947946  1
  O  O238  1  0.73999921  0.35892619  0.00918637  1
  O  O239  1  0.76662871  0.36345490  0.49894137  1
  O  O240  1  0.73462454  0.85709482  0.00633722  1
  O  O241  1  0.77417339  0.86645710  0.50445041  1
  O  O242  1  0.14066267  0.49560085  0.25720050  1
  O  O243  1  0.11894309  0.48581486  0.75319486  1
  O  O244  1  0.15559407  1.00016628  0.21753071  1
  O  O245  1  0.13977373  1.00309118  0.73970355  1
  O  O246  1  0.62643846  0.50285096  0.23572193  1
  O  O247  1  0.63870541  0.50977634  0.73343642  1
  O  O248  1  0.61865614  0.97659671  0.23827276  1
  O  O249  1  0.63652025  0.98957832  0.74347182  1
  O  O250  1  0.36360924  -0.00163915  0.28139622  1
  O  O251  1  0.36729705  0.02108589  0.73482224  1
  O  O252  1  0.36529680  0.51080930  0.25502199  1
  O  O253  1  0.38674557  0.51407543  0.75681613  1
  O  O254  1  0.84975776  -0.00133059  0.24785258  1
  O  O255  1  0.86769847  0.01060587  0.75064311  1
  O  O256  1  0.86564534  0.49643808  0.26045433  1
  O  O257  1  0.86465773  0.50879281  0.75497682  1
  O  O258  1  0.11050833  0.36558136  0.38474524  1
  O  O259  1  0.13229698  0.36135490  0.85944501  1
  O  O260  1  0.12485217  0.88166853  0.36740714  1
  O  O261  1  0.10985875  0.87428826  0.89010107  1
  O  O262  1  0.62582890  0.35605852  0.37869692  1
  O  O263  1  0.61573478  0.38256171  0.87346024  1
  O  O264  1  0.61557084  0.85598794  0.36030608  1
  O  O265  1  0.61662764  0.87763343  0.86037232  1
  O  O266  1  0.37938029  0.11736424  0.12484901  1
  O  O267  1  0.37336024  0.14288079  0.63090637  1
  O  O268  1  0.38678813  0.62082513  0.12589448  1
  O  O269  1  0.38849644  0.61180549  0.63772008  1
  O  O270  1  0.87235655  0.13321203  0.12236959  1
  O  O271  1  0.86838266  0.13271931  0.64692284  1
  O  O272  1  0.86864099  0.61777373  0.13669625  1
  O  O273  1  0.88923940  0.61327433  0.64018232  1
  O  O274  1  0.29272999  0.25362355  0.12883244  1
  O  O275  1  0.25571358  0.26644131  0.61852807  1
  O  O276  1  0.27268327  0.73561714  0.11227870  1
  O  O277  1  0.25134323  0.73386055  0.60593448  1
  O  O278  1  0.73774133  0.26051922  0.11710075  1
  O  O279  1  0.76485649  0.24747128  0.61424778  1
  O  O280  1  0.73982005  0.74735773  0.11243424  1
  O  O281  1  0.74943327  0.76374167  0.62696772  1
  O  O282  1  0.23620175  0.26344531  0.39721523  1
  O  O283  1  0.23882901  0.24119219  0.85939833  1
  O  O284  1  0.23806350  0.74354968  0.39098734  1
  O  O285  1  0.25651537  0.73477923  0.86820790  1
  O  O286  1  0.75243769  0.25084956  0.38875948  1
  O  O287  1  0.74802506  0.23707586  0.89643652  1
  O  O288  1  0.77917105  0.74720958  0.37996059  1
  O  O289  1  0.74750176  0.73617492  0.88112277  1
  O  O290  1  0.01184604  0.15731923  0.02986792  1
  O  O291  1  0.01404219  0.13750076  0.50974355  1
  O  O292  1  -0.00866961  0.62721915  0.01313252  1
  O  O293  1  -0.00588724  0.62084468  0.51851324  1
  O  O294  1  0.50740491  0.11471591  -0.01387111  1
  O  O295  1  0.51134220  0.05101393  0.45868637  1
  O  O296  1  0.50442800  0.61616895  -0.00509948  1
  O  O297  1  0.48342838  0.63397060  0.51349237  1
  O  O298  1  0.48139007  0.37711803  0.50395157  1
  O  O299  1  0.49314055  0.38693756  0.98230024  1
  O  O300  1  0.49272661  0.87618744  0.50286844  1
  O  O301  1  0.50289176  0.87955992  0.98834511  1
  O  O302  1  0.98463669  0.36273390  0.48528018  1
  O  O303  1  0.98775005  0.35280969  1.00274864  1
  O  O304  1  1.02223867  0.90847184  0.48376638  1
  O  O305  1  0.98677605  0.85138085  0.98119557  1
  O  O306  1  0.48259980  0.51297251  0.37114343  1
  O  O307  1  0.49630771  0.49580969  0.87576610  1
  O  O308  1  0.52709670  1.00991025  0.40141307  1
  O  O309  1  0.50144079  0.98572489  0.88069668  1
  O  O310  1  0.98972512  0.48328116  0.36973968  1
  O  O311  1  0.97572622  0.49396708  0.87547317  1
  O  O312  1  1.02552972  0.99260516  0.33524824  1
  O  O313  1  0.99752650  0.97673379  0.86050500  1
  O  O314  1  -0.00103037  0.03784570  0.14122552  1
  O  O315  1  0.01367161  0.00519917  0.64475287  1
  O  O316  1  -0.02211610  0.50189806  0.10755323  1
  O  O317  1  0.01145760  0.50651784  0.62905245  1
  O  O318  1  0.50379330  -0.00243238  0.11387151  1
  O  O319  1  0.52873180  0.00025402  0.62415877  1
  O  O320  1  0.50306929  0.51099622  0.10713242  1
  O  O321  1  0.51641638  0.51722081  0.62799853  1
  O  O322  1  0.26045937  0.38975229  0.25215894  1
  O  O323  1  0.23575954  0.37181398  0.73638084  1
  O  O324  1  0.28297537  0.84589699  0.24757031  1
  O  O325  1  0.26641062  0.89647508  0.75267842  1
  O  O326  1  0.73402560  0.37552002  0.23309853  1
  O  O327  1  0.75616821  0.39704335  0.73292525  1
  O  O328  1  0.73325133  0.88036828  0.23811130  1
  O  O329  1  0.74462863  0.87842553  0.75212218  1
  O  O330  1  0.22295288  0.02303307  0.18597439  1
  O  O331  1  0.26095703  0.12127775  0.75286227  1
  O  O332  1  0.25805559  0.62536871  0.24017230  1
  O  O333  1  0.26694338  0.62812849  0.75083084  1
  O  O334  1  0.72660981  0.09837882  0.24045705  1
  O  O335  1  0.75228652  0.11055108  0.76069972  1
  O  O336  1  0.75982665  0.62784553  0.25955318  1
  O  O337  1  0.75916074  0.62349532  0.75179703  1
  O  O338  1  0.37351324  0.10136920  0.39727529  1
  O  O339  1  0.36169460  0.13696619  0.86008888  1
  O  O340  1  0.37472432  0.61970718  0.35222275  1
  O  O341  1  0.37265521  0.61771698  0.86120870  1
  O  O342  1  0.89452050  0.09248261  0.39392236  1
  O  O343  1  0.86026532  0.12055099  0.86403622  1
  O  O344  1  0.86732369  0.61266381  0.36123156  1
  O  O345  1  0.86358174  0.61731063  0.86270030  1
  O  O346  1  0.14150675  0.36401300  0.12741607  1
  O  O347  1  0.12653137  0.38800642  0.63014406  1
  O  O348  1  0.09095604  0.89888767  0.07610345  1
  O  O349  1  0.11098912  0.88631584  0.62098902  1
  O  O350  1  0.61542017  0.38701136  0.11785860  1
  O  O351  1  0.61971058  0.39602302  0.61555533  1
  O  O352  1  0.62526145  0.85364649  0.13783390  1
  O  O353  1  0.64034650  0.88158581  0.63064287  1
  O  O354  1  0.14340089  0.24600321  0.26971458  1
  O  O355  1  0.11673589  0.25962581  0.74959343  1
  O  O356  1  0.11997871  0.76454306  0.22785752  1
  O  O357  1  0.12027233  0.74195993  0.75479136  1
  O  O358  1  0.62193987  0.25273073  0.26247507  1
  O  O359  1  0.67559779  0.26485089  0.76214189  1
  O  O360  1  0.61786098  0.75261761  0.26066663  1
  O  O361  1  0.61742007  0.76050393  0.74224080  1
  O  O362  1  0.38350949  0.22597087  0.25982067  1
  O  O363  1  0.37107143  0.24528545  0.73483673  1
  O  O364  1  0.38074708  0.73257474  0.22726745  1
  O  O365  1  0.38599561  0.73648177  0.74909826  1
  O  O366  1  0.87052660  0.24599451  0.26767602  1
  O  O367  1  0.87639651  0.24075898  0.74989237  1
  O  O368  1  0.89473827  0.73205900  0.25011002  1
  O  O369  1  0.87426585  0.73402312  0.75031798  1
  O  O370  1  0.36625362  0.49315430  0.48611889  1
  O  O371  1  0.38330547  0.50002884  0.97766282  1
  O  O372  1  0.35723057  0.98938919  0.49584983  1
  O  O373  1  0.38849243  0.98279357  1.00268370  1
  O  O374  1  0.87139672  0.48635640  0.49261040  1
  O  O375  1  0.85528471  0.49377375  0.97635842  1
  O  O376  1  0.88728067  1.03779378  0.44303435  1
  O  O377  1  0.89124906  0.99175501  1.00864169  1
  O  O378  1  0.10354548  0.03254810  -0.00920977  1
  O  O379  1  0.13044127  0.02231782  0.52452142  1
  O  O380  1  0.11336964  0.50481408  -0.01085449  1
  O  O381  1  0.12197095  0.49468777  0.50535175  1
  O  O382  1  0.61245229  0.00792271  -0.00165971  1
  O  O383  1  0.65078372  -0.01017202  0.50874787  1
  O  O384  1  0.61805710  0.50812173  0.00319629  1
  O  O385  1  0.63508551  0.51084451  0.50895597  1
  O  O386  1  0.37547260  0.39419074  0.09450513  1
  O  O387  1  0.36759882  0.37887048  0.61799476  1
  O  O388  1  0.37703889  0.85985615  0.10612489  1
  O  O389  1  0.37913483  0.88729002  0.61238778  1
  O  O390  1  0.85508609  0.37539844  0.13041182  1
  O  O391  1  0.88280211  0.37217891  0.61279671  1
  O  O392  1  0.84699508  0.86303572  0.12102874  1
  O  O393  1  0.86716187  0.87117099  0.63473612  1
  O  O394  1  0.12560100  0.14192739  0.39283782  1
  O  O395  1  0.13698129  0.13658880  0.86345280  1
  O  O396  1  0.10657504  0.62887073  0.37976293  1
  O  O397  1  0.14156423  0.62091614  0.86882428  1
  O  O398  1  0.62566119  0.14950750  0.38305725  1
  O  O399  1  0.63370356  0.11708935  0.88738467  1
  O  O400  1  0.64254174  0.64181693  0.37024067  1
  O  O401  1  0.63267444  0.61421165  0.87946624  1
