# generated using pymatgen
data_V73Zn73O256
_symmetry_space_group_name_H-M   'P 1'
_cell_length_a   16.89133928
_cell_length_b   16.92737807
_cell_length_c   16.89773885
_cell_angle_alpha   90.32180920
_cell_angle_beta   89.97487125
_cell_angle_gamma   90.10755488
_symmetry_Int_Tables_number   1
_chemical_formula_structural   V73Zn73O256
_chemical_formula_sum   'V73 Zn73 O256'
_cell_volume   4831.41916797
_cell_formula_units_Z   1
loop_
 _symmetry_equiv_pos_site_id
 _symmetry_equiv_pos_as_xyz
  1  'x, y, z'
loop_
 _atom_site_type_symbol
 _atom_site_label
 _atom_site_symmetry_multiplicity
 _atom_site_fract_x
 _atom_site_fract_y
 _atom_site_fract_z
 _atom_site_occupancy
  V  V0  1  0.63217214  0.88322137  0.75041697  1
  V  V1  1  0.38948839  0.23876136  0.62287641  1
  V  V2  1  0.87622479  0.50210864  0.87495843  1
  V  V3  1  -0.00429532  0.24535493  0.74602771  1
  V  V4  1  0.61823871  0.74636831  0.37833173  1
  V  V5  1  0.13906522  0.62558159  0.00122370  1
  V  V6  1  0.38183285  0.00370255  0.38872120  1
  V  V7  1  0.24246590  0.12468268  0.37867700  1
  V  V8  1  0.62301576  0.13175498  0.00463791  1
  V  V9  1  0.86155405  0.37042235  0.49698778  1
  V  V10  1  0.23762684  0.50529543  0.25067295  1
  V  V11  1  0.39002813  0.13257803  0.24882801  1
  V  V12  1  0.00663807  0.00475638  -0.00417876  1
  V  V13  1  0.75574053  0.75910457  0.00634496  1
  V  V14  1  0.86324805  0.11008837  0.24978905  1
  V  V15  1  0.00169177  0.48986645  0.49706383  1
  V  V16  1  0.39012805  0.12698257  0.75932851  1
  V  V17  1  0.12639002  0.23811713  0.88206850  1
  V  V18  1  0.87048749  0.74953141  0.61214376  1
  V  V19  1  0.25198763  0.36958356  0.63045374  1
  V  V20  1  0.86370234  0.11982901  0.74346899  1
  V  V21  1  0.61956567  0.74454543  0.86575235  1
  V  V22  1  0.00257385  0.87657023  0.87072216  1
  V  V23  1  0.87577116  0.62118243  0.75377188  1
  V  V24  1  0.12615823  0.87594848  0.74050858  1
  V  V25  1  0.25295215  0.00020348  0.24566048  1
  V  V26  1  0.13066177  -0.00234480  0.12248700  1
  V  V27  1  0.75268793  0.87351081  0.61733389  1
  V  V28  1  0.00792103  0.50445592  0.01106627  1
  V  V29  1  0.13828673  0.74574518  0.87378726  1
  V  V30  1  0.87124820  0.37335859  0.00311677  1
  V  V31  1  0.11369465  0.01402980  0.61756600  1
  V  V32  1  0.86480395  0.24982048  0.62357069  1
  V  V33  1  0.48911477  0.86698680  0.38541884  1
  V  V34  1  0.62055935  0.62668153  0.02124881  1
  V  V35  1  0.86870391  0.24676168  0.12234687  1
  V  V36  1  0.63225260  0.49437882  0.64483783  1
  V  V37  1  0.00309956  0.62140518  0.61807859  1
  V  V38  1  0.63501835  -0.01036963  0.12624395  1
  V  V39  1  0.86584097  -0.00126823  0.87009188  1
  V  V40  1  0.73561450  0.50162749  0.24334023  1
  V  V41  1  0.49907412  0.38465141  0.34969788  1
  V  V42  1  -0.00459993  0.25283307  0.25450206  1
  V  V43  1  -0.00051399  0.74543576  0.75107131  1
  V  V44  1  0.73578929  0.37480149  0.12603136  1
  V  V45  1  0.62258303  0.01200488  0.61889922  1
  V  V46  1  0.87513748  0.87570845  0.00967715  1
  V  V47  1  0.25463016  0.00948666  0.75593858  1
  V  V48  1  0.49683314  0.38262225  0.86079815  1
  V  V49  1  0.60466581  0.61712595  0.50405720  1
  V  V50  1  0.00537960  0.12357704  0.12216281  1
  V  V51  1  0.12466162  0.86498811  0.25541864  1
  V  V52  1  0.85813848  -0.01371308  0.37162646  1
  V  V53  1  0.87610994  0.63281528  0.24059440  1
  V  V54  1  0.75202236  0.62514723  0.38834829  1
  V  V55  1  0.35896733  0.50867055  0.86711050  1
  V  V56  1  0.36473822  0.73941779  0.10512970  1
  V  V57  1  0.51077984  0.61979467  0.66663350  1
  V  V58  1  0.40012196  0.74926271  0.62621730  1
  V  V59  1  0.49105935  0.88311725  0.87093730  1
  V  V60  1  0.10772625  0.24949495  0.38275542  1
  V  V61  1  0.75169597  0.38220350  0.64825361  1
  V  V62  1  0.00081122  0.00616520  0.48633212  1
  V  V63  1  0.26268165  0.87687182  0.60769218  1
  V  V64  1  0.74780389  0.14184044  0.88235110  1
  V  V65  1  0.23711968  0.36770173  0.12548120  1
  V  V66  1  0.75514599  0.62568933  0.87536905  1
  V  V67  1  0.12497712  0.49194370  0.62476099  1
  V  V68  1  0.38957434  0.25495127  0.12396411  1
  V  V69  1  0.38697437  0.62687219  0.25042974  1
  V  V70  1  0.00323869  0.37514421  0.87613272  1
  V  V71  1  0.24992654  0.25078628  0.49973549  1
  V  V72  1  0.87550204  0.48790872  0.37125962  1
  Zn  Zn73  1  0.37083060  0.50186386  0.37220987  1
  Zn  Zn74  1  0.62655345  0.87845289  0.24736728  1
  Zn  Zn75  1  0.50273778  -0.00026634  0.00032411  1
  Zn  Zn76  1  0.25360767  0.24285273  -0.00198185  1
  Zn  Zn77  1  0.01163177  0.66309537  0.14277454  1
  Zn  Zn78  1  0.67472932  0.13398605  0.48888327  1
  Zn  Zn79  1  0.12587189  0.37548177  0.75416483  1
  Zn  Zn80  1  -0.00026808  0.86388211  0.37651914  1
  Zn  Zn81  1  0.11649747  0.37440344  0.25477220  1
  Zn  Zn82  1  0.18797651  0.18745696  0.19396574  1
  Zn  Zn83  1  0.18465555  0.18995260  0.69360354  1
  Zn  Zn84  1  0.20151691  0.69403880  0.17507386  1
  Zn  Zn85  1  0.20125482  0.68065000  0.64485690  1
  Zn  Zn86  1  0.68446345  0.18175695  0.18293417  1
  Zn  Zn87  1  0.60680263  0.22804671  0.63897099  1
  Zn  Zn88  1  0.69270388  0.71005239  0.19843233  1
  Zn  Zn89  1  0.69224962  0.68692650  0.68914100  1
  Zn  Zn90  1  0.31038740  0.31622490  0.31093122  1
  Zn  Zn91  1  0.31597045  0.30923859  0.81105482  1
  Zn  Zn92  1  0.33392666  0.82825676  0.28362465  1
  Zn  Zn93  1  0.31206710  0.81187465  0.79573693  1
  Zn  Zn94  1  0.80274446  0.30910243  0.30356231  1
  Zn  Zn95  1  0.81340562  0.31037168  0.81599109  1
  Zn  Zn96  1  0.80642047  0.81640464  0.30336071  1
  Zn  Zn97  1  0.81241182  0.81008127  0.81293996  1
  Zn  Zn98  1  0.18799510  0.43401553  0.43505465  1
  Zn  Zn99  1  0.20897927  0.44305711  0.94783936  1
  Zn  Zn100  1  0.18539777  0.94190393  0.43423128  1
  Zn  Zn101  1  0.18884859  1.06316474  0.93310850  1
  Zn  Zn102  1  0.68372662  0.44858787  0.44364050  1
  Zn  Zn103  1  0.68566175  0.44348871  0.94623368  1
  Zn  Zn104  1  0.68171833  0.93116604  0.44552329  1
  Zn  Zn105  1  0.68406395  0.93802463  0.94058067  1
  Zn  Zn106  1  0.31257576  0.08037187  0.07116841  1
  Zn  Zn107  1  0.30427148  0.06540069  0.56728711  1
  Zn  Zn108  1  0.31764831  0.55044168  0.06591729  1
  Zn  Zn109  1  0.31582907  0.56792557  0.67837906  1
  Zn  Zn110  1  0.81165703  0.05659302  0.05972618  1
  Zn  Zn111  1  0.80940704  0.04861828  0.56033010  1
  Zn  Zn112  1  0.80745366  0.56312994  0.06001845  1
  Zn  Zn113  1  0.81808132  0.55672921  0.56512696  1
  Zn  Zn114  1  0.42322168  0.43238981  0.19641357  1
  Zn  Zn115  1  0.43778534  0.42661458  0.69523693  1
  Zn  Zn116  1  0.45981295  0.94691325  0.19864117  1
  Zn  Zn117  1  0.44355676  0.93960369  0.68973791  1
  Zn  Zn118  1  0.93156429  0.43756965  0.18661996  1
  Zn  Zn119  1  0.93963569  0.43540562  0.68872759  1
  Zn  Zn120  1  0.94629942  0.93102912  0.18975537  1
  Zn  Zn121  1  0.93683980  0.93703812  0.68191944  1
  Zn  Zn122  1  0.06073616  0.06475516  0.30631304  1
  Zn  Zn123  1  0.05479555  0.06244050  0.80111609  1
  Zn  Zn124  1  0.04627993  0.54755019  0.29741313  1
  Zn  Zn125  1  0.17774754  0.56422845  0.80406796  1
  Zn  Zn126  1  0.56643108  0.05680425  0.31111940  1
  Zn  Zn127  1  0.56997964  0.06485504  0.81112913  1
  Zn  Zn128  1  0.55701315  0.56467131  0.31262163  1
  Zn  Zn129  1  0.57359523  0.53822580  0.83705982  1
  Zn  Zn130  1  0.43517551  0.19897308  0.42853457  1
  Zn  Zn131  1  0.44665790  0.20096852  0.93860473  1
  Zn  Zn132  1  0.42188502  0.68269288  0.44346435  1
  Zn  Zn133  1  0.44041683  0.67581105  0.92949618  1
  Zn  Zn134  1  0.89049411  0.16331653  0.45454550  1
  Zn  Zn135  1  0.93617309  0.18691883  0.93589280  1
  Zn  Zn136  1  0.93677093  0.67717522  0.43429987  1
  Zn  Zn137  1  0.95875789  0.70751874  0.96951105  1
  Zn  Zn138  1  0.05839808  0.31055784  0.06286189  1
  Zn  Zn139  1  0.05589563  0.30798531  0.55958950  1
  Zn  Zn140  1  0.07329283  0.81794088  0.06011953  1
  Zn  Zn141  1  0.05138753  0.81998900  0.55812728  1
  Zn  Zn142  1  0.55599027  0.31522294  0.03815134  1
  Zn  Zn143  1  0.60110759  0.29218068  0.45067821  1
  Zn  Zn144  1  0.55938190  0.81381219  0.05352775  1
  Zn  Zn145  1  0.56673641  0.81131983  0.55935243  1
  O  O146  1  0.11190438  0.11714826  0.13245286  1
  O  O147  1  0.12298153  0.11195543  0.63068095  1
  O  O148  1  0.12189583  0.64052359  0.10500958  1
  O  O149  1  0.10705698  0.61374534  0.62090220  1
  O  O150  1  0.62976444  0.11373835  0.11159813  1
  O  O151  1  0.63289676  0.10805346  0.63966139  1
  O  O152  1  0.63204172  0.65198280  0.11868850  1
  O  O153  1  0.61832241  0.62548706  0.62212175  1
  O  O154  1  0.38829811  0.38371987  0.36043820  1
  O  O155  1  0.38459161  0.38009618  0.86505011  1
  O  O156  1  0.38071525  0.88589450  0.37465629  1
  O  O157  1  0.39372750  0.86687508  0.85325486  1
  O  O158  1  0.86075235  0.37962599  0.37861657  1
  O  O159  1  0.87850106  0.37955993  0.88588917  1
  O  O160  1  0.88219089  0.88320404  0.35426097  1
  O  O161  1  0.88753199  0.88263163  0.87008692  1
  O  O162  1  0.25883115  0.00877728  0.36801864  1
  O  O163  1  0.24059784  -0.00333682  0.85416819  1
  O  O164  1  0.25125097  0.49161948  0.35793632  1
  O  O165  1  0.24708765  0.48803884  0.85313422  1
  O  O166  1  0.75872558  -0.01918606  0.37171617  1
  O  O167  1  0.76501791  -0.00390003  0.87532326  1
  O  O168  1  0.75478801  0.50612702  0.36397992  1
  O  O169  1  0.76679982  0.51181917  0.88695390  1
  O  O170  1  0.25145390  0.47852323  0.13545592  1
  O  O171  1  0.24099021  0.47225103  0.62115564  1
  O  O172  1  0.24127392  1.01232800  0.13419622  1
  O  O173  1  0.23531235  0.99346553  0.62935190  1
  O  O174  1  0.75453635  0.48987440  0.13591631  1
  O  O175  1  0.74882479  0.49085756  0.62780079  1
  O  O176  1  0.73717616  0.99590794  0.11897642  1
  O  O177  1  0.74991553  0.97876402  0.62835756  1
  O  O178  1  -0.00735999  0.35706119  0.24634536  1
  O  O179  1  -0.00660792  0.36387379  0.76181461  1
  O  O180  1  0.01862792  0.87145596  0.25310669  1
  O  O181  1  0.00400469  0.86782238  0.75101249  1
  O  O182  1  0.51009481  0.37989208  0.24973440  1
  O  O183  1  0.50440855  0.36003549  0.76177299  1
  O  O184  1  0.51232170  0.87946671  0.27868062  1
  O  O185  1  0.52095556  0.87537142  0.75709568  1
  O  O186  1  0.48824414  0.12731320  0.26220829  1
  O  O187  1  0.48915968  0.11578661  0.74766206  1
  O  O188  1  0.48525269  0.61717424  0.23986575  1
  O  O189  1  0.51603290  0.62372443  0.76394079  1
  O  O190  1  0.98900888  0.13066964  0.23840674  1
  O  O191  1  0.98117363  0.13739140  0.75611624  1
  O  O192  1  0.98683366  0.62587394  0.24773703  1
  O  O193  1  0.99067564  0.63467308  0.73777753  1
  O  O194  1  0.37204920  0.23952165  0.02178095  1
  O  O195  1  0.35856857  0.24046261  0.51040432  1
  O  O196  1  0.37798001  0.73502617  0.00603483  1
  O  O197  1  0.37352987  0.74076834  0.52738089  1
  O  O198  1  0.88098703  0.25952930  0.01171234  1
  O  O199  1  0.88166935  0.26219238  0.51204928  1
  O  O200  1  0.86153933  0.76568993  -0.02175887  1
  O  O201  1  0.88039765  0.74401602  0.51373860  1
  O  O202  1  0.12722357  0.24546886  0.48848527  1
  O  O203  1  0.11247149  0.24641236  0.98325978  1
  O  O204  1  0.07835438  0.74301262  0.47068882  1
  O  O205  1  0.12542607  0.74308297  0.98136547  1
  O  O206  1  0.63622446  0.23153819  0.53155994  1
  O  O207  1  0.63209250  0.23061749  1.00961662  1
  O  O208  1  0.61959693  0.72703756  0.49335969  1
  O  O209  1  0.63977686  0.74906389  0.98875144  1
  O  O210  1  0.48869065  0.26600037  0.12177848  1
  O  O211  1  0.48617093  0.25040811  0.61522008  1
  O  O212  1  0.47335383  0.78001864  0.13295925  1
  O  O213  1  0.50565023  0.74340386  0.63462290  1
  O  O214  1  0.98899875  0.24110656  0.13180305  1
  O  O215  1  0.98324070  0.25843455  0.63746540  1
  O  O216  1  0.98796921  0.74856326  0.07840424  1
  O  O217  1  0.99054102  0.74363645  0.63027921  1
  O  O218  1  0.00536752  0.23803066  0.37080226  1
  O  O219  1  0.00076333  0.25644775  0.86866208  1
  O  O220  1  0.02635157  0.74670571  0.40648827  1
  O  O221  1  0.00418461  0.75829614  0.86766244  1
  O  O222  1  0.49809000  0.28518565  0.39615355  1
  O  O223  1  0.50670556  0.30130473  0.93020090  1
  O  O224  1  0.49971069  0.75894104  0.38923240  1
  O  O225  1  0.51753283  0.75549058  0.87825744  1
  O  O226  1  0.24806969  0.13312995  0.48805264  1
  O  O227  1  0.24909042  0.12929419  0.99733645  1
  O  O228  1  0.27207195  0.61404513  0.58185626  1
  O  O229  1  0.23637424  0.61740263  1.00260272  1
  O  O230  1  0.78501913  0.12729214  0.48687203  1
  O  O231  1  0.74798591  0.12127508  0.98763600  1
  O  O232  1  0.75396147  0.61666863  0.48925419  1
  O  O233  1  0.75260596  0.64038440  0.99061458  1
  O  O234  1  0.23910613  0.36190674  0.01932633  1
  O  O235  1  0.24599553  0.35651977  0.50507744  1
  O  O236  1  0.33444108  0.91881663  0.00524711  1
  O  O237  1  0.25577676  0.89505884  0.50949220  1
  O  O238  1  0.76175751  0.38488978  0.01370416  1
  O  O239  1  0.75852549  0.38008919  0.50600753  1
  O  O240  1  0.76000360  0.86739503  -0.00864447  1
  O  O241  1  0.74291861  0.86346433  0.51840729  1
  O  O242  1  0.12999788  0.49214923  0.25392861  1
  O  O243  1  0.11749329  0.49253206  0.72970719  1
  O  O244  1  0.13332560  0.99626941  0.24152625  1
  O  O245  1  0.12637798  0.99488299  0.73776244  1
  O  O246  1  0.63798169  0.51081233  0.24812358  1
  O  O247  1  0.64318699  0.51643169  0.74129582  1
  O  O248  1  0.62622326  0.99939205  0.23586539  1
  O  O249  1  0.63405012  0.98612184  0.74322314  1
  O  O250  1  0.37043180  0.01110464  0.25424306  1
  O  O251  1  0.36383989  0.01227080  0.74224885  1
  O  O252  1  0.35890382  0.51497216  0.24354663  1
  O  O253  1  0.36694323  0.49681192  0.74899895  1
  O  O254  1  0.87972325  0.00401746  0.25149280  1
  O  O255  1  0.88483621  0.01339230  0.75485718  1
  O  O256  1  0.87098275  0.50587390  0.25844791  1
  O  O257  1  0.88595945  0.51071627  0.76183035  1
  O  O258  1  0.12330146  0.35293947  0.37423017  1
  O  O259  1  0.11031220  0.36638433  0.87555866  1
  O  O260  1  0.12929440  0.87751416  0.35926595  1
  O  O261  1  0.11177470  0.86785580  0.86016965  1
  O  O262  1  0.60554753  0.38729989  0.39101003  1
  O  O263  1  0.59891329  0.42297964  0.87956422  1
  O  O264  1  0.62548098  0.85196862  0.37936613  1
  O  O265  1  0.62836533  0.86464821  0.86340136  1
  O  O266  1  0.38134258  0.13561403  0.14179477  1
  O  O267  1  0.37361421  0.13358337  0.62907398  1
  O  O268  1  0.36609311  0.63205130  0.13107211  1
  O  O269  1  0.41245964  0.63023379  0.63674649  1
  O  O270  1  0.88098185  0.12782234  0.12936657  1
  O  O271  1  0.86179853  0.13066979  0.63891049  1
  O  O272  1  0.87081331  0.62093787  0.13944513  1
  O  O273  1  0.87806173  0.63243275  0.63305727  1
  O  O274  1  0.25349496  0.25566821  0.13033145  1
  O  O275  1  0.24018874  0.24945271  0.60954959  1
  O  O276  1  0.26708510  0.76629346  0.11535503  1
  O  O277  1  0.22790370  0.78296707  0.61096661  1
  O  O278  1  0.75880787  0.26372598  0.13608098  1
  O  O279  1  0.76172255  0.27074677  0.63308342  1
  O  O280  1  0.76084783  0.74861167  0.10276226  1
  O  O281  1  0.76530263  0.75031222  0.62718425  1
  O  O282  1  0.24510875  0.24332018  0.38439579  1
  O  O283  1  0.22814916  0.25681945  0.87423361  1
  O  O284  1  0.22531229  0.72223355  0.41204581  1
  O  O285  1  0.23497335  0.76287292  0.86496327  1
  O  O286  1  0.70821752  0.24392127  0.33974056  1
  O  O287  1  0.75301201  0.24118455  0.88153976  1
  O  O288  1  0.73547428  0.72799058  0.37776758  1
  O  O289  1  0.74228467  0.74116320  0.87761218  1
  O  O290  1  -0.00974519  0.11448011  0.00914468  1
  O  O291  1  -0.01673430  0.10574198  0.49725181  1
  O  O292  1  0.00404187  0.60686304  -0.00281224  1
  O  O293  1  -0.01639484  0.60344880  0.51075519  1
  O  O294  1  0.51912765  0.12119097  -0.01712220  1
  O  O295  1  0.52117001  0.12189518  0.45566234  1
  O  O296  1  0.52188939  0.63197101  -0.00065566  1
  O  O297  1  0.50588134  0.61461443  0.49823642  1
  O  O298  1  0.41927553  0.45993094  0.53140069  1
  O  O299  1  0.49974952  0.43791267  1.04030420  1
  O  O300  1  0.51538676  0.88250098  0.48339893  1
  O  O301  1  0.50305269  0.87661146  0.97597980  1
  O  O302  1  0.98323389  0.38398111  0.50461437  1
  O  O303  1  0.99204846  0.38195658  0.99634774  1
  O  O304  1  0.99956016  0.89423623  0.49199270  1
  O  O305  1  0.99554665  0.88692120  0.98708377  1
  O  O306  1  0.49220360  0.49092260  0.37127153  1
  O  O307  1  0.47250114  0.49159241  0.87166552  1
  O  O308  1  0.48451473  0.99452584  0.37578712  1
  O  O309  1  0.50477690  0.98698155  0.87191367  1
  O  O310  1  0.98624456  0.50223762  0.38213853  1
  O  O311  1  0.98808548  0.48669325  0.88876634  1
  O  O312  1  1.00222975  0.99796707  0.37931082  1
  O  O313  1  0.99519073  0.99539970  0.87814800  1
  O  O314  1  0.00768884  0.00561690  0.11590358  1
  O  O315  1  0.00766134  -0.00155107  0.61445437  1
  O  O316  1  0.00021194  0.49396482  0.11154112  1
  O  O317  1  0.00221052  0.50174272  0.61686057  1
  O  O318  1  0.51436011  -0.00015955  0.11672086  1
  O  O319  1  0.52419780  -0.01089168  0.62439937  1
  O  O320  1  0.49183723  0.48158919  0.10079963  1
  O  O321  1  0.51941563  0.50950192  0.64732771  1
  O  O322  1  0.24183243  0.37957936  0.24311154  1
  O  O323  1  0.24070596  0.35342896  0.73244213  1
  O  O324  1  0.24590971  0.89287404  0.25176169  1
  O  O325  1  0.24147030  0.88926139  0.73563142  1
  O  O326  1  0.74753627  0.38889774  0.23785532  1
  O  O327  1  0.76100829  0.38404798  0.74696821  1
  O  O328  1  0.71804343  0.81533646  0.23923319  1
  O  O329  1  0.73901473  0.86370362  0.74153078  1
  O  O330  1  0.25723957  0.11774874  0.26016663  1
  O  O331  1  0.25292939  0.11288422  0.74592445  1
  O  O332  1  0.23891451  0.60699355  0.24002987  1
  O  O333  1  0.23825116  0.62972584  0.73705436  1
  O  O334  1  0.76525737  0.11817605  0.23923281  1
  O  O335  1  0.76436854  0.12363684  0.76908037  1
  O  O336  1  0.75868332  0.61376594  0.25686518  1
  O  O337  1  0.76551150  0.63139732  0.76128491  1
  O  O338  1  0.36713278  0.11896329  0.36743054  1
  O  O339  1  0.38304244  0.14387361  0.85899292  1
  O  O340  1  0.37650021  0.62135321  0.35874390  1
  O  O341  1  0.37098661  0.60970108  0.86820613  1
  O  O342  1  0.87626797  0.10512040  0.35495995  1
  O  O343  1  0.86609424  0.11832995  0.87254510  1
  O  O344  1  0.86355060  0.61375492  0.36955729  1
  O  O345  1  0.87329805  0.61948007  0.87054536  1
  O  O346  1  0.13116596  0.36145635  0.13469728  1
  O  O347  1  0.12937502  0.37413583  0.62400224  1
  O  O348  1  0.12404156  0.89095991  0.13250271  1
  O  O349  1  0.12022379  0.88607183  0.63128098  1
  O  O350  1  0.63898466  0.36775348  0.10973893  1
  O  O351  1  0.64125773  0.38898825  0.63515423  1
  O  O352  1  0.62106076  0.88463789  0.12135676  1
  O  O353  1  0.63694558  0.86971255  0.63517921  1
  O  O354  1  0.11076412  0.24490428  0.26246788  1
  O  O355  1  0.10956294  0.24981434  0.75961479  1
  O  O356  1  0.13995468  0.76732940  0.24033784  1
  O  O357  1  0.11325456  0.75801751  0.75515733  1
  O  O358  1  0.65110841  0.23480605  0.28494602  1
  O  O359  1  0.61598388  0.24417937  0.74730789  1
  O  O360  1  0.60479808  0.71346392  0.28485750  1
  O  O361  1  0.62919980  0.75124052  0.76272232  1
  O  O362  1  0.37236597  0.23714750  0.24790337  1
  O  O363  1  0.37003255  0.23466848  0.73406524  1
  O  O364  1  0.36154060  0.72983479  0.24364569  1
  O  O365  1  0.35324217  0.74286253  0.71653887  1
  O  O366  1  0.87684817  0.23611099  0.24451739  1
  O  O367  1  0.87625061  0.23979424  0.74557572  1
  O  O368  1  0.87166024  0.73033264  0.26063493  1
  O  O369  1  0.88518258  0.74195035  0.74714840  1
  O  O370  1  0.36743627  0.50300734  0.50135934  1
  O  O371  1  0.34304712  0.49310527  0.97205704  1
  O  O372  1  0.37141878  1.01171693  0.48657513  1
  O  O373  1  0.36713072  0.98617531  1.00280570  1
  O  O374  1  0.87719829  0.48848041  0.48945050  1
  O  O375  1  0.88499472  0.49315728  0.99776441  1
  O  O376  1  0.88143499  0.99244381  0.47662903  1
  O  O377  1  0.88446055  0.99259776  0.98863874  1
  O  O378  1  0.11417593  0.00167293  0.00493536  1
  O  O379  1  0.11531704  0.00441205  0.50789458  1
  O  O380  1  0.11692979  0.51168139  -0.00755816  1
  O  O381  1  0.11248348  0.48793764  0.50668733  1
  O  O382  1  0.62575702  0.00678366  0.00793485  1
  O  O383  1  0.64548672  0.01433960  0.51397400  1
  O  O384  1  0.64597861  0.52885348  0.01482374  1
  O  O385  1  0.63109251  0.51501304  0.52449510  1
  O  O386  1  0.35964627  0.35786424  0.13558292  1
  O  O387  1  0.35947397  0.35352212  0.63068679  1
  O  O388  1  0.41378719  0.84174191  0.13700986  1
  O  O389  1  0.37021473  0.86716942  0.62748206  1
  O  O390  1  0.86877981  0.36507537  0.11981111  1
  O  O391  1  0.86478483  0.37414000  0.62059747  1
  O  O392  1  0.88089521  0.88281030  0.10842582  1
  O  O393  1  0.86586237  0.85975684  0.63164597  1
  O  O394  1  0.13428689  0.13443565  0.36765894  1
  O  O395  1  0.11781694  0.13351654  0.86910139  1
  O  O396  1  0.20533633  0.65265025  0.41073354  1
  O  O397  1  0.12718289  0.63865223  0.88066927  1
  O  O398  1  0.58544275  0.12800510  0.40484392  1
  O  O399  1  0.64371469  0.11755775  0.88213069  1
  O  O400  1  0.63266467  0.61364452  0.39430567  1
  O  O401  1  0.63620680  0.63318089  0.88146479  1
