# generated using pymatgen
data_V73Zn73O256
_symmetry_space_group_name_H-M   'P 1'
_cell_length_a   16.91906882
_cell_length_b   16.89663896
_cell_length_c   16.90099773
_cell_angle_alpha   89.81876541
_cell_angle_beta   89.53863619
_cell_angle_gamma   89.61552374
_symmetry_Int_Tables_number   1
_chemical_formula_structural   V73Zn73O256
_chemical_formula_sum   'V73 Zn73 O256'
_cell_volume   4831.29067421
_cell_formula_units_Z   1
loop_
 _symmetry_equiv_pos_site_id
 _symmetry_equiv_pos_as_xyz
  1  'x, y, z'
loop_
 _atom_site_type_symbol
 _atom_site_label
 _atom_site_symmetry_multiplicity
 _atom_site_fract_x
 _atom_site_fract_y
 _atom_site_fract_z
 _atom_site_occupancy
  V  V0  1  0.12100453  0.38185264  0.74776357  1
  V  V1  1  0.51174047  0.49923144  0.49757700  1
  V  V2  1  0.62981379  0.11344067  0.49556981  1
  V  V3  1  0.12949118  0.60923485  0.00409523  1
  V  V4  1  -0.01748113  0.38598243  0.87940815  1
  V  V5  1  0.14440588  0.26591504  0.88661007  1
  V  V6  1  0.37704151  0.37444430  -0.01215590  1
  V  V7  1  0.73558274  0.74349511  0.50929927  1
  V  V8  1  0.47424533  0.00033965  0.49197273  1
  V  V9  1  0.74419052  0.49799287  0.25399185  1
  V  V10  1  0.13316359  0.62426714  0.49342688  1
  V  V11  1  0.00331604  0.75717832  0.75341719  1
  V  V12  1  0.74878182  -0.01366951  0.24497696  1
  V  V13  1  0.36458194  0.25618427  0.61804307  1
  V  V14  1  0.87485364  0.35513309  0.50885287  1
  V  V15  1  0.74615340  0.25858376  -0.00641368  1
  V  V16  1  0.75748399  0.09402631  0.88945926  1
  V  V17  1  0.63170162  0.62906321  -0.00892903  1
  V  V18  1  -0.00670391  0.62565059  0.62645631  1
  V  V19  1  0.63096108  0.74787476  0.87036409  1
  V  V20  1  0.37475596  0.62083891  0.75010980  1
  V  V21  1  0.50563515  0.13075422  0.62297758  1
  V  V22  1  0.00427314  0.02110439  0.53349325  1
  V  V23  1  0.37020564  0.75661408  0.62072339  1
  V  V24  1  0.25014187  0.00502384  0.26501600  1
  V  V25  1  0.62859390  0.25596668  0.37116584  1
  V  V26  1  0.26036473  0.49109582  0.74860798  1
  V  V27  1  0.36684216  0.12233741  0.75025390  1
  V  V28  1  0.25011869  0.49948560  0.24602834  1
  V  V29  1  0.12802650  0.37517209  0.24031166  1
  V  V30  1  0.13171994  0.49908258  0.62351067  1
  V  V31  1  0.36903199  0.50210209  0.37430643  1
  V  V32  1  0.36014333  0.75338845  0.10240107  1
  V  V33  1  -0.02126376  0.49551748  0.00978594  1
  V  V34  1  0.24336502  0.88216009  0.63737855  1
  V  V35  1  0.87474256  0.49574944  0.37531499  1
  V  V36  1  0.11149983  0.87814091  0.24855308  1
  V  V37  1  0.00326625  0.49753841  0.50000084  1
  V  V38  1  0.25490149  0.37253731  0.12109634  1
  V  V39  1  0.50091432  0.75963317  0.74678553  1
  V  V40  1  0.57995361  0.30385305  0.81659768  1
  V  V41  1  0.37021053  0.63503569  0.25272344  1
  V  V42  1  0.01018715  0.37077735  0.37351224  1
  V  V43  1  0.74162327  0.48057103  0.74574152  1
  V  V44  1  0.49497255  0.63336761  0.12351853  1
  V  V45  1  0.37759482  0.23799054  0.12376741  1
  V  V46  1  0.48971499  0.87854620  0.88434045  1
  V  V47  1  0.73171045  0.89490250  0.61939666  1
  V  V48  1  0.75392791  0.12402205  0.37871353  1
  V  V49  1  0.00462290  0.25262808  0.24646670  1
  V  V50  1  0.61937926  0.50039624  0.12975691  1
  V  V51  1  0.88433700  0.86164866  0.50307146  1
  V  V52  1  0.00616689  0.62894032  0.13504831  1
  V  V53  1  0.87729566  0.63237504  0.25234829  1
  V  V54  1  0.36566222  0.00362055  0.87620180  1
  V  V55  1  0.50397095  0.24003000  0.24109354  1
  V  V56  1  0.25206656  0.62087091  0.87660962  1
  V  V57  1  0.12642999  0.75089673  0.87839630  1
  V  V58  1  0.36145584  0.37360562  0.50193834  1
  V  V59  1  0.87573865  0.61531982  0.77284834  1
  V  V60  1  0.62035939  0.75206744  0.35397305  1
  V  V61  1  0.87264579  0.25585875  0.12296944  1
  V  V62  1  0.24308651  0.88506605  0.10922357  1
  V  V63  1  0.88218883  0.12778725  0.25005350  1
  V  V64  1  0.61640944  0.12511950  0.00906891  1
  V  V65  1  0.11937278  0.11492626  0.01606574  1
  V  V66  1  0.50749898  0.62094680  0.61777363  1
  V  V67  1  0.74682940  0.38009394  0.12756587  1
  V  V68  1  0.89368687  -0.00580948  0.37631383  1
  V  V69  1  0.25421431  0.75693875  0.48963276  1
  V  V70  1  0.49722055  0.49595916  -0.01567780  1
  V  V71  1  -0.00448910  0.24984227  0.75052616  1
  V  V72  1  0.10724505  0.74965336  0.36764698  1
  Zn  Zn73  1  0.08179327  0.93468996  0.70800926  1
  Zn  Zn74  1  0.65599136  0.91838223  0.77366805  1
  Zn  Zn75  1  0.50559171  0.38096674  0.36272620  1
  Zn  Zn76  1  0.48951564  0.00252562  0.01622861  1
  Zn  Zn77  1  0.88485129  0.12212467  0.77684028  1
  Zn  Zn78  1  0.73382722  0.61791160  0.38720861  1
  Zn  Zn79  1  0.51021352  0.87919768  0.38230835  1
  Zn  Zn80  1  0.89178455  0.18755436  0.60336719  1
  Zn  Zn81  1  0.61599270  0.00035409  0.13722626  1
  Zn  Zn82  1  0.18841747  0.18272331  0.17550163  1
  Zn  Zn83  1  0.24390742  0.25024857  0.74256035  1
  Zn  Zn84  1  0.18759626  0.68646250  0.18576692  1
  Zn  Zn85  1  0.18629762  0.68646094  0.68652816  1
  Zn  Zn86  1  0.69069709  0.18464416  0.19127590  1
  Zn  Zn87  1  0.71200355  0.29599293  0.64583286  1
  Zn  Zn88  1  0.69321081  0.69683530  0.17870970  1
  Zn  Zn89  1  0.71321055  0.64070236  0.65452716  1
  Zn  Zn90  1  0.32884967  0.31663337  0.30351988  1
  Zn  Zn91  1  0.42200863  0.32615393  0.79551500  1
  Zn  Zn92  1  0.29883187  0.81778900  0.30443229  1
  Zn  Zn93  1  0.31155801  0.81066891  0.81445072  1
  Zn  Zn94  1  0.81269774  0.31518510  0.31523831  1
  Zn  Zn95  1  0.80914427  0.31620489  0.80984796  1
  Zn  Zn96  1  0.80912031  0.80924877  0.32532426  1
  Zn  Zn97  1  0.78863455  0.76980540  0.75407204  1
  Zn  Zn98  1  0.18735244  0.43473460  0.43115029  1
  Zn  Zn99  1  0.18873519  0.43589947  0.93647451  1
  Zn  Zn100  1  0.17438562  0.93471693  0.43935226  1
  Zn  Zn101  1  0.15825184  0.95986571  0.90001367  1
  Zn  Zn102  1  0.69381069  0.42624211  0.45084747  1
  Zn  Zn103  1  0.69117840  0.44442820  0.93511938  1
  Zn  Zn104  1  0.69222607  0.93313882  0.42963239  1
  Zn  Zn105  1  0.66883439  0.93023185  0.95349855  1
  Zn  Zn106  1  0.29721508  0.06379210  0.05340160  1
  Zn  Zn107  1  0.30415974  0.06723756  0.56933531  1
  Zn  Zn108  1  0.31551490  0.55791352  0.06271859  1
  Zn  Zn109  1  0.31628066  0.56490711  0.56313813  1
  Zn  Zn110  1  0.80911610  0.07122670  0.07016189  1
  Zn  Zn111  1  0.74808015  0.10520729  0.66208755  1
  Zn  Zn112  1  0.80439352  0.58799518  0.07062066  1
  Zn  Zn113  1  0.81712133  0.55301787  0.56068105  1
  Zn  Zn114  1  0.44037296  0.43243806  0.18466879  1
  Zn  Zn115  1  0.57392348  0.43263842  0.67033091  1
  Zn  Zn116  1  0.41700309  0.94614043  0.19081388  1
  Zn  Zn117  1  0.49721778  0.97953715  0.71675060  1
  Zn  Zn118  1  0.93567932  0.43852526  0.18614829  1
  Zn  Zn119  1  0.93507870  0.44226639  0.68668248  1
  Zn  Zn120  1  0.93472179  0.93777585  0.18796027  1
  Zn  Zn121  1  0.88757519  0.97946476  0.65265349  1
  Zn  Zn122  1  0.09409163  0.08407875  0.30207792  1
  Zn  Zn123  1  0.10144318  0.09513971  0.80652147  1
  Zn  Zn124  1  0.06721299  0.55898439  0.31450426  1
  Zn  Zn125  1  0.06316760  0.56128439  0.81713912  1
  Zn  Zn126  1  0.56170959  0.06148487  0.31348814  1
  Zn  Zn127  1  0.61124666  0.11999483  0.78675253  1
  Zn  Zn128  1  0.55560286  0.57298944  0.31231125  1
  Zn  Zn129  1  0.56492493  0.56366753  0.80497419  1
  Zn  Zn130  1  0.44437624  0.19316988  0.43681295  1
  Zn  Zn131  1  0.43609751  0.18924793  0.93505882  1
  Zn  Zn132  1  0.44059363  0.68970384  0.43310579  1
  Zn  Zn133  1  0.43993294  0.68483411  0.93297746  1
  Zn  Zn134  1  0.96791963  0.17458491  0.43274394  1
  Zn  Zn135  1  0.94293775  0.19007574  0.93830390  1
  Zn  Zn136  1  0.93462562  0.68358834  0.44181615  1
  Zn  Zn137  1  0.94927852  0.67890560  0.93778856  1
  Zn  Zn138  1  0.05027956  0.29323178  0.04657938  1
  Zn  Zn139  1  0.06198431  0.30717369  0.56820309  1
  Zn  Zn140  1  0.07298990  0.79891211  0.06577754  1
  Zn  Zn141  1  0.07017843  0.80440455  0.56709590  1
  Zn  Zn142  1  0.56265348  0.31494864  0.06166472  1
  Zn  Zn143  1  0.55644288  0.30646248  0.54831495  1
  Zn  Zn144  1  0.53528399  0.83962295  0.09211409  1
  Zn  Zn145  1  0.55591949  0.81839716  0.56024906  1
  O  O146  1  0.11501839  0.11612908  0.11907797  1
  O  O147  1  0.16515809  0.17086438  0.54632336  1
  O  O148  1  0.11631504  0.62220588  0.12091304  1
  O  O149  1  0.11852594  0.61539960  0.61552701  1
  O  O150  1  0.63401222  0.12133442  0.11474124  1
  O  O151  1  0.61430381  0.13217773  0.60317372  1
  O  O152  1  0.61241693  0.62064751  0.10960074  1
  O  O153  1  0.60438537  0.63334220  0.62353263  1
  O  O154  1  0.37782316  0.38359307  0.38435097  1
  O  O155  1  0.37578672  0.37343271  0.88831151  1
  O  O156  1  0.39276713  0.87457378  0.33955390  1
  O  O157  1  0.38041112  0.88728694  0.86793879  1
  O  O158  1  0.88499567  0.38086507  0.38224331  1
  O  O159  1  0.88441916  0.38083237  0.87179544  1
  O  O160  1  0.86659908  0.88796497  0.39163641  1
  O  O161  1  0.85294583  0.82289955  0.94290929  1
  O  O162  1  0.24223647  -0.01108791  0.36516251  1
  O  O163  1  0.26779744  -0.00165032  0.87539271  1
  O  O164  1  0.26086679  0.49757543  0.36388587  1
  O  O165  1  0.24577338  0.50698761  0.85670302  1
  O  O166  1  0.75995320  0.00768472  0.36553752  1
  O  O167  1  0.75618949  -0.00477701  0.91173341  1
  O  O168  1  0.75691722  0.49812360  0.37390478  1
  O  O169  1  0.74689619  0.49307444  0.84688030  1
  O  O170  1  0.26074872  0.48625930  0.13690924  1
  O  O171  1  0.24002688  0.50850773  0.63475186  1
  O  O172  1  0.25163216  0.98773534  0.12988136  1
  O  O173  1  0.25243963  0.98105299  0.62079094  1
  O  O174  1  0.74066730  0.49820299  0.13290141  1
  O  O175  1  0.74547822  0.52680841  0.64404400  1
  O  O176  1  0.75758201  1.00010122  0.14183061  1
  O  O177  1  0.73967320  0.99529023  0.62104647  1
  O  O178  1  0.00978874  0.37510758  0.25374431  1
  O  O179  1  0.00245672  0.37845333  0.76016114  1
  O  O180  1  0.01187686  0.86964330  0.23434269  1
  O  O181  1  0.00143178  0.85533781  0.74678753  1
  O  O182  1  0.49475413  0.35800188  0.25084706  1
  O  O183  1  0.52194146  0.36571122  0.75175295  1
  O  O184  1  0.44972929  0.87079940  0.27610176  1
  O  O185  1  0.49855611  0.86518403  0.75479508  1
  O  O186  1  0.50362091  0.13842855  0.24956022  1
  O  O187  1  0.49819715  0.13126232  0.72567204  1
  O  O188  1  0.48077847  0.62070424  0.23444878  1
  O  O189  1  0.49104251  0.62607549  0.73594479  1
  O  O190  1  0.98922452  0.13796558  0.25028888  1
  O  O191  1  1.00769619  0.14789157  0.76873285  1
  O  O192  1  0.99532324  0.61382927  0.24345765  1
  O  O193  1  0.98824397  0.61510180  0.74488891  1
  O  O194  1  0.38741253  0.26660256  0.00957894  1
  O  O195  1  0.37459172  0.26397298  0.50060768  1
  O  O196  1  0.36706434  0.74369781  0.00370276  1
  O  O197  1  0.36006972  0.73981856  0.50378809  1
  O  O198  1  0.86251071  0.24895012  0.01754292  1
  O  O199  1  0.89783877  0.25311831  0.49980805  1
  O  O200  1  0.86330751  0.75985040  -0.01926159  1
  O  O201  1  0.85922138  0.76007969  0.48757935  1
  O  O202  1  0.13567687  0.23454374  0.50701058  1
  O  O203  1  0.14623144  0.29433876  0.98460298  1
  O  O204  1  0.13189474  0.74307128  0.48692126  1
  O  O205  1  0.11653039  0.72671933  0.98754392  1
  O  O206  1  0.61389747  0.23289639  0.47561648  1
  O  O207  1  0.63912810  0.24178783  1.01026880  1
  O  O208  1  0.63410432  0.75182501  0.50064311  1
  O  O209  1  0.62200897  0.73447177  0.98455229  1
  O  O210  1  0.49357015  0.25197091  0.13138911  1
  O  O211  1  0.48506888  0.23508910  0.60411292  1
  O  O212  1  0.47970423  0.74305534  0.11896577  1
  O  O213  1  0.49011414  0.74222914  0.62556007  1
  O  O214  1  0.97945555  0.27071471  0.13578522  1
  O  O215  1  0.99548325  0.25314508  0.64663279  1
  O  O216  1  0.99958856  0.72721941  0.12441482  1
  O  O217  1  1.01678576  0.73426757  0.64393982  1
  O  O218  1  -0.00932021  0.26559649  0.35793101  1
  O  O219  1  0.00893034  0.27574768  0.87235808  1
  O  O220  1  0.00864386  0.74593201  0.37576922  1
  O  O221  1  0.01424903  0.74097773  0.86690649  1
  O  O222  1  0.50941349  0.25116446  0.36076235  1
  O  O223  1  0.50410092  0.25391035  0.86635979  1
  O  O224  1  0.51576499  0.75537767  0.38123628  1
  O  O225  1  0.49513538  0.75997018  0.86425923  1
  O  O226  1  0.22277081  0.13414262  0.50583228  1
  O  O227  1  0.22119359  0.13272445  1.00640265  1
  O  O228  1  0.23842014  0.63439242  0.50556508  1
  O  O229  1  0.24499245  0.60846253  0.98784275  1
  O  O230  1  0.73713302  0.12224599  0.48684467  1
  O  O231  1  0.74874054  0.13757236  0.99929482  1
  O  O232  1  0.75662793  0.63717238  0.50208624  1
  O  O233  1  0.72675677  0.60225343  0.98198674  1
  O  O234  1  0.26949808  0.39136638  0.00812064  1
  O  O235  1  0.26174806  0.38061613  0.49892324  1
  O  O236  1  0.23348330  0.88631745  0.01255662  1
  O  O237  1  0.24051558  0.85892938  0.50717856  1
  O  O238  1  0.74412820  0.36670900  0.01157283  1
  O  O239  1  0.77429034  0.36213181  0.49711458  1
  O  O240  1  0.70143847  0.85946556  0.04522967  1
  O  O241  1  0.75038992  0.86650503  0.50859547  1
  O  O242  1  0.13971921  0.48947865  0.25576042  1
  O  O243  1  0.13003595  0.49877420  0.74105278  1
  O  O244  1  0.12013319  0.98016693  0.25276117  1
  O  O245  1  0.11931533  0.99036538  0.79389078  1
  O  O246  1  0.63169201  0.51559269  0.24021478  1
  O  O247  1  0.63444606  0.49841406  0.74348274  1
  O  O248  1  0.64288591  1.00180073  0.25158069  1
  O  O249  1  0.60150536  1.01148676  0.75192004  1
  O  O250  1  0.34898190  0.01704970  0.24700000  1
  O  O251  1  0.38709553  0.01632043  0.75696379  1
  O  O252  1  0.36933279  0.50242067  0.25689049  1
  O  O253  1  0.36160087  0.50470119  0.74146213  1
  O  O254  1  0.87045472  0.00604392  0.25694242  1
  O  O255  1  0.89286582  -0.04399745  0.82100693  1
  O  O256  1  0.86733168  0.49847113  0.26167878  1
  O  O257  1  0.86225181  0.51231417  0.74487802  1
  O  O258  1  0.11839723  0.37359247  0.36269099  1
  O  O259  1  0.11651981  0.38280762  0.86134101  1
  O  O260  1  0.12118489  0.85867922  0.36292244  1
  O  O261  1  0.13120950  0.84870237  0.88795010  1
  O  O262  1  0.62793859  0.35919595  0.38054482  1
  O  O263  1  0.63258240  0.36331692  0.87742378  1
  O  O264  1  0.62690242  0.86006161  0.37197005  1
  O  O265  1  0.61250900  0.86485774  0.87320638  1
  O  O266  1  0.37049582  0.14056077  0.10796177  1
  O  O267  1  0.37889914  0.13583994  0.62878202  1
  O  O268  1  0.37581474  0.63513092  0.12761115  1
  O  O269  1  0.38021348  0.63184205  0.63310272  1
  O  O270  1  0.86554298  0.14731533  0.13915886  1
  O  O271  1  0.87054035  0.08670349  0.67231222  1
  O  O272  1  0.89263885  0.61297855  0.14607042  1
  O  O273  1  0.89283727  0.62408553  0.61766422  1
  O  O274  1  0.26603856  0.25926670  0.13210779  1
  O  O275  1  0.26478027  0.25233860  0.62556657  1
  O  O276  1  0.25625343  0.75352713  0.12095044  1
  O  O277  1  0.25229945  0.75185039  0.61577670  1
  O  O278  1  0.75472728  0.26266027  0.12667289  1
  O  O279  1  0.78065238  0.21113967  0.63649238  1
  O  O280  1  0.76814185  0.69306372  0.10101780  1
  O  O281  1  0.74657444  0.75055239  0.61294822  1
  O  O282  1  0.28804315  0.21067991  0.36414332  1
  O  O283  1  0.24080440  0.27143816  0.85759066  1
  O  O284  1  0.24796585  0.75335798  0.38711903  1
  O  O285  1  0.23930732  0.73216003  0.86641694  1
  O  O286  1  0.73820725  0.23977901  0.36374759  1
  O  O287  1  0.75863064  0.25564955  0.89459176  1
  O  O288  1  0.73450459  0.74520413  0.38518689  1
  O  O289  1  0.72810795  0.75708111  0.86087926  1
  O  O290  1  0.02898709  0.17995920  0.00831804  1
  O  O291  1  -0.01746129  0.12145275  0.54107720  1
  O  O292  1  0.00409513  0.61085005  0.01381787  1
  O  O293  1  0.01097461  0.61966370  0.50569661  1
  O  O294  1  0.51500529  0.13191680  -0.00066784  1
  O  O295  1  0.50721351  0.11542686  0.49488804  1
  O  O296  1  0.49930286  0.61294317  0.00554558  1
  O  O297  1  0.48801737  0.61258946  0.50968682  1
  O  O298  1  0.49060920  0.39135225  0.49335481  1
  O  O299  1  0.49318260  0.38784637  1.00304188  1
  O  O300  1  0.49284699  0.89578878  0.50282551  1
  O  O301  1  0.49705718  0.86546196  0.98411463  1
  O  O302  1  1.00242948  0.37645834  0.49013683  1
  O  O303  1  0.99411557  0.38594093  0.99155726  1
  O  O304  1  0.98376691  0.85332896  0.51025261  1
  O  O305  1  0.97483967  0.86953963  1.03890591  1
  O  O306  1  0.48906428  0.50394130  0.38237640  1
  O  O307  1  0.50368827  0.50295341  0.88562120  1
  O  O308  1  0.49874664  1.00133789  0.38712501  1
  O  O309  1  0.49220649  0.98192056  0.87956154  1
  O  O310  1  0.99596000  0.48894648  0.37906717  1
  O  O311  1  0.99956134  0.49365479  0.88997277  1
  O  O312  1  0.98735857  0.99164738  0.35414329  1
  O  O313  1  0.93659019  0.94523754  0.87836095  1
  O  O314  1  -0.03444189  0.02013903  0.10011560  1
  O  O315  1  0.00572002  -0.01465443  0.63074650  1
  O  O316  1  0.00138695  0.49861270  0.11339884  1
  O  O317  1  0.01072513  0.50730153  0.61869611  1
  O  O318  1  0.50828658  -0.04739939  0.12339998  1
  O  O319  1  0.49093263  0.02214996  0.60561488  1
  O  O320  1  0.50506860  0.50985469  0.12140098  1
  O  O321  1  0.50406056  0.50927829  0.61093345  1
  O  O322  1  0.24769116  0.37771935  0.24457833  1
  O  O323  1  0.23910603  0.38889233  0.74538015  1
  O  O324  1  0.23678830  0.88816203  0.24104290  1
  O  O325  1  0.25117623  0.86896874  0.73699099  1
  O  O326  1  0.74937659  0.38950964  0.24573043  1
  O  O327  1  0.75536278  0.37838253  0.73038213  1
  O  O328  1  0.76509111  0.88744289  0.25298183  1
  O  O329  1  0.75048467  0.87286191  0.72674456  1
  O  O330  1  0.20698692  0.10319012  0.25746547  1
  O  O331  1  0.26740441  0.12811699  0.74648325  1
  O  O332  1  0.26264247  0.61225315  0.23920049  1
  O  O333  1  0.25655141  0.61527871  0.75364563  1
  O  O334  1  0.76409758  0.11920377  0.26006689  1
  O  O335  1  0.74567231  0.10191867  0.78643866  1
  O  O336  1  0.76663680  0.61121025  0.25587344  1
  O  O337  1  0.77710808  0.64904812  0.74948970  1
  O  O338  1  0.33978147  0.15647288  0.37583722  1
  O  O339  1  0.38388925  0.12058379  0.85889091  1
  O  O340  1  0.37916348  0.61942997  0.35921423  1
  O  O341  1  0.36810507  0.62810791  0.85959584  1
  O  O342  1  0.87460268  0.11202561  0.37224262  1
  O  O343  1  0.86528218  0.12103661  0.88998908  1
  O  O344  1  0.88334167  0.60812351  0.36748972  1
  O  O345  1  0.87932099  0.61629239  0.87208828  1
  O  O346  1  0.13947973  0.36983039  0.13554106  1
  O  O347  1  0.11589073  0.38867106  0.63335205  1
  O  O348  1  0.13615751  0.85965756  0.13737383  1
  O  O349  1  0.13665581  0.87095544  0.62896625  1
  O  O350  1  0.63144874  0.39109127  0.12182876  1
  O  O351  1  0.63481633  0.36339135  0.60366410  1
  O  O352  1  0.65309913  0.86270444  0.10796549  1
  O  O353  1  0.63189650  0.87834723  0.62227822  1
  O  O354  1  0.11175255  0.25720500  0.23945880  1
  O  O355  1  0.11690599  0.26859464  0.75751457  1
  O  O356  1  0.13070495  0.75037003  0.26375389  1
  O  O357  1  0.11542687  0.73445249  0.76539168  1
  O  O358  1  0.61666381  0.24633990  0.25767043  1
  O  O359  1  0.63646691  0.23664901  0.76179304  1
  O  O360  1  0.62801288  0.74947230  0.25187398  1
  O  O361  1  0.60689145  0.73966504  0.76279143  1
  O  O362  1  0.38685433  0.24515097  0.23347353  1
  O  O363  1  0.37535788  0.24471365  0.73321810  1
  O  O364  1  0.36165012  0.73492139  0.24444370  1
  O  O365  1  0.38173669  0.74087484  0.74132291  1
  O  O366  1  0.87963933  0.24752507  0.24580452  1
  O  O367  1  0.89248178  0.24867974  0.76612608  1
  O  O368  1  0.87225382  0.73074258  0.26409539  1
  O  O369  1  0.89876971  0.73366067  0.76009659  1
  O  O370  1  0.37615523  0.49368481  0.49217289  1
  O  O371  1  0.39014065  0.49109055  1.00300561  1
  O  O372  1  0.37577570  1.01676158  0.49175968  1
  O  O373  1  0.37994445  1.01878399  0.98186802  1
  O  O374  1  0.88365670  0.48948469  0.49088575  1
  O  O375  1  0.88065744  0.51105755  1.01163526  1
  O  O376  1  0.90683719  0.98929934  0.48981329  1
  O  O377  1  0.91799798  1.02301654  1.04016993  1
  O  O378  1  0.10356594  0.02027681  -0.01868307  1
  O  O379  1  0.09265307  -0.00469527  0.49268895  1
  O  O380  1  0.11755057  0.50637071  -0.00148050  1
  O  O381  1  0.12452019  0.50498466  0.50265181  1
  O  O382  1  0.61334201  0.01143221  0.01389242  1
  O  O383  1  0.62371998  0.01226212  0.48928169  1
  O  O384  1  0.61112015  0.50529529  0.00565962  1
  O  O385  1  0.61039799  0.49875213  0.48664532  1
  O  O386  1  0.36961866  0.36645175  0.11739207  1
  O  O387  1  0.37968462  0.36358872  0.60886341  1
  O  O388  1  0.35771388  0.86032164  0.12231836  1
  O  O389  1  0.36088461  0.85718560  0.62200014  1
  O  O390  1  0.85838671  0.36872166  0.13251589  1
  O  O391  1  0.88683077  0.37609926  0.60698587  1
  O  O392  1  0.91630909  0.86681143  0.08849764  1
  O  O393  1  0.85721065  0.88152960  0.60686110  1
  O  O394  1  0.06584944  0.12793745  0.39829826  1
  O  O395  1  0.12752988  0.16327922  0.88978154  1
  O  O396  1  0.12240342  0.63390550  0.38292838  1
  O  O397  1  0.13427650  0.62304056  0.88390214  1
  O  O398  1  0.63555686  0.12870056  0.37691946  1
  O  O399  1  0.64684824  0.12071419  0.90102063  1
  O  O400  1  0.62192572  0.64185170  0.37133752  1
  O  O401  1  0.60995453  0.63578022  0.88159201  1
