# generated using pymatgen
data_V73Zn73O256
_symmetry_space_group_name_H-M   'P 1'
_cell_length_a   16.84189316
_cell_length_b   16.85783944
_cell_length_c   16.92508526
_cell_angle_alpha   90.09336006
_cell_angle_beta   89.82204730
_cell_angle_gamma   90.10173103
_symmetry_Int_Tables_number   1
_chemical_formula_structural   V73Zn73O256
_chemical_formula_sum   'V73 Zn73 O256'
_cell_volume   4805.29809488
_cell_formula_units_Z   1
loop_
 _symmetry_equiv_pos_site_id
 _symmetry_equiv_pos_as_xyz
  1  'x, y, z'
loop_
 _atom_site_type_symbol
 _atom_site_label
 _atom_site_symmetry_multiplicity
 _atom_site_fract_x
 _atom_site_fract_y
 _atom_site_fract_z
 _atom_site_occupancy
  V  V0  1  0.23891698  0.62061240  0.88840108  1
  V  V1  1  0.24779891  0.26367475  0.50734581  1
  V  V2  1  0.63380655  0.51774375  0.12234726  1
  V  V3  1  0.74593888  -0.00212981  0.74303874  1
  V  V4  1  0.38667477  -0.00843950  0.38446895  1
  V  V5  1  0.47870309  -0.00576827  0.00042235  1
  V  V6  1  0.88996082  0.63763298  0.24387036  1
  V  V7  1  0.87846276  0.48138770  0.87826968  1
  V  V8  1  0.75402852  0.62742531  0.88259189  1
  V  V9  1  0.87605599  0.12520841  0.24645575  1
  V  V10  1  0.50274600  0.73877727  0.23543044  1
  V  V11  1  0.62638308  0.86700300  0.74795095  1
  V  V12  1  -0.00028371  0.50382690  0.50237991  1
  V  V13  1  0.61803076  0.26630762  0.87770592  1
  V  V14  1  0.74159540  0.38186594  0.63325227  1
  V  V15  1  0.00279209  0.24541760  0.24725800  1
  V  V16  1  0.36656009  0.76539616  0.11879551  1
  V  V17  1  0.75193720  0.64611650  0.38633658  1
  V  V18  1  0.26456760  0.86928524  0.61714555  1
  V  V19  1  -0.00003187  0.63335822  0.63012111  1
  V  V20  1  0.12570494  -0.00759946  0.61302656  1
  V  V21  1  0.00277302  0.49040463  -0.00374048  1
  V  V22  1  0.25457077  0.23493004  0.00137337  1
  V  V23  1  0.11615734  0.75339756  0.86641060  1
  V  V24  1  0.75034950  0.25406613  -0.00233681  1
  V  V25  1  0.00180868  0.37177892  0.37689246  1
  V  V26  1  0.62317878  0.74564258  0.88610350  1
  V  V27  1  -0.00181894  0.86930857  0.85733303  1
  V  V28  1  0.37578379  0.64588030  0.74993945  1
  V  V29  1  0.75151954  -0.00652029  0.24150722  1
  V  V30  1  0.24730477  0.49833720  0.74991526  1
  V  V31  1  -0.00386272  0.24742449  0.75810168  1
  V  V32  1  0.12943406  0.24228785  0.38023875  1
  V  V33  1  0.87865637  0.23901625  0.62850654  1
  V  V34  1  0.74824454  0.12633743  0.37123649  1
  V  V35  1  0.38220845  0.24456428  0.61701744  1
  V  V36  1  -0.00659600  0.88839270  0.39779342  1
  V  V37  1  0.49038153  0.87253480  0.88266560  1
  V  V38  1  0.12057719  0.50232504  0.12214837  1
  V  V39  1  0.37632684  0.11546203  0.76469740  1
  V  V40  1  0.73089252  0.11517057  0.88024993  1
  V  V41  1  0.12815543  0.74861623  0.37880807  1
  V  V42  1  0.32325958  0.63133843  0.23887518  1
  V  V43  1  0.85510650  0.75250993  0.62109492  1
  V  V44  1  0.13795049  0.37572035  0.24864031  1
  V  V45  1  0.24821004  0.77404858  -0.00170528  1
  V  V46  1  0.88453232  0.63268490  0.76368368  1
  V  V47  1  0.12187914  0.00805262  0.12417574  1
  V  V48  1  0.50239913  0.25226681  0.75147686  1
  V  V49  1  0.25411457  0.12133063  0.38394649  1
  V  V50  1  0.12985929  0.49367271  0.62777533  1
  V  V51  1  0.25753681  0.37406320  0.12021628  1
  V  V52  1  0.13141260  0.23793048  0.88065950  1
  V  V53  1  0.38699099  0.49502765  0.87677045  1
  V  V54  1  0.11191310  0.87343310  0.25172064  1
  V  V55  1  0.00816067  0.12030232  0.61372790  1
  V  V56  1  0.37724617  0.13124288  0.24186022  1
  V  V57  1  0.25448338  -0.01676299  0.24919858  1
  V  V58  1  0.12315655  0.37384477  0.75903312  1
  V  V59  1  0.50638143  0.86237881  0.37063617  1
  V  V60  1  0.88480514  0.87352229  0.01128063  1
  V  V61  1  0.14495404  0.62992965  0.50143101  1
  V  V62  1  0.76311018  0.75311986  0.01691328  1
  V  V63  1  0.73367695  0.23083652  0.51699291  1
  V  V64  1  0.87071620  0.50034503  0.37418000  1
  V  V65  1  0.87232431  0.37001261  0.50469974  1
  V  V66  1  0.50162980  0.13286870  0.12092791  1
  V  V67  1  0.63173260  -0.00549963  0.11044424  1
  V  V68  1  0.24072991  0.00297417  0.76118844  1
  V  V69  1  0.61573152  0.25067979  0.36267588  1
  V  V70  1  0.50535180  0.50863340  0.01394908  1
  V  V71  1  0.87586243  0.25711041  0.11728618  1
  V  V72  1  0.88126510  0.00704667  0.87538936  1
  Zn  Zn73  1  0.75104747  0.49810059  0.25217422  1
  Zn  Zn74  1  0.74233707  0.50398591  0.75152956  1
  Zn  Zn75  1  0.01001180  0.12663075  0.09791965  1
  Zn  Zn76  1  0.49086474  0.40630226  0.37993315  1
  Zn  Zn77  1  0.59801772  0.49196695  0.62413456  1
  Zn  Zn78  1  0.61169934  0.37470757  0.24055644  1
  Zn  Zn79  1  0.63033260  0.86395087  0.23954890  1
  Zn  Zn80  1  0.38343023  0.36512584  -0.00547300  1
  Zn  Zn81  1  0.74655436  0.37398100  0.12728130  1
  Zn  Zn82  1  0.19633623  0.18725491  0.19137903  1
  Zn  Zn83  1  0.18742844  0.18037010  0.69058616  1
  Zn  Zn84  1  0.14890964  0.70655099  0.16288275  1
  Zn  Zn85  1  0.19620126  0.68444071  0.68718233  1
  Zn  Zn86  1  0.68440021  0.18362854  0.18143314  1
  Zn  Zn87  1  0.69219524  0.18767918  0.69673377  1
  Zn  Zn88  1  0.69954884  0.68019090  0.19802684  1
  Zn  Zn89  1  0.68021936  0.67197070  0.70004662  1
  Zn  Zn90  1  0.39219552  0.34535275  0.25043695  1
  Zn  Zn91  1  0.31238272  0.30972026  0.80907343  1
  Zn  Zn92  1  0.33744274  0.77808059  0.34592216  1
  Zn  Zn93  1  0.29634474  0.82017815  0.81341428  1
  Zn  Zn94  1  0.80735332  0.31281934  0.30903496  1
  Zn  Zn95  1  0.80463494  0.30663452  0.80950911  1
  Zn  Zn96  1  0.82448999  0.81564497  0.30954061  1
  Zn  Zn97  1  0.81296743  0.81305176  0.81383977  1
  Zn  Zn98  1  0.18499952  0.43188116  0.44201369  1
  Zn  Zn99  1  0.18836316  0.42757326  0.93981071  1
  Zn  Zn100  1  0.19052363  0.93427703  0.43725014  1
  Zn  Zn101  1  0.17696479  0.94169959  0.93595732  1
  Zn  Zn102  1  0.68469644  0.42380847  0.43741625  1
  Zn  Zn103  1  0.68805322  0.44015835  0.94027400  1
  Zn  Zn104  1  0.68373606  0.93949883  0.41053906  1
  Zn  Zn105  1  0.69113129  0.92646786  0.93805248  1
  Zn  Zn106  1  0.30687040  0.05512103  0.06618821  1
  Zn  Zn107  1  0.31673362  0.06094513  0.56961269  1
  Zn  Zn108  1  0.31257552  0.56186524  0.06656067  1
  Zn  Zn109  1  0.43308513  0.58003040  0.59197720  1
  Zn  Zn110  1  0.82018981  0.06690481  0.05677167  1
  Zn  Zn111  1  0.69362733  0.05592739  0.55753936  1
  Zn  Zn112  1  0.82066261  0.56077536  0.06002739  1
  Zn  Zn113  1  0.81590420  0.56858976  0.56473311  1
  Zn  Zn114  1  0.45904317  0.50484768  0.22869173  1
  Zn  Zn115  1  0.42193737  0.42515844  0.69280036  1
  Zn  Zn116  1  0.43919807  0.93519200  0.18774576  1
  Zn  Zn117  1  0.42496763  0.91785119  0.70959950  1
  Zn  Zn118  1  0.94139304  0.43512125  0.18959753  1
  Zn  Zn119  1  0.93863713  0.43868442  0.69336622  1
  Zn  Zn120  1  0.94228274  0.94080522  0.19293729  1
  Zn  Zn121  1  0.92964647  0.93891231  0.68242803  1
  Zn  Zn122  1  0.06305659  0.05947404  0.31734515  1
  Zn  Zn123  1  0.05935731  0.06394531  0.80706287  1
  Zn  Zn124  1  0.06960711  0.56256358  0.31260674  1
  Zn  Zn125  1  0.05982447  0.56287468  0.82060266  1
  Zn  Zn126  1  0.56432549  0.06166189  0.30510764  1
  Zn  Zn127  1  0.55645690  0.05480958  0.81061423  1
  Zn  Zn128  1  0.57684081  0.57514378  0.31620014  1
  Zn  Zn129  1  0.56089049  0.57038801  0.80062570  1
  Zn  Zn130  1  0.40453130  0.23479209  0.39765209  1
  Zn  Zn131  1  0.43865978  0.18134665  0.93815887  1
  Zn  Zn132  1  0.41525782  0.59616133  0.40035267  1
  Zn  Zn133  1  0.42950991  0.68421081  0.93847339  1
  Zn  Zn134  1  0.93164442  0.18279304  0.43705902  1
  Zn  Zn135  1  0.93686102  0.18760560  0.93679662  1
  Zn  Zn136  1  0.93861136  0.69775100  0.43672058  1
  Zn  Zn137  1  0.96346046  0.67863087  1.07543421  1
  Zn  Zn138  1  0.06199764  0.31608794  0.05890796  1
  Zn  Zn139  1  0.06303081  0.31220334  0.56654307  1
  Zn  Zn140  1  0.06694904  0.82580308  0.05555860  1
  Zn  Zn141  1  0.06400844  0.81356658  0.56494050  1
  Zn  Zn142  1  0.56137343  0.32433060  0.05874876  1
  Zn  Zn143  1  0.56088115  0.31131342  0.56079447  1
  Zn  Zn144  1  0.56352915  0.80872269  0.06301083  1
  Zn  Zn145  1  0.57086241  0.90093192  0.55327526  1
  O  O146  1  0.12724276  0.11368226  0.13599376  1
  O  O147  1  0.11305696  0.11982279  0.62299887  1
  O  O148  1  0.13083860  0.59943517  0.11831244  1
  O  O149  1  0.12070200  0.61823186  0.61671007  1
  O  O150  1  0.60821230  0.11066691  0.12871192  1
  O  O151  1  0.67484710  0.16157408  0.58898334  1
  O  O152  1  0.63941833  0.61684617  0.11721036  1
  O  O153  1  0.59477354  0.67155061  0.58949196  1
  O  O154  1  0.39428146  0.34378921  0.36616501  1
  O  O155  1  0.36547701  0.39231113  0.87495312  1
  O  O156  1  0.38429874  0.88498176  0.37076850  1
  O  O157  1  0.39233444  0.86555722  0.87170262  1
  O  O158  1  0.88032728  0.37598887  0.38698940  1
  O  O159  1  0.86776217  0.38321775  0.86791180  1
  O  O160  1  0.89453952  0.87245238  0.37551432  1
  O  O161  1  0.88632315  0.87695088  0.88015972  1
  O  O162  1  0.26203114  0.00272371  0.36736681  1
  O  O163  1  0.23892662  -0.00094594  0.86071327  1
  O  O164  1  0.27251606  0.49802311  0.39219551  1
  O  O165  1  0.24380593  0.50968215  0.87288213  1
  O  O166  1  0.74903475  0.01393183  0.35254439  1
  O  O167  1  0.75211017  0.00733521  0.87632420  1
  O  O168  1  0.76418370  0.49423569  0.38209787  1
  O  O169  1  0.75881201  0.50862068  0.87707620  1
  O  O170  1  0.23602713  0.48141512  0.11154891  1
  O  O171  1  0.23664974  0.50761792  0.64328874  1
  O  O172  1  0.24161646  1.00092051  0.14442920  1
  O  O173  1  0.23889787  0.99584320  0.62931971  1
  O  O174  1  0.74181757  0.49693378  0.11571971  1
  O  O175  1  0.75419639  0.48526694  0.61860082  1
  O  O176  1  0.74067709  1.01256439  0.12923818  1
  O  O177  1  0.75466981  1.00549916  0.64543990  1
  O  O178  1  0.00822184  0.36065356  0.25713802  1
  O  O179  1  0.01208712  0.36013092  0.74086650  1
  O  O180  1  0.00988531  0.88120051  0.26349805  1
  O  O181  1  -0.00660536  0.87297748  0.75918936  1
  O  O182  1  0.49563674  0.39687062  0.25077384  1
  O  O183  1  0.49500740  0.35144498  0.75149643  1
  O  O184  1  0.50292208  0.86406971  0.24816448  1
  O  O185  1  0.51343356  0.88344258  0.77278120  1
  O  O186  1  0.48803630  0.11557710  0.23498871  1
  O  O187  1  0.48759539  0.12758595  0.75367299  1
  O  O188  1  0.49716390  0.63721540  0.24279122  1
  O  O189  1  0.47670922  0.63271103  0.75543470  1
  O  O190  1  0.99395778  0.13673131  0.25759091  1
  O  O191  1  1.00415821  0.14315001  0.73919943  1
  O  O192  1  0.98956098  0.62183087  0.25871598  1
  O  O193  1  0.99223163  0.61832087  0.74484290  1
  O  O194  1  0.36032005  0.24953030  -0.00994819  1
  O  O195  1  0.36497876  0.24282798  0.51059241  1
  O  O196  1  0.36082744  0.74671207  0.00772562  1
  O  O197  1  0.35742332  0.75307061  0.49044748  1
  O  O198  1  0.86587665  0.24514951  0.00684336  1
  O  O199  1  0.86363031  0.25264385  0.50911661  1
  O  O200  1  0.87293562  0.75954986  0.01416067  1
  O  O201  1  0.87518628  0.73978280  0.52255478  1
  O  O202  1  0.13380308  0.25637772  0.49095415  1
  O  O203  1  0.13232351  0.25441325  0.98657366  1
  O  O204  1  0.12391294  0.73539049  0.49852877  1
  O  O205  1  0.14073998  0.76365429  0.98346769  1
  O  O206  1  0.63750343  0.26245074  0.48415922  1
  O  O207  1  0.62873014  0.25268754  0.98286254  1
  O  O208  1  0.61190620  0.70822621  0.52810945  1
  O  O209  1  0.64251207  0.75664519  0.99179520  1
  O  O210  1  0.50561055  0.23167628  0.11077607  1
  O  O211  1  0.49258686  0.24731975  0.63173675  1
  O  O212  1  0.48168709  0.75413836  0.12502632  1
  O  O213  1  0.41753510  0.73097562  0.52522994  1
  O  O214  1  0.99689094  0.24684472  0.13284181  1
  O  O215  1  0.99796720  0.24121250  0.63031696  1
  O  O216  1  1.04293064  0.73984065  0.12337859  1
  O  O217  1  1.00093712  0.73475373  0.62566179  1
  O  O218  1  0.00879992  0.25171282  0.37173263  1
  O  O219  1  0.00697910  0.24842428  0.86199468  1
  O  O220  1  0.01664639  0.76603062  0.38704452  1
  O  O221  1  0.01138530  0.75798510  0.87154597  1
  O  O222  1  0.52070453  0.22769416  0.38512220  1
  O  O223  1  0.51053760  0.24533628  0.86941724  1
  O  O224  1  0.48580651  0.75947531  0.34647406  1
  O  O225  1  0.51393621  0.75788589  0.89361546  1
  O  O226  1  0.25704847  0.12052327  0.48562399  1
  O  O227  1  0.25121331  0.13560083  1.00656877  1
  O  O228  1  0.24034454  0.62389898  0.50379835  1
  O  O229  1  0.24816633  0.62356436  0.98812635  1
  O  O230  1  0.76150172  0.12306364  0.47578454  1
  O  O231  1  0.75310124  0.13421729  0.98455168  1
  O  O232  1  0.75897453  0.62252427  0.48531517  1
  O  O233  1  0.76679714  0.64032442  0.99100933  1
  O  O234  1  0.25774466  0.36497437  0.00928800  1
  O  O235  1  0.25183084  0.36316484  0.50502531  1
  O  O236  1  0.25876070  0.87145420  -0.01745137  1
  O  O237  1  0.25028657  0.88116993  0.51710186  1
  O  O238  1  0.74774197  0.35774066  -0.00265639  1
  O  O239  1  0.75821846  0.36375814  0.51212935  1
  O  O240  1  0.76813601  0.86028407  -0.00611373  1
  O  O241  1  0.81359063  0.91965918  0.49552208  1
  O  O242  1  0.11905534  0.48640741  0.23837772  1
  O  O243  1  0.12539633  0.49407046  0.74785879  1
  O  O244  1  0.13756999  0.99210767  0.25420790  1
  O  O245  1  0.13661646  1.01131132  0.73905917  1
  O  O246  1  0.62881012  0.50860561  0.23146379  1
  O  O247  1  0.63787174  0.55443805  0.71505335  1
  O  O248  1  0.64024188  0.99990805  0.23721902  1
  O  O249  1  0.63433039  0.98595588  0.75608837  1
  O  O250  1  0.36506478  0.00149886  0.25438607  1
  O  O251  1  0.36687327  0.01061971  0.74717469  1
  O  O252  1  0.34725992  0.53126607  0.24010709  1
  O  O253  1  0.36140611  0.50069275  0.76422860  1
  O  O254  1  0.86192125  0.01275780  0.23615038  1
  O  O255  1  0.85628076  -0.01307340  0.76718832  1
  O  O256  1  0.87982568  0.49883934  0.26494952  1
  O  O257  1  0.87482952  0.50722305  0.76316466  1
  O  O258  1  0.12334856  0.36728119  0.36801774  1
  O  O259  1  0.12356428  0.36428283  0.86486887  1
  O  O260  1  0.11516000  0.87312059  0.37260061  1
  O  O261  1  0.10837996  0.87010501  0.87463697  1
  O  O262  1  0.61650122  0.36061318  0.36484740  1
  O  O263  1  0.62982825  0.36483565  0.86865373  1
  O  O264  1  0.61347767  0.87033990  0.35643010  1
  O  O265  1  0.61970070  0.86185859  0.87344828  1
  O  O266  1  0.38347512  0.11452915  0.13443754  1
  O  O267  1  0.37006028  0.13809787  0.63862687  1
  O  O268  1  0.35538441  0.64413647  0.13244375  1
  O  O269  1  0.35263996  0.63120301  0.65157959  1
  O  O270  1  0.88037641  0.13586541  0.13216602  1
  O  O271  1  0.88523702  0.13844107  0.63033018  1
  O  O272  1  0.88113343  0.61891155  0.13879237  1
  O  O273  1  0.88202960  0.62704608  0.64151013  1
  O  O274  1  0.24128372  0.25812513  0.10940289  1
  O  O275  1  0.24727543  0.23783162  0.60802881  1
  O  O276  1  0.24649242  0.76020244  0.10457774  1
  O  O277  1  0.24190847  0.77150639  0.63263713  1
  O  O278  1  0.75610595  0.24510854  0.11271283  1
  O  O279  1  0.76426196  0.26642814  0.63039011  1
  O  O280  1  0.74635639  0.74855285  0.11426856  1
  O  O281  1  0.75599356  0.73284716  0.63452739  1
  O  O282  1  0.24564350  0.24022704  0.39226132  1
  O  O283  1  0.23944878  0.25170914  0.88398802  1
  O  O284  1  0.22686617  0.76842137  0.38423928  1
  O  O285  1  0.24618440  0.73937891  0.88446510  1
  O  O286  1  0.74126294  0.23980607  0.37915168  1
  O  O287  1  0.73657132  0.23692791  0.87325165  1
  O  O288  1  0.76276162  0.74643510  0.37778684  1
  O  O289  1  0.74569105  0.74405563  0.88432552  1
  O  O290  1  -0.00160499  0.11437267  -0.01048647  1
  O  O291  1  -0.00631278  0.12688257  0.51473040  1
  O  O292  1  -0.00854219  0.59316366  0.00655359  1
  O  O293  1  -0.00230184  0.61217781  0.50980839  1
  O  O294  1  0.49067186  0.10708978  0.01109231  1
  O  O295  1  0.51701980  0.06306455  0.60042266  1
  O  O296  1  0.49629874  0.60674696  -0.01132120  1
  O  O297  1  0.45232686  0.63970202  0.49896169  1
  O  O298  1  0.53001197  0.40698772  0.49643484  1
  O  O299  1  0.49200583  0.39664123  1.00333832  1
  O  O300  1  0.50703292  0.85852472  0.47174704  1
  O  O301  1  0.50256422  0.88401957  0.99400494  1
  O  O302  1  0.99465583  0.38150470  0.49808607  1
  O  O303  1  0.99142140  0.38611471  1.00473971  1
  O  O304  1  1.00011293  0.88007865  0.49887818  1
  O  O305  1  0.98870127  0.87409088  0.98648113  1
  O  O306  1  0.48617736  0.52093035  0.35542044  1
  O  O307  1  0.48867836  0.50207724  0.86873022  1
  O  O308  1  0.49251197  0.98816864  0.36281313  1
  O  O309  1  0.50365244  0.98827602  0.89327338  1
  O  O310  1  0.99624559  0.49308659  0.38614897  1
  O  O311  1  0.98993235  0.49357127  0.88204410  1
  O  O312  1  1.00395541  0.99015870  0.38157606  1
  O  O313  1  0.98701489  0.99136829  0.86358591  1
  O  O314  1  0.01717658  0.00948107  0.13891318  1
  O  O315  1  0.00665217  0.01282005  0.63520682  1
  O  O316  1  0.01267250  0.48889166  0.11804218  1
  O  O317  1  0.00821553  0.50667501  0.61972248  1
  O  O318  1  0.50859346  -0.00119605  0.11109240  1
  O  O319  1  0.49961764  -0.00889527  0.61278837  1
  O  O320  1  0.51197806  0.51330156  0.11796208  1
  O  O321  1  0.48486460  0.49309837  0.63150481  1
  O  O322  1  0.24082272  0.36470254  0.23674577  1
  O  O323  1  0.23824398  0.38703649  0.75694651  1
  O  O324  1  0.24233112  0.88452825  0.25834341  1
  O  O325  1  0.25610573  0.89622819  0.73937348  1
  O  O326  1  0.74146566  0.38078781  0.24710751  1
  O  O327  1  0.75482203  0.38255354  0.73716524  1
  O  O328  1  0.75554870  0.89040001  0.24941587  1
  O  O329  1  0.73628398  0.88313967  0.75917417  1
  O  O330  1  0.26227808  0.11695870  0.25884068  1
  O  O331  1  0.26155211  0.11495233  0.74891431  1
  O  O332  1  0.22388971  0.64176826  0.23471531  1
  O  O333  1  0.25039706  0.61560348  0.76610571  1
  O  O334  1  0.75850719  0.12293580  0.25143500  1
  O  O335  1  0.74283902  0.10998974  0.76712890  1
  O  O336  1  0.77024092  0.61782862  0.26396260  1
  O  O337  1  0.76803160  0.62397435  0.76700018  1
  O  O338  1  0.37368082  0.11690823  0.36084874  1
  O  O339  1  0.37314685  0.12164131  0.86453093  1
  O  O340  1  0.34406314  0.65873338  0.34207633  1
  O  O341  1  0.35941396  0.61423842  0.86968432  1
  O  O342  1  0.86348587  0.13510159  0.35685897  1
  O  O343  1  0.86765146  0.10910918  0.87329134  1
  O  O344  1  0.87341572  0.61782615  0.37001339  1
  O  O345  1  0.87460814  0.61849424  0.86704158  1
  O  O346  1  0.13287184  0.37538003  0.13292924  1
  O  O347  1  0.12285045  0.38736253  0.63286405  1
  O  O348  1  0.11969493  0.88790289  0.14660360  1
  O  O349  1  0.12390159  0.89029317  0.62835128  1
  O  O350  1  0.62769493  0.38764349  0.12504802  1
  O  O351  1  0.63896207  0.37240499  0.62851262  1
  O  O352  1  0.62537926  0.89012447  0.12361795  1
  O  O353  1  0.60996086  0.85788090  0.64984810  1
  O  O354  1  0.12128628  0.25473515  0.25942988  1
  O  O355  1  0.12216299  0.25508778  0.75818487  1
  O  O356  1  0.12578134  0.76727542  0.26588455  1
  O  O357  1  0.13697014  0.74954312  0.76901540  1
  O  O358  1  0.62395632  0.24704327  0.25839857  1
  O  O359  1  0.61184039  0.23856285  0.76230499  1
  O  O360  1  0.60882884  0.74695994  0.22815365  1
  O  O361  1  0.63124279  0.75772085  0.77029084  1
  O  O362  1  0.37218636  0.23005839  0.24407773  1
  O  O363  1  0.38520167  0.23640648  0.75147208  1
  O  O364  1  0.37343600  0.74782122  0.22974431  1
  O  O365  1  0.36567753  0.74499310  0.76194703  1
  O  O366  1  0.88365747  0.24540581  0.24154020  1
  O  O367  1  0.88982185  0.25851493  0.74453585  1
  O  O368  1  0.87975156  0.73750741  0.24628387  1
  O  O369  1  0.87560155  0.73565997  0.74863750  1
  O  O370  1  0.33343255  0.50000924  0.43771064  1
  O  O371  1  0.38139580  0.50220455  0.98815841  1
  O  O372  1  0.37957816  1.00748148  0.48230234  1
  O  O373  1  0.37976873  0.99136664  1.00390877  1
  O  O374  1  0.88372315  0.49050860  0.49606387  1
  O  O375  1  0.87671457  0.49314470  0.98366557  1
  O  O376  1  0.85734513  0.97569165  0.51166084  1
  O  O377  1  0.86598959  0.98628688  0.98339260  1
  O  O378  1  0.13337326  -0.00791627  0.02588800  1
  O  O379  1  0.12793969  0.00141981  0.51406760  1
  O  O380  1  0.11366302  0.48656416  0.00710172  1
  O  O381  1  0.12010455  0.50777750  0.50600234  1
  O  O382  1  0.63127109  -0.00204988  0.00946196  1
  O  O383  1  0.64570682  -0.02891342  0.50789710  1
  O  O384  1  0.61453681  0.49884395  0.00695340  1
  O  O385  1  0.59528775  0.46593947  0.50295590  1
  O  O386  1  0.35740818  0.37425634  0.13702206  1
  O  O387  1  0.36206081  0.34162151  0.64150210  1
  O  O388  1  0.36854919  0.86576881  0.12435970  1
  O  O389  1  0.36756475  0.87656499  0.62407666  1
  O  O390  1  0.87168449  0.36006742  0.13195196  1
  O  O391  1  0.87721674  0.37023840  0.61507051  1
  O  O392  1  0.88570050  0.88786203  0.10963857  1
  O  O393  1  0.87164362  0.85170070  0.63859905  1
  O  O394  1  0.13733831  0.13540156  0.36691304  1
  O  O395  1  0.12295984  0.13918868  0.87038792  1
  O  O396  1  0.12250977  0.63536523  0.38852814  1
  O  O397  1  0.13104250  0.63591473  0.87707324  1
  O  O398  1  0.64043906  0.13003973  0.36481202  1
  O  O399  1  0.62993868  0.12050485  0.87995267  1
  O  O400  1  0.65223687  0.63221576  0.37057032  1
  O  O401  1  0.63618203  0.63773330  0.87183707  1
