# generated using pymatgen
data_V73Zn73O256
_symmetry_space_group_name_H-M   'P 1'
_cell_length_a   16.84245949
_cell_length_b   16.83997920
_cell_length_c   16.85522856
_cell_angle_alpha   89.94789403
_cell_angle_beta   90.09771969
_cell_angle_gamma   90.08819519
_symmetry_Int_Tables_number   1
_chemical_formula_structural   V73Zn73O256
_chemical_formula_sum   'V73 Zn73 O256'
_cell_volume   4780.57772397
_cell_formula_units_Z   1
loop_
 _symmetry_equiv_pos_site_id
 _symmetry_equiv_pos_as_xyz
  1  'x, y, z'
loop_
 _atom_site_type_symbol
 _atom_site_label
 _atom_site_symmetry_multiplicity
 _atom_site_fract_x
 _atom_site_fract_y
 _atom_site_fract_z
 _atom_site_occupancy
  V  V0  1  0.62493981  0.63103250  -0.02261424  1
  V  V1  1  0.26396835  0.10087267  0.37307997  1
  V  V2  1  0.75241176  0.62431923  0.39346724  1
  V  V3  1  0.74547549  0.12164537  0.87846952  1
  V  V4  1  0.49878200  0.36873635  0.36433668  1
  V  V5  1  0.87922815  0.25105448  0.13040853  1
  V  V6  1  0.35132819  0.49688319  0.86225409  1
  V  V7  1  0.62776202  0.25666640  0.36374935  1
  V  V8  1  0.12730826  0.39112807  0.25162732  1
  V  V9  1  0.12120752  0.38425151  0.75752069  1
  V  V10  1  0.87220597  0.62019357  0.23051199  1
  V  V11  1  0.00626760  0.25055903  0.24983819  1
  V  V12  1  0.00314240  0.50923463  0.01115901  1
  V  V13  1  0.12513640  0.24450600  0.38510564  1
  V  V14  1  -0.00286124  0.87506884  0.88318412  1
  V  V15  1  0.62369692  0.48402201  0.63359824  1
  V  V16  1  0.61622336  0.26321719  0.86447002  1
  V  V17  1  0.37266439  0.50567132  0.36906380  1
  V  V18  1  0.74018874  0.37824688  0.12826584  1
  V  V19  1  0.49261639  0.13261877  0.60887218  1
  V  V20  1  -0.01623687  0.75442338  0.74967239  1
  V  V21  1  0.87998495  0.51491772  0.87160092  1
  V  V22  1  0.63568092  0.75623637  0.39187835  1
  V  V23  1  0.49852111  0.85799342  0.87899020  1
  V  V24  1  0.22697102  0.38050181  0.62380720  1
  V  V25  1  0.86988799  -0.01277617  0.35505076  1
  V  V26  1  0.10933174  0.75315616  0.37794039  1
  V  V27  1  0.50852123  0.74079228  0.26135527  1
  V  V28  1  0.63468787  0.12436541  0.49512077  1
  V  V29  1  0.50405952  0.50282099  0.50213346  1
  V  V30  1  0.24400247  0.86410767  0.62783534  1
  V  V31  1  0.39221600  0.87035465  0.51305851  1
  V  V32  1  0.12592084  0.88104921  0.24109509  1
  V  V33  1  0.36065697  0.63074061  0.74633177  1
  V  V34  1  0.74513041  0.24947328  -0.00210860  1
  V  V35  1  0.87107612  0.11986752  0.74450279  1
  V  V36  1  0.87286545  -0.00648154  0.88293039  1
  V  V37  1  0.62871616  0.00245940  0.64809020  1
  V  V38  1  0.39114884  0.00542418  0.88713275  1
  V  V39  1  0.24726249  0.38748682  0.12483157  1
  V  V40  1  0.88548428  0.37254678  -0.01095639  1
  V  V41  1  0.62998707  0.88308033  0.24359215  1
  V  V42  1  0.13066547  0.62616738  0.01405516  1
  V  V43  1  0.76354355  0.13668293  0.36101250  1
  V  V44  1  0.75006954  0.49733070  0.75983429  1
  V  V45  1  0.40404341  -0.01425770  0.37250064  1
  V  V46  1  0.25070723  0.25035859  0.01280125  1
  V  V47  1  0.02304904  0.11430156  0.62756209  1
  V  V48  1  -0.00605145  0.61955436  0.63063472  1
  V  V49  1  0.50053573  0.49496697  -0.01938312  1
  V  V50  1  0.25440588  0.76198452  -0.00306375  1
  V  V51  1  -0.00568367  0.74665291  0.22986726  1
  V  V52  1  0.00471406  0.11352382  0.12748807  1
  V  V53  1  0.62541910  0.85196449  0.75388857  1
  V  V54  1  0.13284319  0.62178750  0.50410667  1
  V  V55  1  0.50012559  0.63150759  0.63243663  1
  V  V56  1  -0.01479420  0.50673994  0.49200748  1
  V  V57  1  0.38253716  0.25137674  0.14679245  1
  V  V58  1  0.25687495  0.63950419  0.36935883  1
  V  V59  1  0.64834143  -0.00115222  0.10598869  1
  V  V60  1  0.12837377  0.74095051  0.86460330  1
  V  V61  1  0.76895927  0.36410483  0.61256259  1
  V  V62  1  0.12582805  0.10833216  0.00775704  1
  V  V63  1  0.38665056  0.13586666  0.74448461  1
  V  V64  1  0.61463736  0.51269295  0.13029341  1
  V  V65  1  0.36912204  0.36721974  0.50717290  1
  V  V66  1  0.86250683  0.76256509  0.60950033  1
  V  V67  1  0.75942473  0.75303529  -0.00518101  1
  V  V68  1  -0.00193232  0.25068576  0.75719847  1
  V  V69  1  0.25081091  0.12700141  0.87021744  1
  V  V70  1  0.50035211  0.10973293  0.12959657  1
  V  V71  1  -0.01277057  0.38476012  0.37750336  1
  V  V72  1  0.38720133  0.74997524  0.14011434  1
  Zn  Zn73  1  0.24676733  0.23647764  0.50626498  1
  Zn  Zn74  1  -0.01901735  0.00163499  0.50948280  1
  Zn  Zn75  1  0.86720025  0.87449806  0.03203702  1
  Zn  Zn76  1  0.23922212  -0.00199289  0.73641739  1
  Zn  Zn77  1  0.12145540  0.25449432  0.88406558  1
  Zn  Zn78  1  0.25400009  -0.10991533  0.11502716  1
  Zn  Zn79  1  0.74983340  0.49933900  0.25947823  1
  Zn  Zn80  1  0.38012106  0.37222034  -0.00640496  1
  Zn  Zn81  1  0.25430133  0.51673202  0.23965193  1
  Zn  Zn82  1  0.19092043  0.05860036  0.19898126  1
  Zn  Zn83  1  0.18625999  0.20029477  0.68660293  1
  Zn  Zn84  1  0.19055829  0.69936992  0.18593865  1
  Zn  Zn85  1  0.18756370  0.69103119  0.68368075  1
  Zn  Zn86  1  0.68149856  0.18509887  0.18368559  1
  Zn  Zn87  1  0.68584081  0.19275820  0.68358364  1
  Zn  Zn88  1  0.69084157  0.69075242  0.18216401  1
  Zn  Zn89  1  0.68756177  0.67611622  0.68024271  1
  Zn  Zn90  1  0.30404379  0.31627930  0.31894696  1
  Zn  Zn91  1  0.30868614  0.31357908  0.81049013  1
  Zn  Zn92  1  0.31643495  0.82720202  0.31310517  1
  Zn  Zn93  1  0.32036553  0.81826972  0.80925012  1
  Zn  Zn94  1  0.81160447  0.31187777  0.31148803  1
  Zn  Zn95  1  0.80632700  0.31135879  0.80274897  1
  Zn  Zn96  1  0.80801383  0.80449577  0.29664169  1
  Zn  Zn97  1  0.80110586  0.80460705  0.81462020  1
  Zn  Zn98  1  0.18658364  0.44433225  0.43615358  1
  Zn  Zn99  1  0.18395635  0.43968222  0.93924199  1
  Zn  Zn100  1  0.19671028  0.91933859  0.44368983  1
  Zn  Zn101  1  0.18263808  0.94117596  0.90779947  1
  Zn  Zn102  1  0.68923140  0.43744080  0.44044468  1
  Zn  Zn103  1  0.68812565  0.43663835  0.94218075  1
  Zn  Zn104  1  0.69196604  0.94676770  0.42665789  1
  Zn  Zn105  1  0.68520956  0.92820774  0.92870973  1
  Zn  Zn106  1  0.32325438  0.06576785  0.06895320  1
  Zn  Zn107  1  0.30861279  0.04831672  0.55224358  1
  Zn  Zn108  1  0.31902580  0.57141927  0.05306055  1
  Zn  Zn109  1  0.31434807  0.55932123  0.56428067  1
  Zn  Zn110  1  0.82199058  0.06475831  0.06225330  1
  Zn  Zn111  1  0.80366123  0.06783977  0.56095667  1
  Zn  Zn112  1  0.80471643  0.56358715  0.05495976  1
  Zn  Zn113  1  0.80991581  0.56246234  0.57269581  1
  Zn  Zn114  1  0.43607714  0.43899716  0.18262601  1
  Zn  Zn115  1  0.43281407  0.43030160  0.69106847  1
  Zn  Zn116  1  0.43939136  0.92540148  0.18907330  1
  Zn  Zn117  1  0.44041058  0.94786572  0.69534281  1
  Zn  Zn118  1  0.93208265  0.43801415  0.18806997  1
  Zn  Zn119  1  0.93905225  0.43796911  0.68921016  1
  Zn  Zn120  1  0.93947705  0.93295641  0.19663367  1
  Zn  Zn121  1  0.93061288  0.93724045  0.69364835  1
  Zn  Zn122  1  0.04664843  0.05889162  0.32307343  1
  Zn  Zn123  1  0.06416786  0.05817371  0.81268069  1
  Zn  Zn124  1  0.05953946  0.57191154  0.31131559  1
  Zn  Zn125  1  0.05854294  0.56359632  0.81752666  1
  Zn  Zn126  1  0.56773300  0.06967661  0.30163498  1
  Zn  Zn127  1  0.56268542  0.07800948  0.81376064  1
  Zn  Zn128  1  0.57084714  0.56714419  0.31870471  1
  Zn  Zn129  1  0.55867298  0.55789833  0.80434196  1
  Zn  Zn130  1  0.43429089  0.18342269  0.42745408  1
  Zn  Zn131  1  0.44149664  0.18537278  0.94799592  1
  Zn  Zn132  1  0.44138577  0.69320580  0.44225611  1
  Zn  Zn133  1  0.43551738  0.67534452  0.93307507  1
  Zn  Zn134  1  0.94134713  0.19749103  0.45267541  1
  Zn  Zn135  1  0.93856555  0.18179584  0.93978995  1
  Zn  Zn136  1  0.92885588  0.68875759  0.43523172  1
  Zn  Zn137  1  0.93695435  0.68849418  0.94371906  1
  Zn  Zn138  1  0.06646144  0.31478891  0.06550472  1
  Zn  Zn139  1  0.04064789  0.30790193  0.56496992  1
  Zn  Zn140  1  0.06380996  0.81612752  0.05788020  1
  Zn  Zn141  1  0.06676913  0.80705937  0.56970270  1
  Zn  Zn142  1  0.55695923  0.30534089  0.05663106  1
  Zn  Zn143  1  0.56159825  0.30796058  0.55363315  1
  Zn  Zn144  1  0.56549241  0.81413252  0.06053036  1
  Zn  Zn145  1  0.56517687  0.82085582  0.57050999  1
  O  O146  1  0.11795042  0.11769648  0.11832387  1
  O  O147  1  0.12287536  0.11427033  0.63676902  1
  O  O148  1  0.12898294  0.62766018  0.11366954  1
  O  O149  1  0.11154864  0.63701881  0.60931216  1
  O  O150  1  0.62026970  0.10256197  0.13157332  1
  O  O151  1  0.62089618  0.12485232  0.60958744  1
  O  O152  1  0.62459401  0.61242606  0.11422246  1
  O  O153  1  0.60853334  0.60155662  0.63065749  1
  O  O154  1  0.38187100  0.38434679  0.38081311  1
  O  O155  1  0.36214965  0.38979669  0.87689891  1
  O  O156  1  0.38125353  0.87820377  0.39129637  1
  O  O157  1  0.38772009  0.89640160  0.86913470  1
  O  O158  1  0.88842877  0.37653890  0.37101158  1
  O  O159  1  0.87141906  0.37474124  0.88832905  1
  O  O160  1  0.86386726  0.88734847  0.35496530  1
  O  O161  1  0.87777187  0.88614930  0.86497364  1
  O  O162  1  0.24221524  0.00194278  0.37732421  1
  O  O163  1  0.26869127  0.02405903  0.89009515  1
  O  O164  1  0.25786448  0.51391944  0.37249105  1
  O  O165  1  0.25280275  0.50730594  0.87709232  1
  O  O166  1  0.76406596  0.02548001  0.36789506  1
  O  O167  1  0.75901119  0.01299217  0.88015412  1
  O  O168  1  0.73161712  0.51797272  0.37264195  1
  O  O169  1  0.76064278  0.49192337  0.86633506  1
  O  O170  1  0.26002055  0.49265933  0.12215766  1
  O  O171  1  0.24591499  0.48014436  0.61513550  1
  O  O172  1  0.25591191  1.00159900  0.12852628  1
  O  O173  1  0.24697859  0.98900105  0.62370424  1
  O  O174  1  0.73746352  0.48695199  0.11641750  1
  O  O175  1  0.73533548  0.48980400  0.62595740  1
  O  O176  1  0.74800263  1.00307683  0.12106446  1
  O  O177  1  0.72617297  1.00998223  0.62134009  1
  O  O178  1  0.00815283  0.37891058  0.25870018  1
  O  O179  1  0.00596768  0.35910159  0.74392243  1
  O  O180  1  0.01277075  0.85658048  0.24953056  1
  O  O181  1  -0.00515170  0.85928365  0.76075745  1
  O  O182  1  0.49781343  0.38594730  0.26720027  1
  O  O183  1  0.49856330  0.36460576  0.75097001  1
  O  O184  1  0.51796267  0.85855714  0.24710890  1
  O  O185  1  0.51183400  0.88425288  0.76360682  1
  O  O186  1  0.50770976  0.13530684  0.23013838  1
  O  O187  1  0.48903319  0.13643563  0.74491680  1
  O  O188  1  0.50365998  0.63981477  0.25402014  1
  O  O189  1  0.48946736  0.61725140  0.73688579  1
  O  O190  1  1.01064232  0.13698735  0.23549366  1
  O  O191  1  0.99294347  0.12407456  0.74783897  1
  O  O192  1  0.98685779  0.63377797  0.24998004  1
  O  O193  1  1.00348834  0.63060244  0.73561083  1
  O  O194  1  0.36118082  0.25347707  0.00639105  1
  O  O195  1  0.37182152  0.26518552  0.48676484  1
  O  O196  1  0.35425005  0.74460476  -0.01402836  1
  O  O197  1  0.38466425  0.76728556  0.50328034  1
  O  O198  1  0.87474568  0.26121814  0.00525340  1
  O  O199  1  0.93443235  0.27941421  0.52732409  1
  O  O200  1  0.86324659  0.74502579  0.00612431  1
  O  O201  1  0.88439691  0.76028618  0.51033819  1
  O  O202  1  0.11841100  0.26335736  0.48622304  1
  O  O203  1  0.13775416  0.24781754  1.00351248  1
  O  O204  1  0.11558023  0.73795846  0.48571604  1
  O  O205  1  0.12700894  0.73921579  0.99213310  1
  O  O206  1  0.61336142  0.23459185  0.48085904  1
  O  O207  1  0.64182865  0.25532834  0.99428034  1
  O  O208  1  0.63049864  0.76618187  0.49081227  1
  O  O209  1  0.61347990  0.73192172  0.99217312  1
  O  O210  1  0.48155198  0.27338479  0.13632019  1
  O  O211  1  0.50569188  0.23258919  0.62125353  1
  O  O212  1  0.49109619  0.75031422  0.13060247  1
  O  O213  1  0.51096726  0.72893344  0.61798001  1
  O  O214  1  0.99662392  0.25140201  0.13285614  1
  O  O215  1  1.00843981  0.22600034  0.64833336  1
  O  O216  1  1.00452630  0.74488224  0.13115503  1
  O  O217  1  0.99243480  0.74548932  0.63651395  1
  O  O218  1  0.00492620  0.26849703  0.36969878  1
  O  O219  1  0.00478250  0.23858627  0.86416123  1
  O  O220  1  0.00779574  0.74461850  0.36824832  1
  O  O221  1  -0.00256900  0.75037951  0.86348042  1
  O  O222  1  0.50197084  0.26284096  0.37130925  1
  O  O223  1  0.51906940  0.24422235  0.88720444  1
  O  O224  1  0.51764208  0.74631155  0.36963695  1
  O  O225  1  0.48500384  0.75942309  0.87112509  1
  O  O226  1  0.25343064  0.12506016  0.47969086  1
  O  O227  1  0.24189570  0.13739090  1.00484174  1
  O  O228  1  0.23770435  0.62199646  0.49467300  1
  O  O229  1  0.23472017  0.63480785  0.99622644  1
  O  O230  1  0.73918665  0.13411969  0.48950431  1
  O  O231  1  0.76582099  0.13876458  0.98756424  1
  O  O232  1  0.75225086  0.62243627  0.49315768  1
  O  O233  1  0.73173426  0.62671046  0.99565240  1
  O  O234  1  0.24387432  0.36752831  0.00969851  1
  O  O235  1  0.25697902  0.37608953  0.50164808  1
  O  O236  1  0.23745357  0.86463618  -0.01227655  1
  O  O237  1  0.26667601  0.87439345  0.51803169  1
  O  O238  1  0.76357188  0.36847568  0.00894015  1
  O  O239  1  0.74840177  0.37617693  0.51277966  1
  O  O240  1  0.75736265  0.86178117  -0.01291776  1
  O  O241  1  0.78861404  0.91961531  0.49772264  1
  O  O242  1  0.12548020  0.49405763  0.25397149  1
  O  O243  1  0.10759212  0.48347123  0.75251175  1
  O  O244  1  0.11321560  0.98494813  0.25952771  1
  O  O245  1  0.14725282  0.98594167  0.80321338  1
  O  O246  1  0.62750950  0.50702450  0.23409720  1
  O  O247  1  0.63401339  0.49000606  0.74226166  1
  O  O248  1  0.62996320  0.98634446  0.24873055  1
  O  O249  1  0.63404587  1.01682485  0.74768490  1
  O  O250  1  0.37477585  -0.02632098  0.27313006  1
  O  O251  1  0.36968556  0.02283427  0.76292693  1
  O  O252  1  0.37578802  0.50047675  0.26442220  1
  O  O253  1  0.36753681  0.49880638  0.75773979  1
  O  O254  1  0.88656989  0.01339678  0.25936558  1
  O  O255  1  0.87534053  0.01290340  0.76458097  1
  O  O256  1  0.87179230  0.51402070  0.24839369  1
  O  O257  1  0.87183583  0.49563014  0.76548266  1
  O  O258  1  0.12051945  0.37535418  0.36404534  1
  O  O259  1  0.13040589  0.37264293  0.86214582  1
  O  O260  1  0.13163820  0.85457382  0.36572466  1
  O  O261  1  0.10167244  0.85392274  0.88468570  1
  O  O262  1  0.61083083  0.36648155  0.38298410  1
  O  O263  1  0.63360672  0.36273211  0.87490904  1
  O  O264  1  0.63831364  0.86439119  0.36299207  1
  O  O265  1  0.61122722  0.86994128  0.86442843  1
  O  O266  1  0.38523285  0.14453640  0.12895644  1
  O  O267  1  0.38495475  0.11896930  0.63170864  1
  O  O268  1  0.36117752  0.65198786  0.12140384  1
  O  O269  1  0.38670620  0.61463386  0.63451758  1
  O  O270  1  0.89339886  0.14128746  0.11290441  1
  O  O271  1  0.86755449  0.11927645  0.64326459  1
  O  O272  1  0.87072240  0.62118578  0.13036676  1
  O  O273  1  0.89071435  0.63650390  0.61798116  1
  O  O274  1  0.25891437  0.26106357  0.11760796  1
  O  O275  1  0.24180960  0.26857862  0.61513683  1
  O  O276  1  0.24921721  0.76098499  0.10597677  1
  O  O277  1  0.25805141  0.76154382  0.63006538  1
  O  O278  1  0.75708556  0.25618689  0.11859904  1
  O  O279  1  0.75512655  0.26432957  0.63076966  1
  O  O280  1  0.72773070  0.75025709  0.09531965  1
  O  O281  1  0.76483596  0.73742376  0.62249771  1
  O  O282  1  0.23261872  0.24950496  0.37960335  1
  O  O283  1  0.25222089  0.24016778  0.89009410  1
  O  O284  1  0.24699724  0.74096540  0.37379673  1
  O  O285  1  0.23177924  0.75681813  0.87610904  1
  O  O286  1  0.73613218  0.25367632  0.37569394  1
  O  O287  1  0.74899792  0.24334503  0.88148219  1
  O  O288  1  0.74231869  0.74142291  0.37417491  1
  O  O289  1  0.74807286  0.73980535  0.89004807  1
  O  O290  1  0.01785195  0.13189256  0.01198898  1
  O  O291  1  -0.00270156  0.12193269  0.52506819  1
  O  O292  1  0.00683994  0.61548033  0.00259217  1
  O  O293  1  0.00539045  0.61864373  0.50205492  1
  O  O294  1  0.50922966  0.15336402  0.03437277  1
  O  O295  1  0.50033046  0.12497078  0.50515093  1
  O  O296  1  0.50927227  0.60714420  -0.00691407  1
  O  O297  1  0.48956037  0.60733085  0.51106606  1
  O  O298  1  0.48654343  0.38242125  0.49342961  1
  O  O299  1  0.49749066  0.39017154  1.00329273  1
  O  O300  1  0.49384105  0.88357072  0.50955060  1
  O  O301  1  0.50727643  0.87378889  0.97916252  1
  O  O302  1  1.00907392  0.39809738  0.48557194  1
  O  O303  1  0.99095625  0.38321440  1.00148349  1
  O  O304  1  1.03593950  0.89456317  0.49558071  1
  O  O305  1  0.98202925  0.85949279  0.98557788  1
  O  O306  1  0.49772649  0.49642830  0.38652449  1
  O  O307  1  0.50011035  0.49022016  0.87935194  1
  O  O308  1  0.50304416  1.00113921  0.36944146  1
  O  O309  1  0.49237440  1.01507710  0.87555553  1
  O  O310  1  0.99829670  0.49740219  0.38007077  1
  O  O311  1  0.98529726  0.50169073  0.88622788  1
  O  O312  1  0.96678774  1.01696170  0.39466181  1
  O  O313  1  0.99015014  0.98283448  0.87494359  1
  O  O314  1  -0.00785588  0.01590293  0.12867519  1
  O  O315  1  -0.00759568  0.01034444  0.63019591  1
  O  O316  1  -0.00397356  0.49616300  0.10960135  1
  O  O317  1  -0.00389896  0.51416533  0.61492501  1
  O  O318  1  0.48910517  0.00872485  0.12350529  1
  O  O319  1  0.51766770  0.02304485  0.63467731  1
  O  O320  1  0.51191980  0.49606195  0.11809508  1
  O  O321  1  0.50466122  0.49427903  0.61642068  1
  O  O322  1  0.23828469  0.38366551  0.24593740  1
  O  O323  1  0.23093082  0.36980449  0.73577287  1
  O  O324  1  0.22948897  0.86201572  0.24525255  1
  O  O325  1  0.26497471  0.88168707  0.73595629  1
  O  O326  1  0.75811095  0.37971201  0.23203019  1
  O  O327  1  0.75798490  0.38893014  0.73276917  1
  O  O328  1  0.72798975  0.85713488  0.23507248  1
  O  O329  1  0.72585751  0.87324649  0.76180336  1
  O  O330  1  0.23258880  0.12736838  0.27924655  1
  O  O331  1  0.24680827  0.12921251  0.76597273  1
  O  O332  1  0.24565033  0.63046786  0.26404245  1
  O  O333  1  0.26017768  0.61894385  0.73570542  1
  O  O334  1  0.75862700  0.14467143  0.26095622  1
  O  O335  1  0.76485499  0.13587767  0.76747223  1
  O  O336  1  0.76258391  0.62705484  0.24821391  1
  O  O337  1  0.75161431  0.59601633  0.73710796  1
  O  O338  1  0.37152519  0.10359169  0.36954048  1
  O  O339  1  0.37064934  0.12854665  0.86906885  1
  O  O340  1  0.36274323  0.62261544  0.38596622  1
  O  O341  1  0.37925826  0.60652468  0.85734851  1
  O  O342  1  0.86220206  0.15095040  0.38465989  1
  O  O343  1  0.87375944  0.11105128  0.87338426  1
  O  O344  1  0.85602428  0.62952564  0.36944258  1
  O  O345  1  0.87246152  0.61309650  0.87957320  1
  O  O346  1  0.13271417  0.37466210  0.14121354  1
  O  O347  1  0.12136411  0.37367986  0.62985796  1
  O  O348  1  0.12349211  0.87620588  0.13612504  1
  O  O349  1  0.14135908  0.86599866  0.63095653  1
  O  O350  1  0.63834247  0.37324167  0.11858447  1
  O  O351  1  0.62349655  0.38187601  0.62072438  1
  O  O352  1  0.61623706  0.89436166  0.12870024  1
  O  O353  1  0.61565528  0.89303922  0.64567934  1
  O  O354  1  0.11209223  0.26837768  0.26286971  1
  O  O355  1  0.11445498  0.25730213  0.75892784  1
  O  O356  1  0.11143484  0.74811905  0.25726773  1
  O  O357  1  0.11278474  0.74171323  0.76129293  1
  O  O358  1  0.62484108  0.25147230  0.26319878  1
  O  O359  1  0.62692759  0.24193638  0.76605491  1
  O  O360  1  0.61667608  0.75216631  0.25003292  1
  O  O361  1  0.62289481  0.75285033  0.73902720  1
  O  O362  1  0.36665325  0.25680918  0.24518188  1
  O  O363  1  0.36126680  0.23410672  0.74821439  1
  O  O364  1  0.38998931  0.75608578  0.24820563  1
  O  O365  1  0.37128814  0.72961637  0.75876404  1
  O  O366  1  0.89010845  0.26117470  0.23950870  1
  O  O367  1  0.88883157  0.23638135  0.75993877  1
  O  O368  1  0.88746342  0.73802839  0.24757913  1
  O  O369  1  0.88224612  0.74487274  0.74753937  1
  O  O370  1  0.38157255  0.48997163  0.48998782  1
  O  O371  1  0.38553401  0.50454385  0.98440821  1
  O  O372  1  0.37868431  0.99000844  0.48226326  1
  O  O373  1  0.38458229  1.01595430  0.98693265  1
  O  O374  1  0.88664428  0.50821843  0.49936136  1
  O  O375  1  0.88026452  0.49179379  0.99216592  1
  O  O376  1  0.84556297  0.97869084  0.49042095  1
  O  O377  1  0.87494129  0.99278531  0.98707474  1
  O  O378  1  0.12977289  0.01071497  -0.00535952  1
  O  O379  1  0.09745308  -0.04732743  0.49850048  1
  O  O380  1  0.11250610  0.51189853  -0.00469727  1
  O  O381  1  0.11484849  0.51843693  0.49305464  1
  O  O382  1  0.63590855  -0.00163450  0.00671790  1
  O  O383  1  0.62518668  0.02136540  0.48741043  1
  O  O384  1  0.61588347  0.50438281  0.00361195  1
  O  O385  1  0.60827213  0.49405155  0.50913242  1
  O  O386  1  0.36164810  0.36980813  0.12372916  1
  O  O387  1  0.36732534  0.37622886  0.60940436  1
  O  O388  1  0.37001373  0.85529087  0.12302371  1
  O  O389  1  0.37792586  0.88760697  0.61828274  1
  O  O390  1  0.86868916  0.36769040  0.11450830  1
  O  O391  1  0.86841925  0.38526824  0.61883601  1
  O  O392  1  0.87258211  0.86616435  0.14169466  1
  O  O393  1  0.87240281  0.86111006  0.63402688  1
  O  O394  1  0.10671837  0.14454474  0.37813734  1
  O  O395  1  0.13836975  0.12865837  0.89137961  1
  O  O396  1  0.13487903  0.63496531  0.38143892  1
  O  O397  1  0.11570223  0.63751528  0.88384864  1
  O  O398  1  0.63617440  0.13690443  0.37459434  1
  O  O399  1  0.64393673  0.13195526  0.87853260  1
  O  O400  1  0.63677205  0.64347583  0.37691332  1
  O  O401  1  0.62286523  0.61646543  0.87775192  1
