# generated using pymatgen
data_V73Zn73O256
_symmetry_space_group_name_H-M   'P 1'
_cell_length_a   16.86513713
_cell_length_b   16.88500164
_cell_length_c   16.86811184
_cell_angle_alpha   89.85940877
_cell_angle_beta   90.20325317
_cell_angle_gamma   89.99084481
_symmetry_Int_Tables_number   1
_chemical_formula_structural   V73Zn73O256
_chemical_formula_sum   'V73 Zn73 O256'
_cell_volume   4803.45149148
_cell_formula_units_Z   1
loop_
 _symmetry_equiv_pos_site_id
 _symmetry_equiv_pos_as_xyz
  1  'x, y, z'
loop_
 _atom_site_type_symbol
 _atom_site_label
 _atom_site_symmetry_multiplicity
 _atom_site_fract_x
 _atom_site_fract_y
 _atom_site_fract_z
 _atom_site_occupancy
  V  V0  1  0.88291739  0.87557776  0.51363614  1
  V  V1  1  0.00060838  0.24817221  0.76018464  1
  V  V2  1  0.26441696  0.23898101  0.00989930  1
  V  V3  1  0.25106504  0.49962019  0.74332588  1
  V  V4  1  0.61661787  0.62123288  -0.00033393  1
  V  V5  1  0.12291905  0.37405567  0.75649543  1
  V  V6  1  0.37354879  0.63159191  0.24599657  1
  V  V7  1  0.49321379  0.23767054  0.24951847  1
  V  V8  1  0.63893087  0.88552174  0.73421664  1
  V  V9  1  0.36210311  0.76319014  0.61628601  1
  V  V10  1  0.10897540  0.50354452  0.11146193  1
  V  V11  1  -0.01045357  0.61611139  0.62589289  1
  V  V12  1  0.50424535  0.38107881  0.87767103  1
  V  V13  1  0.88448573  0.38135364  0.00245400  1
  V  V14  1  0.12599759  0.11927467  0.50087524  1
  V  V15  1  0.23167144  0.63225820  0.87464763  1
  V  V16  1  0.87463415  0.23669402  0.12320348  1
  V  V17  1  0.74235202  -0.02059593  0.26244456  1
  V  V18  1  0.39020911  0.50226711  0.38202303  1
  V  V19  1  0.37278235  0.37595558  0.01546051  1
  V  V20  1  0.74864733  0.75419756  0.00866007  1
  V  V21  1  0.74339197  0.61202687  0.36905198  1
  V  V22  1  0.25289341  0.36738453  0.61892501  1
  V  V23  1  0.37763523  0.87464027  0.01378181  1
  V  V24  1  0.74445390  0.61280666  0.86395966  1
  V  V25  1  0.87299082  0.87229187  0.01151854  1
  V  V26  1  0.63114833  -0.00761994  0.11530552  1
  V  V27  1  0.26011917  0.00022938  0.23824084  1
  V  V28  1  0.24502205  -0.01703209  0.75826479  1
  V  V29  1  0.49737248  0.24862047  0.74457127  1
  V  V30  1  0.62988388  0.75428580  0.37906738  1
  V  V31  1  0.37664562  0.50126501  0.88221172  1
  V  V32  1  0.62704774  0.22907398  0.36959293  1
  V  V33  1  0.10906650  0.01490820  0.12682778  1
  V  V34  1  0.26029555  0.12336124  0.37245289  1
  V  V35  1  0.88194538  -0.00575086  0.87703705  1
  V  V36  1  0.88564349  0.49605808  0.37333556  1
  V  V37  1  0.50196374  0.61883827  0.61437393  1
  V  V38  1  0.10377154  0.12941299  0.00103068  1
  V  V39  1  0.75469314  0.24794902  0.48267611  1
  V  V40  1  0.13137690  0.37194245  0.23902349  1
  V  V41  1  0.24129589  0.62433681  0.38599594  1
  V  V42  1  0.49822339  0.87373450  0.39061156  1
  V  V43  1  0.74185953  0.37379573  0.63049743  1
  V  V44  1  0.49507735  0.62395503  0.12545322  1
  V  V45  1  0.74274130  0.11660874  0.87937274  1
  V  V46  1  0.12414965  0.74717643  0.39144587  1
  V  V47  1  0.49501735  0.76327189  0.75109615  1
  V  V48  1  0.86983606  0.11930461  0.74840066  1
  V  V49  1  0.62269081  0.38146014  0.26181498  1
  V  V50  1  0.87862074  0.25745210  0.61551933  1
  V  V51  1  0.87736774  0.62864512  0.23601983  1
  V  V52  1  0.13072956  0.25134959  0.37558722  1
  V  V53  1  0.62262494  0.75757869  0.87085810  1
  V  V54  1  0.39560716  -0.00537952  0.87503800  1
  V  V55  1  0.12789840  0.86615374  0.22987313  1
  V  V56  1  0.74652894  0.37838382  0.12546156  1
  V  V57  1  0.37862777  0.62623817  0.74960915  1
  V  V58  1  0.01167436  0.86248490  0.87352806  1
  V  V59  1  -0.00011319  0.11248860  0.62250037  1
  V  V60  1  0.62404882  0.24977986  0.87913792  1
  V  V61  1  0.39726892  0.37553344  0.50110934  1
  V  V62  1  0.00237930  0.24576194  0.24417633  1
  V  V63  1  0.62419745  0.50038829  0.12814074  1
  V  V64  1  0.50227339  0.12218827  0.10898654  1
  V  V65  1  0.37164321  -0.01119678  0.39160352  1
  V  V66  1  0.49910450  0.75908829  0.24421481  1
  V  V67  1  0.87938319  0.49601079  0.87326600  1
  V  V68  1  0.87029222  0.11628002  0.26895416  1
  V  V69  1  0.75365290  0.75255047  0.51085059  1
  V  V70  1  0.36396289  0.13184963  0.74751220  1
  V  V71  1  0.25095956  0.49581586  0.23898779  1
  V  V72  1  0.57884742  0.06455302  0.56511167  1
  Zn  Zn73  1  0.74110428  0.24486210  0.00462611  1
  Zn  Zn74  1  0.13232384  -0.00468003  0.63262121  1
  Zn  Zn75  1  0.14287398  0.23681928  0.87192911  1
  Zn  Zn76  1  0.26916475  0.24297348  0.50451237  1
  Zn  Zn77  1  0.61972698  0.48676332  0.62119027  1
  Zn  Zn78  1  -0.00149239  0.87508157  0.37245592  1
  Zn  Zn79  1  0.00025945  0.37853281  0.37530810  1
  Zn  Zn80  1  -0.05321147  0.02738067  0.43946203  1
  Zn  Zn81  1  -0.00528734  0.74852109  0.24906195  1
  Zn  Zn82  1  0.19912625  0.18739245  0.18494501  1
  Zn  Zn83  1  0.18882743  0.18846598  0.68554950  1
  Zn  Zn84  1  0.18702888  0.67553694  0.18110575  1
  Zn  Zn85  1  0.19772594  0.78139159  0.72914520  1
  Zn  Zn86  1  0.68703634  0.17988323  0.18846581  1
  Zn  Zn87  1  0.69097021  0.19949983  0.69687832  1
  Zn  Zn88  1  0.68283315  0.69086161  0.19309551  1
  Zn  Zn89  1  0.68032926  0.68628893  0.68778687  1
  Zn  Zn90  1  0.31739495  0.31764537  0.31655359  1
  Zn  Zn91  1  0.31462155  0.31256644  0.82193537  1
  Zn  Zn92  1  0.30627837  0.81324530  0.31347949  1
  Zn  Zn93  1  0.28814925  0.82036723  0.88653299  1
  Zn  Zn94  1  0.81320690  0.31596554  0.30269247  1
  Zn  Zn95  1  0.81254173  0.30944891  0.81506885  1
  Zn  Zn96  1  0.82148161  0.81679883  0.31935750  1
  Zn  Zn97  1  0.80761337  0.80959421  0.80347980  1
  Zn  Zn98  1  0.19112457  0.43730101  0.43024285  1
  Zn  Zn99  1  0.19459229  0.43212903  0.93747918  1
  Zn  Zn100  1  0.15371280  0.95239763  0.41457178  1
  Zn  Zn101  1  0.19814955  0.96469976  0.93990894  1
  Zn  Zn102  1  0.69112527  0.42532679  0.45248898  1
  Zn  Zn103  1  0.68589878  0.43464238  0.94478243  1
  Zn  Zn104  1  0.69735277  0.95220458  0.46321425  1
  Zn  Zn105  1  0.68401638  0.93783267  0.93220997  1
  Zn  Zn106  1  0.32619083  0.06060097  0.05904588  1
  Zn  Zn107  1  0.31254684  0.06058917  0.57174491  1
  Zn  Zn108  1  0.30778587  0.56834984  0.05707465  1
  Zn  Zn109  1  0.31630120  0.56470098  0.56523791  1
  Zn  Zn110  1  0.80368096  0.05360547  0.06332705  1
  Zn  Zn111  1  0.79647523  0.06059981  0.56204819  1
  Zn  Zn112  1  0.80573884  0.56406016  0.05643686  1
  Zn  Zn113  1  0.79813368  0.55504469  0.54875604  1
  Zn  Zn114  1  0.44547864  0.43988793  0.19930831  1
  Zn  Zn115  1  0.44297132  0.43399871  0.68858583  1
  Zn  Zn116  1  0.44174307  0.94306436  0.18146575  1
  Zn  Zn117  1  0.43661758  0.94859186  0.67969559  1
  Zn  Zn118  1  0.93444590  0.43941802  0.19262475  1
  Zn  Zn119  1  0.92965926  0.43230861  0.69842448  1
  Zn  Zn120  1  0.93544772  0.93635006  0.19063803  1
  Zn  Zn121  1  0.93843449  0.93025305  0.69400884  1
  Zn  Zn122  1  0.06612879  0.06632931  0.30437645  1
  Zn  Zn123  1  0.06142647  0.05931487  0.81459358  1
  Zn  Zn124  1  0.06001583  0.56416054  0.29877980  1
  Zn  Zn125  1  0.06198973  0.55092390  0.81673141  1
  Zn  Zn126  1  0.56241493  0.05089957  0.31109996  1
  Zn  Zn127  1  0.56229531  0.06479153  0.79975819  1
  Zn  Zn128  1  0.57043515  0.56794771  0.44737402  1
  Zn  Zn129  1  0.56603573  0.55790052  0.80244280  1
  Zn  Zn130  1  0.44551601  0.18299676  0.43907315  1
  Zn  Zn131  1  0.43480707  0.18599435  0.93084864  1
  Zn  Zn132  1  0.42529857  0.69633747  0.43708802  1
  Zn  Zn133  1  0.43354873  0.69652033  0.93709430  1
  Zn  Zn134  1  0.94622397  0.19575747  0.43693098  1
  Zn  Zn135  1  0.92816372  0.18706036  0.93835804  1
  Zn  Zn136  1  0.92689862  0.69083230  0.42697280  1
  Zn  Zn137  1  0.91385275  0.70554455  0.89205317  1
  Zn  Zn138  1  0.06508512  0.31081398  0.06061142  1
  Zn  Zn139  1  0.07331338  0.30380886  0.57259278  1
  Zn  Zn140  1  0.09248235  0.84983797  0.02252520  1
  Zn  Zn141  1  0.06144153  0.80828695  0.57477886  1
  Zn  Zn142  1  0.55534321  0.30983456  0.06296089  1
  Zn  Zn143  1  0.57143168  0.23868772  0.56807233  1
  Zn  Zn144  1  0.56107650  0.81760615  0.05889908  1
  Zn  Zn145  1  0.56025133  0.80542429  0.56513053  1
  O  O146  1  0.12326590  0.12107534  0.12226500  1
  O  O147  1  0.11551057  0.13276703  0.61548602  1
  O  O148  1  0.12363198  0.60385588  0.12314031  1
  O  O149  1  0.09285359  0.61552706  0.61251570  1
  O  O150  1  0.61584855  0.11480013  0.13075126  1
  O  O151  1  0.62464539  0.14309849  0.62386655  1
  O  O152  1  0.61805643  0.61982319  0.12088107  1
  O  O153  1  0.60352825  0.62440827  0.62800910  1
  O  O154  1  0.37463649  0.39403590  0.38533417  1
  O  O155  1  0.38137584  0.38590899  0.88554486  1
  O  O156  1  0.37704535  0.88123118  0.37711812  1
  O  O157  1  0.37922033  0.89369673  0.86405077  1
  O  O158  1  0.87931905  0.38965906  0.35786586  1
  O  O159  1  0.86431234  0.38078408  0.89347139  1
  O  O160  1  0.88596179  0.87381080  0.39317695  1
  O  O161  1  0.88158659  0.88601225  0.87359228  1
  O  O162  1  0.25591935  0.00328746  0.36783115  1
  O  O163  1  0.26161536  0.01222036  0.85847107  1
  O  O164  1  0.24676177  0.51274005  0.36255739  1
  O  O165  1  0.25914454  0.50447942  0.86576591  1
  O  O166  1  0.74649284  -0.01059042  0.36320031  1
  O  O167  1  0.75617955  0.01223044  0.87283596  1
  O  O168  1  0.74764192  0.51145258  0.37344049  1
  O  O169  1  0.74538851  0.50913643  0.88117824  1
  O  O170  1  0.24858117  0.50387368  0.13613153  1
  O  O171  1  0.25496379  0.49284685  0.63834726  1
  O  O172  1  0.24922010  1.01064221  0.13736374  1
  O  O173  1  0.25049891  1.00151779  0.64861430  1
  O  O174  1  0.73581689  0.49103574  0.11991832  1
  O  O175  1  0.75395110  0.47759973  0.61973233  1
  O  O176  1  0.73863551  1.00916837  0.14365741  1
  O  O177  1  0.69014871  1.01542040  0.56568741  1
  O  O178  1  0.01177641  0.36245062  0.25057320  1
  O  O179  1  0.01663955  0.36651873  0.74166229  1
  O  O180  1  0.01434290  0.86838246  0.24509320  1
  O  O181  1  0.00687199  0.88599196  0.77495544  1
  O  O182  1  0.51789351  0.36036557  0.24496214  1
  O  O183  1  0.48411859  0.36397192  0.77080736  1
  O  O184  1  0.48776792  0.86066742  0.25465386  1
  O  O185  1  0.50439715  0.86343431  0.74510183  1
  O  O186  1  0.50171039  0.13549489  0.25589256  1
  O  O187  1  0.49363858  0.14287774  0.74996486  1
  O  O188  1  0.48596152  0.63780039  0.24136036  1
  O  O189  1  0.49058800  0.62853212  0.74088640  1
  O  O190  1  0.98986179  0.13674492  0.25275370  1
  O  O191  1  0.99341535  0.13026403  0.74302738  1
  O  O192  1  0.98625892  0.63090428  0.24028139  1
  O  O193  1  1.00383714  0.61323406  0.72986474  1
  O  O194  1  0.37205579  0.26082625  0.00167083  1
  O  O195  1  0.38051639  0.27041157  0.48415218  1
  O  O196  1  0.36223788  0.77176666  -0.02176185  1
  O  O197  1  0.36303642  0.74825547  0.51497848  1
  O  O198  1  0.87246487  0.25735256  0.01375806  1
  O  O199  1  0.87963451  0.25326869  0.50921304  1
  O  O200  1  0.85704063  0.75785983  -0.01030026  1
  O  O201  1  0.86261549  0.75711580  0.49700346  1
  O  O202  1  0.12736221  0.24077746  0.48880159  1
  O  O203  1  0.13253113  0.23681858  1.00340945  1
  O  O204  1  0.12318515  0.75137224  0.48955118  1
  O  O205  1  0.16538937  0.75109655  1.03210763  1
  O  O206  1  0.64275037  0.25290735  0.47844409  1
  O  O207  1  0.62310194  0.25285047  0.98557039  1
  O  O208  1  0.63375345  0.75293286  0.48761055  1
  O  O209  1  0.62901532  0.74631521  0.98965153  1
  O  O210  1  0.51022351  0.23552912  0.14018930  1
  O  O211  1  0.49730204  0.27106575  0.64678404  1
  O  O212  1  0.50777323  0.74354265  0.13902325  1
  O  O213  1  0.49035914  0.74045448  0.63551883  1
  O  O214  1  0.98503624  0.25532867  0.13295099  1
  O  O215  1  0.99234872  0.23856005  0.63031528  1
  O  O216  1  1.00887588  0.72559150  0.08012734  1
  O  O217  1  0.98205024  0.71910255  0.63336054  1
  O  O218  1  0.01336818  0.25531194  0.36616368  1
  O  O219  1  -0.00509028  0.24533536  0.86147938  1
  O  O220  1  0.01626510  0.74280476  0.37077150  1
  O  O221  1  0.01350422  0.76122094  0.88223701  1
  O  O222  1  0.52014618  0.24412989  0.36693313  1
  O  O223  1  0.50567806  0.26038399  0.87161918  1
  O  O224  1  0.49988383  0.75770811  0.36910837  1
  O  O225  1  0.50993141  0.74147778  0.85871805  1
  O  O226  1  0.24652806  0.12781278  0.49333538  1
  O  O227  1  0.25691155  0.13644598  1.00541556  1
  O  O228  1  0.24570280  0.61359372  0.48466025  1
  O  O229  1  0.25901694  0.62851164  0.97254651  1
  O  O230  1  0.76734098  0.14929749  0.49403719  1
  O  O231  1  0.75944333  0.12788923  0.98285591  1
  O  O232  1  0.75845539  0.64086695  0.47779443  1
  O  O233  1  0.73411504  0.63563668  0.99357821  1
  O  O234  1  0.26855561  0.37104960  0.00486243  1
  O  O235  1  0.24571698  0.37643999  0.51310347  1
  O  O236  1  0.26417920  0.88360256  -0.01690770  1
  O  O237  1  0.23208235  0.87876016  0.50245106  1
  O  O238  1  0.75454897  0.36753233  0.01285875  1
  O  O239  1  0.76154760  0.35517473  0.51154963  1
  O  O240  1  0.75488848  0.86106038  -0.00948237  1
  O  O241  1  0.75957401  0.86016911  0.50015297  1
  O  O242  1  0.13148116  0.49002007  0.23994789  1
  O  O243  1  0.13866235  0.48506688  0.75535452  1
  O  O244  1  0.13363884  0.99496433  0.23728831  1
  O  O245  1  0.13926619  1.00585487  0.75267093  1
  O  O246  1  0.62236345  0.48380447  0.23886233  1
  O  O247  1  0.60359531  0.48174595  0.73156910  1
  O  O248  1  0.63765275  0.99318676  0.24828012  1
  O  O249  1  0.62448218  0.98431880  0.74999257  1
  O  O250  1  0.36065808  -0.00906923  0.25709730  1
  O  O251  1  0.36832639  0.00982771  0.75487645  1
  O  O252  1  0.37055445  0.50587855  0.26298015  1
  O  O253  1  0.36768929  0.50346373  0.75763132  1
  O  O254  1  0.86817815  0.01336120  0.24580268  1
  O  O255  1  0.87808830  0.00850016  0.76230843  1
  O  O256  1  0.87401180  0.51604903  0.25673556  1
  O  O257  1  0.86601217  0.48520582  0.77352485  1
  O  O258  1  0.12960960  0.36261861  0.36200970  1
  O  O259  1  0.13375329  0.36780308  0.85943129  1
  O  O260  1  0.12748758  0.85362747  0.35778496  1
  O  O261  1  0.10812261  0.88731566  0.91073927  1
  O  O262  1  0.63338980  0.37659162  0.36209520  1
  O  O263  1  0.61016046  0.37196802  0.88164387  1
  O  O264  1  0.60531520  0.86279540  0.37649128  1
  O  O265  1  0.62960268  0.86198403  0.86301738  1
  O  O266  1  0.40120607  0.11221446  0.12844255  1
  O  O267  1  0.37405276  0.12410637  0.64531111  1
  O  O268  1  0.38093645  0.62049429  0.13304712  1
  O  O269  1  0.38010731  0.63330792  0.63373300  1
  O  O270  1  0.87104964  0.13575078  0.12656907  1
  O  O271  1  0.88062206  0.12496299  0.63050772  1
  O  O272  1  0.85847121  0.62371201  0.13725174  1
  O  O273  1  0.88365300  0.60783811  0.62917857  1
  O  O274  1  0.25051237  0.25452027  0.11122085  1
  O  O275  1  0.25684423  0.26302918  0.62315455  1
  O  O276  1  0.21962133  0.75037910  0.08612797  1
  O  O277  1  0.26623727  0.74562573  0.64472603  1
  O  O278  1  0.76160038  0.25397732  0.12692168  1
  O  O279  1  0.76949057  0.24919204  0.61707780  1
  O  O280  1  0.73839644  0.74778116  0.10757225  1
  O  O281  1  0.74524580  0.73521811  0.60877548  1
  O  O282  1  0.24631930  0.24079042  0.37297649  1
  O  O283  1  0.25163001  0.25755422  0.89919105  1
  O  O284  1  0.23879569  0.73502840  0.37042989  1
  O  O285  1  0.23219331  0.73312296  0.83828985  1
  O  O286  1  0.74750230  0.25635085  0.37676702  1
  O  O287  1  0.74212343  0.24050692  0.87638154  1
  O  O288  1  0.73414380  0.75397734  0.37371876  1
  O  O289  1  0.73597731  0.73491400  0.87868144  1
  O  O290  1  0.00485261  0.13381613  0.00734848  1
  O  O291  1  0.00656045  0.12033312  0.50571119  1
  O  O292  1  0.00066946  0.66963134  0.03345240  1
  O  O293  1  -0.01895594  0.62060517  0.52153543  1
  O  O294  1  0.50289163  0.13277947  0.00930313  1
  O  O295  1  0.51791322  0.13861582  0.51468120  1
  O  O296  1  0.50670774  0.64010761  0.01190395  1
  O  O297  1  0.49474324  0.63437814  0.50897487  1
  O  O298  1  0.49276500  0.37995516  0.50706128  1
  O  O299  1  0.48718293  0.36921293  0.98688388  1
  O  O300  1  0.49401126  0.86545672  0.48886835  1
  O  O301  1  0.48044428  0.87047991  1.00032007  1
  O  O302  1  1.03900893  0.39418377  0.49646930  1
  O  O303  1  0.98336484  0.36907964  1.00357141  1
  O  O304  1  0.99046226  0.86465560  0.50654136  1
  O  O305  1  0.97708601  0.86821370  0.99168827  1
  O  O306  1  0.48796964  0.51500841  0.37810993  1
  O  O307  1  0.49200913  0.48923132  0.87143038  1
  O  O308  1  0.48249744  0.98501750  0.36903171  1
  O  O309  1  0.49593780  0.99975385  0.86762396  1
  O  O310  1  0.99163722  0.50082140  0.36859498  1
  O  O311  1  0.97957251  0.50731719  0.87860445  1
  O  O312  1  1.03607426  0.98779655  0.38160565  1
  O  O313  1  0.98312615  1.00388978  0.88425596  1
  O  O314  1  0.01041964  0.00661942  0.13211402  1
  O  O315  1  0.01007692  0.00963071  0.63555179  1
  O  O316  1  0.00927671  0.49264699  0.12353124  1
  O  O317  1  -0.01206995  0.51031998  0.62843294  1
  O  O318  1  0.51772005  0.01112281  0.13200039  1
  O  O319  1  0.51513468  0.01036058  0.62146857  1
  O  O320  1  0.50902436  0.51517270  0.13273769  1
  O  O321  1  0.48680709  0.51669519  0.62111347  1
  O  O322  1  0.24438511  0.38442467  0.25570432  1
  O  O323  1  0.25113136  0.38107327  0.74294354  1
  O  O324  1  0.23548722  0.88669275  0.25060334  1
  O  O325  1  0.24471905  0.88236799  0.76780831  1
  O  O326  1  0.73451083  0.36785984  0.23445974  1
  O  O327  1  0.75562065  0.35761979  0.73076350  1
  O  O328  1  0.76051887  0.88185134  0.24637451  1
  O  O329  1  0.73969606  0.87255849  0.74456439  1
  O  O330  1  0.24564759  0.11135098  0.26122017  1
  O  O331  1  0.26108221  0.13625588  0.75622542  1
  O  O332  1  0.25886849  0.61830102  0.25176882  1
  O  O333  1  0.25845175  0.60675670  0.75640718  1
  O  O334  1  0.77009469  0.13083802  0.25850995  1
  O  O335  1  0.76323844  0.13321141  0.76095395  1
  O  O336  1  0.75527437  0.63398096  0.26349979  1
  O  O337  1  0.73816283  0.62196901  0.76483876  1
  O  O338  1  0.36785775  0.11006157  0.38299048  1
  O  O339  1  0.38318500  0.11144569  0.86151566  1
  O  O340  1  0.36150161  0.61815886  0.36964067  1
  O  O341  1  0.37799756  0.61706152  0.86449976  1
  O  O342  1  0.88901783  0.11603111  0.37154805  1
  O  O343  1  0.86757241  0.11594013  0.86910082  1
  O  O344  1  0.86493663  0.61565932  0.36336659  1
  O  O345  1  0.85436486  0.60689875  0.88889862  1
  O  O346  1  0.12513629  0.37754195  0.13494834  1
  O  O347  1  0.14295459  0.36870687  0.64097700  1
  O  O348  1  0.12403790  0.89358370  0.12618254  1
  O  O349  1  0.19824808  0.87579852  0.56872495  1
  O  O350  1  0.62806896  0.38237205  0.12266879  1
  O  O351  1  0.64342631  0.35483644  0.61639595  1
  O  O352  1  0.62011952  0.89061537  0.12351407  1
  O  O353  1  0.62230437  0.86800422  0.63563609  1
  O  O354  1  0.12303489  0.25109054  0.25368177  1
  O  O355  1  0.11932441  0.25479291  0.75363958  1
  O  O356  1  0.12623720  0.76219316  0.22808909  1
  O  O357  1  0.10184832  0.81097203  0.67670886  1
  O  O358  1  0.62553340  0.25618342  0.26015582  1
  O  O359  1  0.61034971  0.25073030  0.76600844  1
  O  O360  1  0.60673854  0.74650675  0.26431208  1
  O  O361  1  0.61326365  0.75537655  0.75319103  1
  O  O362  1  0.39527177  0.25719430  0.26089587  1
  O  O363  1  0.38406741  0.24142901  0.76223203  1
  O  O364  1  0.38129341  0.74116391  0.25802212  1
  O  O365  1  0.38891561  0.74160843  0.74924371  1
  O  O366  1  0.88214475  0.24082505  0.24216407  1
  O  O367  1  0.88413910  0.24066928  0.74003693  1
  O  O368  1  0.87699144  0.73681085  0.25602237  1
  O  O369  1  0.88267616  0.73288019  0.78509010  1
  O  O370  1  0.37053948  0.49547117  0.48775767  1
  O  O371  1  0.37064377  0.49211289  0.99115860  1
  O  O372  1  0.36642662  0.99451233  0.49057152  1
  O  O373  1  0.37649555  0.99058021  0.98401506  1
  O  O374  1  0.86684567  0.50097376  0.47272707  1
  O  O375  1  0.86928063  0.48577757  0.99982466  1
  O  O376  1  0.86854620  0.98546459  0.50886062  1
  O  O377  1  0.85999065  0.98373004  0.98799653  1
  O  O378  1  0.12900277  0.01877358  0.01763556  1
  O  O379  1  0.13631644  0.01564309  0.51112831  1
  O  O380  1  0.12969679  0.48401006  0.01388442  1
  O  O381  1  0.09084392  0.45433207  0.49728794  1
  O  O382  1  0.64051414  0.00229384  0.01427634  1
  O  O383  1  0.59596356  0.00828418  0.47321860  1
  O  O384  1  0.62240363  0.51349070  0.00967048  1
  O  O385  1  0.63386758  0.50151601  0.50990473  1
  O  O386  1  0.38966874  0.38578244  0.11333353  1
  O  O387  1  0.36568655  0.38492181  0.60961817  1
  O  O388  1  0.37027188  0.88060247  0.11488542  1
  O  O389  1  0.37981369  0.86235115  0.62927588  1
  O  O390  1  0.86549116  0.37054782  0.12060017  1
  O  O391  1  0.88046931  0.35865937  0.62690188  1
  O  O392  1  0.87508611  0.87794710  0.11065223  1
  O  O393  1  0.88127817  0.87086530  0.61663566  1
  O  O394  1  0.13597568  0.13182926  0.38061084  1
  O  O395  1  0.11759167  0.12212297  0.89628388  1
  O  O396  1  0.13289004  0.63381494  0.36505180  1
  O  O397  1  0.13371860  0.61354839  0.87456497  1
  O  O398  1  0.63405253  0.13161892  0.36425838  1
  O  O399  1  0.63847001  0.12947366  0.86752215  1
  O  O400  1  0.63451906  0.63778464  0.37602326  1
  O  O401  1  0.62619461  0.62638869  0.88107989  1
