# generated using pymatgen
data_V73Zn73O256
_symmetry_space_group_name_H-M   'P 1'
_cell_length_a   16.85331397
_cell_length_b   16.84454829
_cell_length_c   16.86928963
_cell_angle_alpha   89.96706827
_cell_angle_beta   90.14352862
_cell_angle_gamma   90.02511228
_symmetry_Int_Tables_number   1
_chemical_formula_structural   V73Zn73O256
_chemical_formula_sum   'V73 Zn73 O256'
_cell_volume   4788.94666041
_cell_formula_units_Z   1
loop_
 _symmetry_equiv_pos_site_id
 _symmetry_equiv_pos_as_xyz
  1  'x, y, z'
loop_
 _atom_site_type_symbol
 _atom_site_label
 _atom_site_symmetry_multiplicity
 _atom_site_fract_x
 _atom_site_fract_y
 _atom_site_fract_z
 _atom_site_occupancy
  V  V0  1  0.51564883  0.61464170  0.12043583  1
  V  V1  1  0.37122641  0.63333287  0.24482755  1
  V  V2  1  0.37234724  0.87622669  0.50189871  1
  V  V3  1  0.01030959  0.75647289  0.75191610  1
  V  V4  1  0.87191679  0.61023822  0.24965040  1
  V  V5  1  0.50402088  0.00322879  0.00475272  1
  V  V6  1  0.11570221  0.00428268  0.61646426  1
  V  V7  1  0.00834462  0.49787092  -0.00775288  1
  V  V8  1  0.12358296  0.48108359  0.63283641  1
  V  V9  1  0.50765023  0.00374957  0.51227243  1
  V  V10  1  0.50748386  0.75803309  0.24271391  1
  V  V11  1  0.86837628  0.51025528  0.86963657  1
  V  V12  1  0.37094621  0.49225397  0.37164554  1
  V  V13  1  0.50765431  0.87043664  0.86675625  1
  V  V14  1  -0.01405213  0.25353028  0.76564523  1
  V  V15  1  0.75122829  0.36422778  0.62125954  1
  V  V16  1  0.25637142  0.74952151  0.50794426  1
  V  V17  1  0.00735541  0.12328027  0.11117438  1
  V  V18  1  0.25491444  0.38057004  0.12706471  1
  V  V19  1  0.89165904  -0.01059613  0.37866087  1
  V  V20  1  0.73978876  0.74397107  -0.00412169  1
  V  V21  1  -0.01030323  0.13122890  0.61772128  1
  V  V22  1  0.62449112  0.37458339  0.75024094  1
  V  V23  1  0.38108202  0.12166519  0.73016107  1
  V  V24  1  0.36203193  0.49514890  0.86499067  1
  V  V25  1  0.00012939  0.75705136  0.25469979  1
  V  V26  1  0.37624106  0.00995667  0.87760504  1
  V  V27  1  0.00415611  0.62654454  0.11909337  1
  V  V28  1  0.86261528  0.11638117  0.75479884  1
  V  V29  1  0.50319202  0.12624960  0.13779750  1
  V  V30  1  0.89161205  0.86902504  0.50167923  1
  V  V31  1  0.63717335  0.12086799  0.00150641  1
  V  V32  1  0.24151430  0.64135650  0.88541404  1
  V  V33  1  0.65115345  0.16034302  0.49118807  1
  V  V34  1  0.37292340  0.86488641  0.00505664  1
  V  V35  1  0.24706671  0.87616330  0.62837660  1
  V  V36  1  0.49032000  0.63522861  0.63112260  1
  V  V37  1  0.74315378  -0.00415332  0.25436242  1
  V  V38  1  0.24092308  0.23918700  -0.01137284  1
  V  V39  1  0.54866828  0.43355828  0.93038985  1
  V  V40  1  0.13418173  0.50566091  0.12921673  1
  V  V41  1  0.12405998  0.75420696  0.37570733  1
  V  V42  1  0.88017494  0.36558345  -0.01115198  1
  V  V43  1  0.38283173  0.24902892  0.12984555  1
  V  V44  1  0.13276500  0.37120589  0.25681677  1
  V  V45  1  0.25286295  0.85357924  0.12686579  1
  V  V46  1  0.23898964  0.24571665  0.53632261  1
  V  V47  1  0.49235108  0.49391369  0.50824276  1
  V  V48  1  0.62479312  0.74025716  0.86363587  1
  V  V49  1  0.73184273  0.87701196  0.61051626  1
  V  V50  1  0.87790968  0.76286132  0.11525625  1
  V  V51  1  0.86645282  0.36973782  0.48520287  1
  V  V52  1  0.62434647  0.50548727  0.62980342  1
  V  V53  1  0.50700623  0.87710105  0.36813363  1
  V  V54  1  0.14310023  0.00957693  0.12319084  1
  V  V55  1  0.25008576  0.13728718  0.35460598  1
  V  V56  1  0.12694333  0.36955991  0.77158001  1
  V  V57  1  0.49649041  0.24598915  0.74056698  1
  V  V58  1  -0.03326468  0.88331898  0.88528215  1
  V  V59  1  0.73234806  0.88071276  0.12386870  1
  V  V60  1  0.25461739  0.62539225  0.37775593  1
  V  V61  1  0.87828786  0.12452860  0.26001099  1
  V  V62  1  0.37711934  0.37945986  -0.00541810  1
  V  V63  1  0.74664779  0.39251370  0.13122213  1
  V  V64  1  0.74935740  0.61217956  0.38208386  1
  V  V65  1  0.36068634  0.00192581  0.36247175  1
  V  V66  1  0.87196650  0.24901305  0.12238233  1
  V  V67  1  0.36811326  0.64372069  0.75014548  1
  V  V68  1  0.24176217  0.00117019  0.75502358  1
  V  V69  1  0.36319225  0.36774338  0.53708217  1
  V  V70  1  0.11603399  0.62252795  0.51179677  1
  V  V71  1  0.72996903  -0.00346340  0.74700714  1
  V  V72  1  0.62783271  0.23505534  0.87688562  1
  Zn  Zn73  1  0.57568226  0.26279103  0.36937560  1
  Zn  Zn74  1  0.64126368  0.74257797  0.39028557  1
  Zn  Zn75  1  0.87675023  0.62884485  0.75011938  1
  Zn  Zn76  1  0.11573991  0.13440126  0.48148895  1
  Zn  Zn77  1  -0.01326447  0.50270286  0.49774139  1
  Zn  Zn78  1  0.87182394  0.74539314  0.62462257  1
  Zn  Zn79  1  0.00034151  0.37605095  0.37582738  1
  Zn  Zn80  1  0.13451566  0.88164821  0.25614153  1
  Zn  Zn81  1  0.01306240  0.24491332  0.25813397  1
  Zn  Zn82  1  0.19673334  0.19328844  0.17787255  1
  Zn  Zn83  1  0.17046167  0.17587848  0.72181990  1
  Zn  Zn84  1  0.18785458  0.68572451  0.18933946  1
  Zn  Zn85  1  0.18562307  0.68912361  0.69654563  1
  Zn  Zn86  1  0.69399618  0.18060553  0.18459215  1
  Zn  Zn87  1  0.67835015  0.18017042  0.67716086  1
  Zn  Zn88  1  0.69003013  0.68969981  0.19746863  1
  Zn  Zn89  1  0.69412476  0.69248118  0.68170323  1
  Zn  Zn90  1  0.36763570  0.28305328  0.33895031  1
  Zn  Zn91  1  0.31102696  0.30646405  0.80712928  1
  Zn  Zn92  1  0.31590577  0.81036313  0.31477497  1
  Zn  Zn93  1  0.31445713  0.81973470  0.81777064  1
  Zn  Zn94  1  0.80486455  0.31354588  0.30520500  1
  Zn  Zn95  1  0.81086754  0.30821881  0.80537444  1
  Zn  Zn96  1  0.81174206  0.81132739  0.31260958  1
  Zn  Zn97  1  0.80831898  0.81916992  0.80354844  1
  Zn  Zn98  1  0.19355203  0.43587828  0.44682709  1
  Zn  Zn99  1  0.19089515  0.43748341  0.94010585  1
  Zn  Zn100  1  0.18328326  0.94116154  0.44014338  1
  Zn  Zn101  1  0.19175625  0.95167813  0.94749356  1
  Zn  Zn102  1  0.68582785  0.44243683  0.43712810  1
  Zn  Zn103  1  0.70957992  0.43670797  0.94776143  1
  Zn  Zn104  1  0.69218494  0.94614683  0.43745693  1
  Zn  Zn105  1  0.69734154  0.93432091  0.93628024  1
  Zn  Zn106  1  0.31879074  0.06503334  0.06301524  1
  Zn  Zn107  1  0.30780974  0.05992553  0.55587001  1
  Zn  Zn108  1  0.32227834  0.56629156  0.05496692  1
  Zn  Zn109  1  0.30583872  0.55737317  0.57101500  1
  Zn  Zn110  1  0.82288230  0.05243570  0.06185187  1
  Zn  Zn111  1  0.80630770  0.05843723  0.55838556  1
  Zn  Zn112  1  0.82012456  0.56577915  0.05803386  1
  Zn  Zn113  1  0.81012938  0.55848515  0.56157540  1
  Zn  Zn114  1  0.44246222  0.43899781  0.18976978  1
  Zn  Zn115  1  0.44189485  0.43741035  0.69850435  1
  Zn  Zn116  1  0.43386753  0.94107782  0.18507324  1
  Zn  Zn117  1  0.43567079  0.93149127  0.68765099  1
  Zn  Zn118  1  0.94767725  0.43187999  0.18259397  1
  Zn  Zn119  1  0.94281223  0.44104306  0.68209807  1
  Zn  Zn120  1  0.94515741  0.94515016  0.18779398  1
  Zn  Zn121  1  0.93280540  0.93408493  0.69139695  1
  Zn  Zn122  1  0.06854948  0.06167997  0.30482822  1
  Zn  Zn123  1  0.05203373  0.06178622  0.81336204  1
  Zn  Zn124  1  0.06041052  0.56034424  0.31447449  1
  Zn  Zn125  1  0.06322635  0.56764747  0.80764060  1
  Zn  Zn126  1  0.56247432  0.06375613  0.32615319  1
  Zn  Zn127  1  0.56086449  0.05917602  0.81211688  1
  Zn  Zn128  1  0.54791782  0.57297030  0.32706121  1
  Zn  Zn129  1  0.56035902  0.56888485  0.80757548  1
  Zn  Zn130  1  0.42438645  0.18188333  0.45967364  1
  Zn  Zn131  1  0.44441390  0.19475432  0.93795702  1
  Zn  Zn132  1  0.45602421  0.69345193  0.44570928  1
  Zn  Zn133  1  0.43965850  0.68186059  0.93674910  1
  Zn  Zn134  1  0.93394824  0.20026840  0.43854344  1
  Zn  Zn135  1  0.92662512  0.15815271  0.93916422  1
  Zn  Zn136  1  0.92991423  0.68625162  0.43356155  1
  Zn  Zn137  1  0.94206787  0.69162620  0.93187527  1
  Zn  Zn138  1  0.06129108  0.31040088  0.06655473  1
  Zn  Zn139  1  0.05106823  0.30939694  0.56251280  1
  Zn  Zn140  1  0.05826547  0.83252040  0.06229909  1
  Zn  Zn141  1  0.06297907  0.80998001  0.56894759  1
  Zn  Zn142  1  0.57083801  0.30626815  0.06635344  1
  Zn  Zn143  1  0.56082774  0.31156701  0.56114025  1
  Zn  Zn144  1  0.55899895  0.80879392  0.06154366  1
  Zn  Zn145  1  0.56169814  0.80456209  0.55073375  1
  O  O146  1  0.11815716  0.11805230  0.13679215  1
  O  O147  1  0.11241662  0.11154333  0.63417911  1
  O  O148  1  0.12070046  0.61486622  0.12654082  1
  O  O149  1  0.12388846  0.63234343  0.61238169  1
  O  O150  1  0.61262454  0.13727053  0.11266543  1
  O  O151  1  0.61977030  0.14189320  0.58649944  1
  O  O152  1  0.61415348  0.63411005  0.13161745  1
  O  O153  1  0.60626190  0.61264224  0.63417771  1
  O  O154  1  0.36418843  0.39342723  0.37230532  1
  O  O155  1  0.36776682  0.38611708  0.87762538  1
  O  O156  1  0.37251410  0.88614883  0.38183357  1
  O  O157  1  0.38613382  0.88458798  0.88810094  1
  O  O158  1  0.86318014  0.37329090  0.38237448  1
  O  O159  1  0.87448859  0.37351636  0.88676874  1
  O  O160  1  0.87796454  0.88174763  0.38081531  1
  O  O161  1  0.86566158  0.88523728  0.87991203  1
  O  O162  1  0.25576790  0.00275780  0.37391863  1
  O  O163  1  0.25934538  -0.01091670  0.86232553  1
  O  O164  1  0.26301236  0.51393521  0.38724435  1
  O  O165  1  0.26068951  0.51045601  0.87794627  1
  O  O166  1  0.76506576  -0.00730093  0.35802677  1
  O  O167  1  0.73771285  -0.00609546  0.84910404  1
  O  O168  1  0.75028458  0.50984660  0.37156595  1
  O  O169  1  0.76849306  0.49405676  0.87193138  1
  O  O170  1  0.23987682  0.49816143  0.11153264  1
  O  O171  1  0.22303788  0.50800622  0.63059936  1
  O  O172  1  0.24539219  1.00462119  0.12956420  1
  O  O173  1  0.24279735  0.99578293  0.63232550  1
  O  O174  1  0.75317496  0.49203809  0.11194167  1
  O  O175  1  0.72459291  0.49567253  0.61775333  1
  O  O176  1  0.75928401  0.98545407  0.13041693  1
  O  O177  1  0.74821384  0.98708726  0.62640959  1
  O  O178  1  0.02342818  0.37701946  0.24962660  1
  O  O179  1  -0.00755635  0.35795814  0.75143364  1
  O  O180  1  0.00559795  0.85871731  0.24157828  1
  O  O181  1  -0.01269864  0.86632945  0.76575578  1
  O  O182  1  0.52115435  0.37555737  0.25972066  1
  O  O183  1  0.50885349  0.35816545  0.75011020  1
  O  O184  1  0.49439156  0.87033965  0.25486039  1
  O  O185  1  0.49420242  0.87514560  0.76834584  1
  O  O186  1  0.51132241  0.12317660  0.23613910  1
  O  O187  1  0.49039770  0.13004568  0.75048893  1
  O  O188  1  0.49071084  0.63799993  0.24935472  1
  O  O189  1  0.48320007  0.62133471  0.73993880  1
  O  O190  1  0.98802321  0.12463884  0.24330152  1
  O  O191  1  0.98115967  0.12902880  0.74200670  1
  O  O192  1  0.99725662  0.63394866  0.23858147  1
  O  O193  1  0.99454318  0.64768501  0.76470807  1
  O  O194  1  0.37393861  0.26298889  0.00350417  1
  O  O195  1  0.35929254  0.26087346  0.52171554  1
  O  O196  1  0.38162691  0.76699557  -0.00459990  1
  O  O197  1  0.36449815  0.76006013  0.49272756  1
  O  O198  1  0.88950002  0.25777738  0.01063251  1
  O  O199  1  0.86651541  0.26816318  0.50322961  1
  O  O200  1  0.86803341  0.74855278  0.01320415  1
  O  O201  1  0.87895218  0.76432943  0.49871391  1
  O  O202  1  0.13743292  0.25165752  0.50731174  1
  O  O203  1  0.14312199  0.25866944  1.00803526  1
  O  O204  1  0.13229234  0.74205322  0.49407468  1
  O  O205  1  0.13243100  0.79117730  0.96223102  1
  O  O206  1  0.62907001  0.26685011  0.48210587  1
  O  O207  1  0.61872266  0.23475332  0.98576951  1
  O  O208  1  0.56904313  0.72513970  0.47297100  1
  O  O209  1  0.63559474  0.75137214  0.99757826  1
  O  O210  1  0.49252976  0.24136833  0.11877359  1
  O  O211  1  0.50252049  0.24828011  0.64055973  1
  O  O212  1  0.49813905  0.74642846  0.13908235  1
  O  O213  1  0.49659979  0.73350457  0.62229941  1
  O  O214  1  0.99439339  0.24318278  0.13685330  1
  O  O215  1  1.00147177  0.23297921  0.63643306  1
  O  O216  1  0.99746872  0.74640899  0.12622851  1
  O  O217  1  0.99389681  0.76053851  0.64405667  1
  O  O218  1  -0.00002384  0.26119054  0.36931375  1
  O  O219  1  -0.01508727  0.23350319  0.86405108  1
  O  O220  1  0.00714734  0.74381118  0.36025420  1
  O  O221  1  -0.00849842  0.77006630  0.86879004  1
  O  O222  1  0.46564295  0.25155995  0.38341941  1
  O  O223  1  0.51508073  0.24529689  0.86161206  1
  O  O224  1  0.48146281  0.77066615  0.35743691  1
  O  O225  1  0.51113170  0.76145735  0.88416527  1
  O  O226  1  0.24795570  0.14231280  0.50112599  1
  O  O227  1  0.25421851  0.13953161  1.00624055  1
  O  O228  1  0.24532354  0.63388296  0.49710020  1
  O  O229  1  0.26100103  0.62898990  0.98515128  1
  O  O230  1  0.74876815  0.13100771  0.48902200  1
  O  O231  1  0.73449030  0.11883195  1.01374686  1
  O  O232  1  0.75388413  0.62357751  0.48199277  1
  O  O233  1  0.75352674  0.64534358  1.00670699  1
  O  O234  1  0.26111669  0.37094929  0.00726534  1
  O  O235  1  0.25609761  0.36159428  0.51042837  1
  O  O236  1  0.26634250  0.88195673  0.00963320  1
  O  O237  1  0.25369572  0.86864152  0.50610393  1
  O  O238  1  0.77600839  0.37124515  0.01262056  1
  O  O239  1  0.75204521  0.38112881  0.51154011  1
  O  O240  1  0.74819138  0.86743365  0.01691725  1
  O  O241  1  0.75820854  0.88157299  0.50519972  1
  O  O242  1  0.12776769  0.49653771  0.23381233  1
  O  O243  1  0.10648045  0.48063208  0.74214703  1
  O  O244  1  0.11223722  0.98955468  0.22804617  1
  O  O245  1  0.14111503  0.99472468  0.74109814  1
  O  O246  1  0.57968621  0.42147905  0.29196108  1
  O  O247  1  0.61141714  0.48929967  0.73870380  1
  O  O248  1  0.64434391  1.01108441  0.25868053  1
  O  O249  1  0.62959371  1.01137070  0.73630260  1
  O  O250  1  0.37391604  -0.00096222  0.26361884  1
  O  O251  1  0.37815666  0.00921143  0.75725387  1
  O  O252  1  0.38567731  0.51201843  0.26809495  1
  O  O253  1  0.37292250  0.50107798  0.76330424  1
  O  O254  1  0.87572654  0.00612792  0.25887567  1
  O  O255  1  0.86671292  0.01236135  0.74622075  1
  O  O256  1  0.88921717  0.51254948  0.23969906  1
  O  O257  1  0.89483932  0.50062582  0.77050283  1
  O  O258  1  0.14571776  0.38367726  0.35616427  1
  O  O259  1  0.11865171  0.38113554  0.87094545  1
  O  O260  1  0.13336839  0.85936707  0.37472615  1
  O  O261  1  0.13501467  0.84435575  0.90877852  1
  O  O262  1  0.61209710  0.38241667  0.35936135  1
  O  O263  1  0.61763829  0.37419667  0.87275619  1
  O  O264  1  0.60757328  0.87507714  0.37763602  1
  O  O265  1  0.61068999  0.87136997  0.88234943  1
  O  O266  1  0.38814671  0.13991005  0.12351090  1
  O  O267  1  0.37889905  0.11687470  0.63227350  1
  O  O268  1  0.37920056  0.61394533  0.14390739  1
  O  O269  1  0.37579980  0.62098533  0.64131818  1
  O  O270  1  0.88861277  0.13544235  0.12634836  1
  O  O271  1  0.88753913  0.11533297  0.62280086  1
  O  O272  1  0.88658854  0.63635503  0.13111324  1
  O  O273  1  0.86573077  0.62686771  0.63098415  1
  O  O274  1  0.26813281  0.25990344  0.11305965  1
  O  O275  1  0.23555054  0.23588119  0.63446990  1
  O  O276  1  0.24501624  0.75491233  0.11565043  1
  O  O277  1  0.24157030  0.76061230  0.61632455  1
  O  O278  1  0.76940813  0.24893280  0.12470271  1
  O  O279  1  0.74032103  0.26550521  0.62505449  1
  O  O280  1  0.76100806  0.76257572  0.12390650  1
  O  O281  1  0.75325100  0.77183737  0.62391738  1
  O  O282  1  0.26553313  0.23692079  0.37213826  1
  O  O283  1  0.25505865  0.25049822  0.88924080  1
  O  O284  1  0.24472402  0.74338467  0.38529769  1
  O  O285  1  0.25509830  0.74190716  0.87299358  1
  O  O286  1  0.72124545  0.23738647  0.33438182  1
  O  O287  1  0.72543675  0.25871931  0.86642099  1
  O  O288  1  0.74768959  0.73093724  0.35601998  1
  O  O289  1  0.73682217  0.76084832  0.88789875  1
  O  O290  1  0.01670860  0.14388728  0.01489787  1
  O  O291  1  0.00147630  0.13412157  0.51223492  1
  O  O292  1  -0.00595381  0.61361711  0.00993095  1
  O  O293  1  0.01467898  0.62873276  0.49161610  1
  O  O294  1  0.50649530  0.11602126  0.00532650  1
  O  O295  1  0.48200190  0.10132496  0.50963360  1
  O  O296  1  0.49075429  0.62789920  0.02248259  1
  O  O297  1  0.47319306  0.60343702  0.52245300  1
  O  O298  1  0.47528798  0.38267915  0.51611662  1
  O  O299  1  0.49594226  0.37081033  0.99602563  1
  O  O300  1  0.48829568  0.88004977  0.48513889  1
  O  O301  1  0.49120978  0.88593090  1.00358585  1
  O  O302  1  0.98002630  0.37269045  0.49926740  1
  O  O303  1  0.99079991  0.38820125  1.01001976  1
  O  O304  1  0.99235459  0.87515231  0.50084923  1
  O  O305  1  0.98853436  0.87210805  0.98644686  1
  O  O306  1  0.48203433  0.50852421  0.39820631  1
  O  O307  1  0.48991349  0.49734449  0.87310373  1
  O  O308  1  0.48597513  0.98830452  0.37701071  1
  O  O309  1  0.49617921  0.99000718  0.88450797  1
  O  O310  1  1.01050291  0.48974306  0.38449835  1
  O  O311  1  0.99962635  0.50546047  0.89109119  1
  O  O312  1  0.99104584  1.00025192  0.36962424  1
  O  O313  1  1.00955409  0.97758180  0.86905302  1
  O  O314  1  -0.00133078  0.01894393  0.11824231  1
  O  O315  1  0.01240319  0.00321439  0.63105344  1
  O  O316  1  0.01255172  0.50842123  0.11706410  1
  O  O317  1  0.01609511  0.50001954  0.61414740  1
  O  O318  1  0.49272971  0.01634252  0.11842666  1
  O  O319  1  0.50163077  -0.02010288  0.60995204  1
  O  O320  1  0.50881140  0.51428756  0.13779767  1
  O  O321  1  0.50130964  0.50204667  0.62246832  1
  O  O322  1  0.24714594  0.38066780  0.22973964  1
  O  O323  1  0.22652983  0.36468853  0.75633195  1
  O  O324  1  0.25309373  0.86339841  0.23261658  1
  O  O325  1  0.26528603  0.89015128  0.73889866  1
  O  O326  1  0.75958624  0.38505976  0.23103471  1
  O  O327  1  0.73120460  0.37192371  0.74179067  1
  O  O328  1  0.75605240  0.88448702  0.23702103  1
  O  O329  1  0.74708740  0.88873469  0.73066967  1
  O  O330  1  0.25543320  0.13055986  0.25512513  1
  O  O331  1  0.26982453  0.10745551  0.74511512  1
  O  O332  1  0.26218508  0.63079183  0.26119904  1
  O  O333  1  0.26288883  0.62940267  0.75924916  1
  O  O334  1  0.77107762  0.10556582  0.23287856  1
  O  O335  1  0.75585751  0.11238317  0.72651977  1
  O  O336  1  0.77032943  0.61944560  0.23854542  1
  O  O337  1  0.76517565  0.61553049  0.72285460  1
  O  O338  1  0.35970019  0.10877357  0.38348139  1
  O  O339  1  0.38275600  0.11158947  0.87725119  1
  O  O340  1  0.36941843  0.62387663  0.37115739  1
  O  O341  1  0.37410582  0.61638609  0.86452768  1
  O  O342  1  0.87871597  0.11779560  0.36325864  1
  O  O343  1  0.85206910  0.13234044  0.85257973  1
  O  O344  1  0.86827716  0.62554209  0.35725381  1
  O  O345  1  0.87354956  0.61286561  0.88093673  1
  O  O346  1  0.13414991  0.38848013  0.12846728  1
  O  O347  1  0.12275544  0.37956249  0.62548546  1
  O  O348  1  0.14389362  0.88141489  0.12152492  1
  O  O349  1  0.13658609  0.88968934  0.61721893  1
  O  O350  1  0.64867513  0.36646205  0.11632515  1
  O  O351  1  0.62628931  0.38304128  0.63218946  1
  O  O352  1  0.63310031  0.87482898  0.12790852  1
  O  O353  1  0.63094741  0.87089141  0.60751169  1
  O  O354  1  0.13378109  0.26812605  0.24029496  1
  O  O355  1  0.10239443  0.26445293  0.75199781  1
  O  O356  1  0.11573932  0.74780891  0.25696256  1
  O  O357  1  0.11243541  0.75714705  0.75072141  1
  O  O358  1  0.65861458  0.24207074  0.27955554  1
  O  O359  1  0.61477962  0.24867182  0.75574291  1
  O  O360  1  0.60775837  0.75113588  0.25782261  1
  O  O361  1  0.63204565  0.74944845  0.76458691  1
  O  O362  1  0.37917869  0.26554878  0.22685344  1
  O  O363  1  0.38485593  0.23371670  0.75452075  1
  O  O364  1  0.37995169  0.73780316  0.24870749  1
  O  O365  1  0.37721522  0.74261653  0.75363669  1
  O  O366  1  0.87295015  0.23500325  0.24188003  1
  O  O367  1  0.87831926  0.23958926  0.74264135  1
  O  O368  1  0.89006559  0.74427798  0.23980593  1
  O  O369  1  0.87693472  0.74927058  0.74732120  1
  O  O370  1  0.37059902  0.48263659  0.50295911  1
  O  O371  1  0.37810166  0.48800025  0.98706529  1
  O  O372  1  0.37616086  0.98854492  0.49105688  1
  O  O373  1  0.38478660  0.99597097  0.99511597  1
  O  O374  1  0.87268092  0.48018812  0.50880784  1
  O  O375  1  0.88663453  0.48984961  0.99101083  1
  O  O376  1  0.87382451  0.99390471  0.48208559  1
  O  O377  1  0.89125980  1.05358117  0.97598047  1
  O  O378  1  0.12504614  0.00021011  0.02222944  1
  O  O379  1  0.13005854  0.01243308  0.51309873  1
  O  O380  1  0.11379332  0.49431268  0.00947882  1
  O  O381  1  0.12982808  0.51471588  0.50762849  1
  O  O382  1  0.61741377  0.01117632  -0.00547250  1
  O  O383  1  0.60812885  0.00457476  0.48819980  1
  O  O384  1  0.61190710  0.48850096  -0.01563889  1
  O  O385  1  0.60030570  0.48935263  0.51234271  1
  O  O386  1  0.37640449  0.37468452  0.11512438  1
  O  O387  1  0.36267398  0.37825158  0.63533868  1
  O  O388  1  0.36577011  0.87691268  0.11602965  1
  O  O389  1  0.36199087  0.87979409  0.61239543  1
  O  O390  1  0.87570452  0.36157915  0.12319061  1
  O  O391  1  0.85065667  0.38259832  0.63558861  1
  O  O392  1  0.88200242  0.86329264  0.12796460  1
  O  O393  1  0.87305019  0.88069729  0.60626865  1
  O  O394  1  0.14338759  0.11999936  0.37007941  1
  O  O395  1  0.13891277  0.12921286  0.82449986  1
  O  O396  1  0.13662834  0.63347337  0.38085857  1
  O  O397  1  0.14305864  0.62145862  0.87097870  1
  O  O398  1  0.60326568  0.13885815  0.39848107  1
  O  O399  1  0.62754168  0.12777092  0.88422903  1
  O  O400  1  0.64271181  0.61965362  0.35708016  1
  O  O401  1  0.61659100  0.64009670  0.87530749  1
