# generated using pymatgen
data_V73Zn73O256
_symmetry_space_group_name_H-M   'P 1'
_cell_length_a   16.87169876
_cell_length_b   16.84982966
_cell_length_c   16.85825625
_cell_angle_alpha   89.92039887
_cell_angle_beta   89.91173396
_cell_angle_gamma   89.89002146
_symmetry_Int_Tables_number   1
_chemical_formula_structural   V73Zn73O256
_chemical_formula_sum   'V73 Zn73 O256'
_cell_volume   4792.53447526
_cell_formula_units_Z   1
loop_
 _symmetry_equiv_pos_site_id
 _symmetry_equiv_pos_as_xyz
  1  'x, y, z'
loop_
 _atom_site_type_symbol
 _atom_site_label
 _atom_site_symmetry_multiplicity
 _atom_site_fract_x
 _atom_site_fract_y
 _atom_site_fract_z
 _atom_site_occupancy
  V  V0  1  0.00237128  0.73828533  0.24438560  1
  V  V1  1  0.59923872  0.12678456  0.00921789  1
  V  V2  1  0.85448673  0.25837044  0.61610685  1
  V  V3  1  0.60792576  -0.00333709  0.12614434  1
  V  V4  1  0.12536120  0.25136589  0.87623914  1
  V  V5  1  0.62457637  0.24429551  0.86679023  1
  V  V6  1  0.74540581  -0.00995541  0.23926966  1
  V  V7  1  0.25077912  0.36802433  0.63144373  1
  V  V8  1  0.75756470  0.01213556  0.76429386  1
  V  V9  1  0.12706174  0.50302903  0.13859907  1
  V  V10  1  -0.00564210  0.62910784  0.64267301  1
  V  V11  1  0.12449838  0.63666827  0.48816524  1
  V  V12  1  0.72860540  0.63040918  0.88375054  1
  V  V13  1  0.86881109  0.12583500  0.25116036  1
  V  V14  1  0.00055206  0.50651704  0.00764000  1
  V  V15  1  0.37195914  0.37821130  0.49351531  1
  V  V16  1  0.74653150  0.12866949  0.38927802  1
  V  V17  1  0.25123819  0.37959015  0.13360017  1
  V  V18  1  0.24939847  0.87709927  0.13073721  1
  V  V19  1  0.61678176  0.00098738  0.62395343  1
  V  V20  1  0.60396933  0.12740929  0.50595459  1
  V  V21  1  0.62314377  0.25316203  0.38106192  1
  V  V22  1  0.24952285  0.74796391  -0.01447404  1
  V  V23  1  0.74663385  0.49482472  0.75044946  1
  V  V24  1  0.48309165  0.73860558  0.74547396  1
  V  V25  1  0.39038476  0.87441858  -0.01078660  1
  V  V26  1  0.00990714  0.87288982  0.36698446  1
  V  V27  1  0.49841016  0.24196552  0.23536413  1
  V  V28  1  0.12667477  0.86188145  0.75022019  1
  V  V29  1  0.62710592  0.50315902  0.10075522  1
  V  V30  1  -0.00110548  0.00076673  -0.01639472  1
  V  V31  1  0.74559656  0.51721213  0.25129008  1
  V  V32  1  0.48869967  0.52129472  0.49421173  1
  V  V33  1  0.13979113  0.50400380  0.61865309  1
  V  V34  1  0.25955078  0.87943428  0.62122653  1
  V  V35  1  0.87535430  0.37406090  -0.00391312  1
  V  V36  1  0.50521917  0.61991676  0.11082846  1
  V  V37  1  0.13209233  0.12742962  0.00366698  1
  V  V38  1  0.36744396  0.03016675  0.84962571  1
  V  V39  1  0.75664568  0.87676998  0.62877660  1
  V  V40  1  0.37174137  0.73621700  0.13422309  1
  V  V41  1  0.87570522  0.74473048  0.65533276  1
  V  V42  1  0.11838822  0.13136923  0.50005306  1
  V  V43  1  0.61253233  0.49764794  0.63070213  1
  V  V44  1  0.36182283  0.59749156  0.76359405  1
  V  V45  1  0.00984756  0.25143703  0.73365186  1
  V  V46  1  0.62048018  0.86768294  0.76519230  1
  V  V47  1  0.87206637  0.85438090  0.49847434  1
  V  V48  1  -0.00362895  0.85814410  0.87087042  1
  V  V49  1  0.12438882  0.63118388  -0.00868812  1
  V  V50  1  0.25759042  0.75579308  0.49245957  1
  V  V51  1  -0.01449621  0.50041007  0.50337711  1
  V  V52  1  0.12973674  -0.00596032  0.13637819  1
  V  V53  1  0.26233954  0.24892419  0.00134591  1
  V  V54  1  0.87987973  0.51654386  0.87077463  1
  V  V55  1  0.65969550  0.74380716  0.38068459  1
  V  V56  1  0.74410730  0.76437542  0.00143193  1
  V  V57  1  0.00372843  0.12181323  0.12984725  1
  V  V58  1  0.49732772  0.38429025  0.86797959  1
  V  V59  1  0.25825902  0.11348621  0.38046499  1
  V  V60  1  0.86801042  -0.00041972  0.38344266  1
  V  V61  1  0.37734682  0.39717253  -0.00634577  1
  V  V62  1  0.00158867  0.25932572  0.25187539  1
  V  V63  1  0.87357778  0.75351335  0.12265519  1
  V  V64  1  0.63035405  0.37871216  0.25311366  1
  V  V65  1  0.37614897  0.23826006  0.62184840  1
  V  V66  1  0.75081078  0.23620085  -0.00221950  1
  V  V67  1  -0.00108322  0.37779131  0.37384670  1
  V  V68  1  0.51110468  0.74473161  0.26086686  1
  V  V69  1  0.87224489  0.25064170  0.12446209  1
  V  V70  1  0.86786426  0.50935540  0.36668380  1
  V  V71  1  0.49158955  0.23751842  0.74652642  1
  V  V72  1  0.65917107  0.62428760  0.50367501  1
  Zn  Zn73  1  0.14235183  0.40304328  0.77989446  1
  Zn  Zn74  1  0.49233806  0.38343804  0.37036357  1
  Zn  Zn75  1  0.89425072  0.11975153  0.75071404  1
  Zn  Zn76  1  0.74807656  0.37713765  0.12197800  1
  Zn  Zn77  1  0.13935972  0.25247512  0.36529187  1
  Zn  Zn78  1  -0.00260404  0.00212699  0.50653180  1
  Zn  Zn79  1  0.46586943  0.93759254  0.45603993  1
  Zn  Zn80  1  0.11805041  0.00520370  0.62339855  1
  Zn  Zn81  1  -0.00006688  0.37496046  0.87536241  1
  Zn  Zn82  1  0.20052478  0.19521026  0.19496696  1
  Zn  Zn83  1  0.19493560  0.17766810  0.69039910  1
  Zn  Zn84  1  0.16145914  0.70623389  0.16247319  1
  Zn  Zn85  1  0.19266831  0.69319712  0.67981571  1
  Zn  Zn86  1  0.68216849  0.18695648  0.18942619  1
  Zn  Zn87  1  0.68623417  0.18919165  0.68461880  1
  Zn  Zn88  1  0.68572957  0.69436997  0.17950332  1
  Zn  Zn89  1  0.69231264  0.68043837  0.69258974  1
  Zn  Zn90  1  0.31402227  0.29877789  0.30913430  1
  Zn  Zn91  1  0.31414743  0.30842337  0.81447399  1
  Zn  Zn92  1  0.30551798  0.80678778  0.31066315  1
  Zn  Zn93  1  0.31096116  0.81899089  0.80757326  1
  Zn  Zn94  1  0.80972845  0.31767316  0.42777343  1
  Zn  Zn95  1  0.83287591  0.27441537  0.82593220  1
  Zn  Zn96  1  0.81870984  0.81146481  0.30567397  1
  Zn  Zn97  1  0.80611132  0.82242626  0.82599179  1
  Zn  Zn98  1  0.17844510  0.42995405  0.44421713  1
  Zn  Zn99  1  0.19234826  0.44345278  0.94329122  1
  Zn  Zn100  1  0.19321558  0.94549138  0.43762124  1
  Zn  Zn101  1  0.19122105  0.93551215  0.93111416  1
  Zn  Zn102  1  0.67559240  0.44980978  0.43534021  1
  Zn  Zn103  1  0.69746022  0.42159449  0.91733878  1
  Zn  Zn104  1  0.64920825  0.95301692  0.41276576  1
  Zn  Zn105  1  0.68088310  0.94632286  0.94285354  1
  Zn  Zn106  1  0.30400257  0.04210756  0.02347178  1
  Zn  Zn107  1  0.31271605  0.05272090  0.55477127  1
  Zn  Zn108  1  0.30630909  0.56476367  0.05962151  1
  Zn  Zn109  1  0.31526634  0.57569086  0.56359739  1
  Zn  Zn110  1  0.81592977  0.05481426  0.05805639  1
  Zn  Zn111  1  0.81554795  0.06783389  0.57573008  1
  Zn  Zn112  1  0.81473050  0.57328988  0.06455845  1
  Zn  Zn113  1  0.80772219  0.43602523  0.56617652  1
  Zn  Zn114  1  0.44862952  0.42476802  0.17361271  1
  Zn  Zn115  1  0.43624601  0.43583605  0.68787901  1
  Zn  Zn116  1  0.44153767  0.91937105  0.18098974  1
  Zn  Zn117  1  0.43654408  0.93407945  0.69466774  1
  Zn  Zn118  1  0.93361341  0.44166073  0.18603103  1
  Zn  Zn119  1  0.94433655  0.42746904  0.69544178  1
  Zn  Zn120  1  0.93373529  0.93342062  0.18311173  1
  Zn  Zn121  1  0.94433692  0.93920631  0.69278763  1
  Zn  Zn122  1  0.06305752  0.05906443  0.32182744  1
  Zn  Zn123  1  0.09113812  0.07239371  0.80376059  1
  Zn  Zn124  1  0.06066857  0.56427134  0.31289023  1
  Zn  Zn125  1  0.08941296  0.56112202  0.81502275  1
  Zn  Zn126  1  0.54619055  0.05804187  0.30827466  1
  Zn  Zn127  1  0.55815474  0.05460471  0.81613128  1
  Zn  Zn128  1  0.56102813  0.57576468  0.31472350  1
  Zn  Zn129  1  0.55365826  0.57397357  0.80956692  1
  Zn  Zn130  1  0.43488545  0.19058510  0.43192343  1
  Zn  Zn131  1  0.43361950  0.18458566  0.92862509  1
  Zn  Zn132  1  0.46485465  0.73694518  0.47237164  1
  Zn  Zn133  1  0.43986644  0.68923279  0.92467034  1
  Zn  Zn134  1  0.93610551  0.18863629  0.44074425  1
  Zn  Zn135  1  0.94256169  0.17607950  0.93277162  1
  Zn  Zn136  1  0.94235290  0.68572372  0.43193604  1
  Zn  Zn137  1  0.93413559  0.69070557  0.94742305  1
  Zn  Zn138  1  0.06572628  0.31726832  0.06465949  1
  Zn  Zn139  1  0.07135146  0.31541737  0.54832363  1
  Zn  Zn140  1  0.05491486  0.81780713  0.06025012  1
  Zn  Zn141  1  0.05873608  0.81538138  0.56597000  1
  Zn  Zn142  1  0.56299122  0.31970817  0.05453373  1
  Zn  Zn143  1  0.55887758  0.32115583  0.56158108  1
  Zn  Zn144  1  0.56481844  0.80833428  0.06534038  1
  Zn  Zn145  1  0.57832425  0.80360258  0.57341164  1
  O  O146  1  0.12262731  0.11844385  0.12515230  1
  O  O147  1  0.13557322  0.13099631  0.60253995  1
  O  O148  1  0.13184715  0.60777421  0.11749583  1
  O  O149  1  0.11392000  0.61582016  0.61417026  1
  O  O150  1  0.62606810  0.12040747  0.11327277  1
  O  O151  1  0.62610026  0.11747397  0.61457657  1
  O  O152  1  0.61748524  0.61411781  0.11770866  1
  O  O153  1  0.64076633  0.61224072  0.61289727  1
  O  O154  1  0.36933313  0.36505893  0.38966919  1
  O  O155  1  0.38402211  0.37057052  0.88424472  1
  O  O156  1  0.37981523  0.90290430  0.34042537  1
  O  O157  1  0.36868874  0.87563948  0.88911348  1
  O  O158  1  0.88961955  0.38764413  0.37557658  1
  O  O159  1  0.87583069  0.37135794  0.88804959  1
  O  O160  1  0.86943031  0.88096175  0.38852101  1
  O  O161  1  0.89737185  0.87773785  0.87049133  1
  O  O162  1  0.24513828  0.01518524  0.35898023  1
  O  O163  1  0.27844232  0.00685006  0.91146066  1
  O  O164  1  0.24377369  0.49262326  0.35613843  1
  O  O165  1  0.18020024  0.49475212  0.84474411  1
  O  O166  1  0.74962219  0.01025956  0.36378263  1
  O  O167  1  0.74567552  0.00161960  0.86356994  1
  O  O168  1  0.75843108  0.50157382  0.36246631  1
  O  O169  1  0.76455809  0.51369158  0.88108138  1
  O  O170  1  0.24000458  0.49226965  0.12224361  1
  O  O171  1  0.24203369  0.49484556  0.62134989  1
  O  O172  1  0.24205502  0.98681616  0.11668916  1
  O  O173  1  0.23913178  0.98371714  0.61096247  1
  O  O174  1  0.73922747  0.50391742  0.13152615  1
  O  O175  1  0.75081930  0.49467933  0.64733164  1
  O  O176  1  0.75149460  1.00424312  0.13626366  1
  O  O177  1  0.74725908  0.99331541  0.63601245  1
  O  O178  1  -0.00594172  0.36435350  0.25176872  1
  O  O179  1  0.02047953  0.36541289  0.75821856  1
  O  O180  1  -0.00420303  0.87928368  0.26422527  1
  O  O181  1  0.01066643  0.87382897  0.76212243  1
  O  O182  1  0.51414750  0.37593197  0.25258753  1
  O  O183  1  0.49433089  0.36392539  0.76282214  1
  O  O184  1  0.50588663  0.84334755  0.23777494  1
  O  O185  1  0.51650638  0.86372047  0.74287801  1
  O  O186  1  0.50630711  0.14098411  0.24898894  1
  O  O187  1  0.50353200  0.13899714  0.74794140  1
  O  O188  1  0.50648142  0.63401976  0.22961105  1
  O  O189  1  0.47295813  0.62465627  0.74672027  1
  O  O190  1  0.98993263  0.12766872  0.24472728  1
  O  O191  1  1.01173461  0.14743894  0.75255664  1
  O  O192  1  0.99747589  0.63829000  0.25385191  1
  O  O193  1  1.01319571  0.61816656  0.73923297  1
  O  O194  1  0.36311933  0.25065930  -0.00146535  1
  O  O195  1  0.38744624  0.26589042  0.51473288  1
  O  O196  1  0.36018180  0.74910291  0.00486991  1
  O  O197  1  0.35486580  0.73826664  0.50099127  1
  O  O198  1  0.87290724  0.25310223  0.00891020  1
  O  O199  1  0.87028440  0.25284635  0.50869078  1
  O  O200  1  0.86303189  0.75164020  0.00941525  1
  O  O201  1  0.87265702  0.75446575  0.49788102  1
  O  O202  1  0.12622724  0.24006430  0.48345660  1
  O  O203  1  0.13166856  0.24389533  1.00046810  1
  O  O204  1  0.11412480  0.73833735  0.49778996  1
  O  O205  1  0.13514905  0.73887880  1.02057752  1
  O  O206  1  0.61394604  0.23854104  0.49785715  1
  O  O207  1  0.63087315  0.23827119  0.99919382  1
  O  O208  1  0.64630906  0.73277199  0.49811403  1
  O  O209  1  0.64448340  0.74725375  1.01356442  1
  O  O210  1  0.51395887  0.25790507  0.13638721  1
  O  O211  1  0.49027581  0.25888053  0.63748294  1
  O  O212  1  0.48890745  0.73723320  0.12817413  1
  O  O213  1  0.52971007  0.73634860  0.65152646  1
  O  O214  1  0.99309679  0.24344909  0.13077256  1
  O  O215  1  1.02284603  0.25827780  0.63465160  1
  O  O216  1  0.99331741  0.75441439  0.13267807  1
  O  O217  1  0.98940015  0.73749086  0.62520593  1
  O  O218  1  -0.00889870  0.25665538  0.35967891  1
  O  O219  1  0.01619875  0.25152105  0.87603558  1
  O  O220  1  -0.01016401  0.76417320  0.36058040  1
  O  O221  1  0.00296860  0.75983348  0.88679421  1
  O  O222  1  0.51225468  0.25414212  0.36792919  1
  O  O223  1  0.50290738  0.25303642  0.86219932  1
  O  O224  1  0.48574653  0.73373551  0.35761273  1
  O  O225  1  0.51015332  0.73696932  0.84673977  1
  O  O226  1  0.24225062  0.12330963  0.48394033  1
  O  O227  1  0.24523748  0.14159129  1.01639583  1
  O  O228  1  0.23197627  0.63866372  0.50842872  1
  O  O229  1  0.23752813  0.63539477  0.99876600  1
  O  O230  1  0.74836266  0.12164367  0.49077675  1
  O  O231  1  0.75431781  0.13486902  0.99972836  1
  O  O232  1  0.75304004  0.60654593  0.49697568  1
  O  O233  1  0.75233725  0.63042019  0.98706506  1
  O  O234  1  0.26343421  0.37089707  0.00103184  1
  O  O235  1  0.26435188  0.38149590  0.50726909  1
  O  O236  1  0.25061559  0.85944218  0.00961351  1
  O  O237  1  0.24546330  0.86710219  0.50491587  1
  O  O238  1  0.75920560  0.36115088  0.00104368  1
  O  O239  1  0.74536504  0.38405334  0.49114626  1
  O  O240  1  0.74890158  0.86426482  -0.01453487  1
  O  O241  1  0.76911414  0.87948456  0.51919067  1
  O  O242  1  0.12076003  0.50181319  0.23812559  1
  O  O243  1  0.10418190  0.49404205  0.71313058  1
  O  O244  1  0.12365474  1.00514270  0.23481668  1
  O  O245  1  0.12023305  0.98653441  0.73788270  1
  O  O246  1  0.63531801  0.49923254  0.25552381  1
  O  O247  1  0.62790429  0.51117122  0.73682342  1
  O  O248  1  0.63870630  1.01258764  0.23582006  1
  O  O249  1  0.63177675  0.99527276  0.74171433  1
  O  O250  1  0.38591055  -0.04327640  0.28512614  1
  O  O251  1  0.36267177  -0.00024892  0.75277649  1
  O  O252  1  0.36464057  0.49456920  0.24595208  1
  O  O253  1  0.37049432  0.49681140  0.75890177  1
  O  O254  1  0.86493324  0.00823319  0.25687568  1
  O  O255  1  0.86324968  0.00523454  0.74700571  1
  O  O256  1  0.85992014  0.49642989  0.25574792  1
  O  O257  1  0.86826161  0.49140471  0.76754713  1
  O  O258  1  0.10884717  0.36954404  0.37622973  1
  O  O259  1  0.12218973  0.35769969  0.89294761  1
  O  O260  1  0.10696606  0.88311466  0.38146439  1
  O  O261  1  0.12213423  0.88090670  0.85921664  1
  O  O262  1  0.62116526  0.36962467  0.36948516  1
  O  O263  1  0.60509759  0.35391774  0.89085005  1
  O  O264  1  0.64513549  0.84284578  0.38815180  1
  O  O265  1  0.62106519  0.88776429  0.86325981  1
  O  O266  1  0.36137717  0.10907194  0.13541837  1
  O  O267  1  0.36748391  0.14034167  0.61401919  1
  O  O268  1  0.38129505  0.63029112  0.12099180  1
  O  O269  1  0.35458197  0.62951209  0.65361280  1
  O  O270  1  0.88430973  0.12900790  0.13082731  1
  O  O271  1  0.87073649  0.15140555  0.63295858  1
  O  O272  1  0.87684951  0.64586485  0.12302251  1
  O  O273  1  0.88604480  0.63719340  0.63979351  1
  O  O274  1  0.24371530  0.26848121  0.11202852  1
  O  O275  1  0.26158862  0.25871708  0.62884401  1
  O  O276  1  0.25978998  0.75235193  0.12244136  1
  O  O277  1  0.23667695  0.76804754  0.60640643  1
  O  O278  1  0.75902510  0.24883357  0.11834401  1
  O  O279  1  0.75578465  0.26437907  0.63311881  1
  O  O280  1  0.75876842  0.75400429  0.11623653  1
  O  O281  1  0.76822332  0.75921520  0.63909461  1
  O  O282  1  0.23912154  0.21065951  0.31121958  1
  O  O283  1  0.24072462  0.25616105  0.89168413  1
  O  O284  1  0.24441521  0.76008866  0.38978737  1
  O  O285  1  0.24615328  0.75699706  0.88795185  1
  O  O286  1  0.73536853  0.24147572  0.37526403  1
  O  O287  1  0.72911611  0.25634624  0.88158543  1
  O  O288  1  0.75765879  0.73432834  0.36600325  1
  O  O289  1  0.75269849  0.73815998  0.88599594  1
  O  O290  1  0.00996102  0.12180571  0.01372718  1
  O  O291  1  0.01267313  0.12491601  0.49154909  1
  O  O292  1  0.00885943  0.61659998  0.00309537  1
  O  O293  1  0.00535876  0.61507601  0.50319454  1
  O  O294  1  0.50059627  0.13538557  0.00984953  1
  O  O295  1  0.50572217  0.12216951  0.49963829  1
  O  O296  1  0.49505601  0.63228777  0.01206572  1
  O  O297  1  0.48295598  0.62092451  0.50062536  1
  O  O298  1  0.48575482  0.38985695  0.49781041  1
  O  O299  1  0.48297551  0.37385898  0.99152137  1
  O  O300  1  0.50176086  0.84028168  0.49975141  1
  O  O301  1  0.48693583  0.84694741  0.99336888  1
  O  O302  1  1.00429613  0.39428407  0.49343087  1
  O  O303  1  0.99084583  0.38474894  1.00215912  1
  O  O304  1  0.98310304  0.87385072  0.49018873  1
  O  O305  1  1.01665440  0.89311012  0.98138214  1
  O  O306  1  0.50072406  0.50518070  0.39003843  1
  O  O307  1  0.51136554  0.48209519  0.86881148  1
  O  O308  1  0.54140719  0.97847921  0.38165518  1
  O  O309  1  0.46768956  1.01451067  0.87363182  1
  O  O310  1  0.99057153  0.49666101  0.37937230  1
  O  O311  1  0.98906717  0.49821922  0.88496471  1
  O  O312  1  0.98305119  0.99029460  0.37557435  1
  O  O313  1  1.01142584  1.01895550  0.88543365  1
  O  O314  1  0.01233451  0.00519198  0.11980870  1
  O  O315  1  -0.00112014  0.00385269  0.62031575  1
  O  O316  1  0.01299898  0.49189465  0.11802850  1
  O  O317  1  -0.01151238  0.51016988  0.61203453  1
  O  O318  1  0.50912293  0.00335088  0.14399347  1
  O  O319  1  0.51826035  -0.00730939  0.63072523  1
  O  O320  1  0.51327671  0.50934315  0.12150701  1
  O  O321  1  0.50693691  0.50137551  0.61747569  1
  O  O322  1  0.25732372  0.37046968  0.23226537  1
  O  O323  1  0.24786680  0.37023380  0.73556463  1
  O  O324  1  0.25162991  0.86994703  0.22978964  1
  O  O325  1  0.23799845  0.87062481  0.73420521  1
  O  O326  1  0.73456259  0.38680770  0.24169505  1
  O  O327  1  0.73476023  0.40164777  0.78418879  1
  O  O328  1  0.75166599  0.89192617  0.25366915  1
  O  O329  1  0.74615763  0.88918925  0.74716797  1
  O  O330  1  0.31378873  0.11711920  0.19230031  1
  O  O331  1  0.20309151  0.09153441  0.76262828  1
  O  O332  1  0.28072681  0.55433964  0.37576405  1
  O  O333  1  0.25759041  0.62291184  0.73955874  1
  O  O334  1  0.75845219  0.12397717  0.25703808  1
  O  O335  1  0.74269542  0.11241587  0.74781389  1
  O  O336  1  0.74483843  0.61517358  0.24418683  1
  O  O337  1  0.74540862  0.61157262  0.77253367  1
  O  O338  1  0.35936685  0.13114612  0.37441076  1
  O  O339  1  0.36265927  0.13328208  0.85715459  1
  O  O340  1  0.38049920  0.55697086  0.28281140  1
  O  O341  1  0.36551951  0.62792392  0.86201667  1
  O  O342  1  0.86685810  0.12016922  0.36935766  1
  O  O343  1  0.86627807  0.16604821  0.85407622  1
  O  O344  1  0.88047768  0.60759377  0.37309914  1
  O  O345  1  0.88094085  0.61627074  0.87342703  1
  O  O346  1  0.13940328  0.38961079  0.11637442  1
  O  O347  1  0.14452861  0.38538650  0.60826894  1
  O  O348  1  0.13405380  0.88544419  0.12020713  1
  O  O349  1  0.12134607  0.87812469  0.63595848  1
  O  O350  1  0.62329408  0.39317556  0.12904202  1
  O  O351  1  0.62563410  0.39811684  0.61654989  1
  O  O352  1  0.62100938  0.89772507  0.11347495  1
  O  O353  1  0.64029558  0.88690751  0.62994913  1
  O  O354  1  0.10171282  0.24402311  0.24217129  1
  O  O355  1  0.12940052  0.25102450  0.76820946  1
  O  O356  1  0.10477223  0.75546262  0.24385401  1
  O  O357  1  0.12480262  0.76082666  0.74564373  1
  O  O358  1  0.62132004  0.25930646  0.25867400  1
  O  O359  1  0.61586744  0.24598730  0.76182058  1
  O  O360  1  0.62151031  0.73481294  0.26977096  1
  O  O361  1  0.64609059  0.76979757  0.75432993  1
  O  O362  1  0.40046225  0.26347675  0.24627235  1
  O  O363  1  0.38223872  0.25001089  0.73776854  1
  O  O364  1  0.37522178  0.74476848  0.23681999  1
  O  O365  1  0.38445762  0.76152894  0.74244104  1
  O  O366  1  0.88434879  0.23937632  0.23748418  1
  O  O367  1  0.89958441  0.26507893  0.72938991  1
  O  O368  1  0.88631619  0.75555169  0.23611595  1
  O  O369  1  0.87850722  0.75591909  0.75255000  1
  O  O370  1  0.38110453  0.49471642  0.50675349  1
  O  O371  1  0.36916484  0.49624366  0.98889351  1
  O  O372  1  0.37967839  0.99867647  0.48493043  1
  O  O373  1  0.39314260  0.97199026  1.02129375  1
  O  O374  1  0.88276754  0.50067725  0.48782090  1
  O  O375  1  0.88036126  0.49500080  0.99420637  1
  O  O376  1  0.87112983  1.00222870  0.48970818  1
  O  O377  1  0.89945617  1.00888182  0.99905012  1
  O  O378  1  0.12209274  0.01236069  0.00952767  1
  O  O379  1  0.11951141  0.01509381  0.49653205  1
  O  O380  1  0.11742347  0.51356664  0.00459286  1
  O  O381  1  0.11506388  0.50887446  0.50674068  1
  O  O382  1  0.62079908  0.01841302  0.01031415  1
  O  O383  1  0.63086036  0.01277083  0.51525848  1
  O  O384  1  0.63575899  0.49053111  0.00428768  1
  O  O385  1  0.60959178  0.51650384  0.50687040  1
  O  O386  1  0.36383076  0.38705888  0.10732827  1
  O  O387  1  0.36289880  0.37212855  0.61825763  1
  O  O388  1  0.36526441  0.85698289  0.11627805  1
  O  O389  1  0.35941218  0.88006470  0.62637467  1
  O  O390  1  0.87287192  0.36691065  0.11621546  1
  O  O391  1  0.88193833  0.36633988  0.62089389  1
  O  O392  1  0.87942390  0.86150373  0.11845027  1
  O  O393  1  0.87912831  0.85954865  0.61943114  1
  O  O394  1  0.13256601  0.12757569  0.37956818  1
  O  O395  1  0.12540293  0.13891346  0.89617110  1
  O  O396  1  0.12353600  0.61939215  0.38938497  1
  O  O397  1  0.11691238  0.64138358  0.89330293  1
  O  O398  1  0.62822507  0.13179081  0.39110502  1
  O  O399  1  0.61221525  0.13712876  0.89151631  1
  O  O400  1  0.62546531  0.63259417  0.39469156  1
  O  O401  1  0.62989992  0.61896203  0.88296448  1
