# generated using pymatgen
data_V73Zn73O256
_symmetry_space_group_name_H-M   'P 1'
_cell_length_a   16.81691728
_cell_length_b   16.83208958
_cell_length_c   16.82080412
_cell_angle_alpha   89.99874986
_cell_angle_beta   90.01558608
_cell_angle_gamma   89.96444546
_symmetry_Int_Tables_number   1
_chemical_formula_structural   V73Zn73O256
_chemical_formula_sum   'V73 Zn73 O256'
_cell_volume   4761.36061867
_cell_formula_units_Z   1
loop_
 _symmetry_equiv_pos_site_id
 _symmetry_equiv_pos_as_xyz
  1  'x, y, z'
loop_
 _atom_site_type_symbol
 _atom_site_label
 _atom_site_symmetry_multiplicity
 _atom_site_fract_x
 _atom_site_fract_y
 _atom_site_fract_z
 _atom_site_occupancy
  V  V0  1  0.37954922  0.62200514  0.24640684  1
  V  V1  1  -0.00481345  0.73594740  0.73923983  1
  V  V2  1  0.12204939  0.73824931  0.88474997  1
  V  V3  1  0.36188406  0.74524045  0.12016267  1
  V  V4  1  0.11237795  0.87619421  0.75079331  1
  V  V5  1  0.23806033  0.49707432  0.25064109  1
  V  V6  1  0.36863651  -0.00255329  0.87324065  1
  V  V7  1  0.62810445  0.36995616  0.74616615  1
  V  V8  1  0.63587121  0.62519858  0.01178282  1
  V  V9  1  0.64014225  0.24719613  0.37379427  1
  V  V10  1  -0.01735519  0.24851225  0.74084356  1
  V  V11  1  0.50170648  0.75127055  0.24139723  1
  V  V12  1  0.89746086  0.24337269  0.14376717  1
  V  V13  1  0.87390241  0.75982305  0.13317883  1
  V  V14  1  0.86996493  0.00713901  0.37313420  1
  V  V15  1  0.24638117  0.00172563  0.74454356  1
  V  V16  1  0.62258827  0.24314884  0.87788182  1
  V  V17  1  0.75102108  0.62630822  0.37593144  1
  V  V18  1  -0.01037956  0.38521477  0.88005015  1
  V  V19  1  0.37234097  0.49297641  0.37469762  1
  V  V20  1  0.02671537  0.02194794  -0.00118963  1
  V  V21  1  0.13422365  0.37059706  0.74100849  1
  V  V22  1  0.86749166  0.87370437  0.51167661  1
  V  V23  1  0.24418889  0.63513245  0.38012143  1
  V  V24  1  0.48704531  -0.00342051  0.49665958  1
  V  V25  1  0.74976883  0.75347243  0.51420659  1
  V  V26  1  0.12703044  0.49970418  0.61959036  1
  V  V27  1  0.86646898  0.62713847  0.74812789  1
  V  V28  1  0.64301095  0.88727498  0.74173538  1
  V  V29  1  0.00260397  0.12285825  0.62391991  1
  V  V30  1  0.25500299  0.11004714  0.38023499  1
  V  V31  1  0.50300443  0.24440896  0.24751412  1
  V  V32  1  0.00435331  0.86195960  0.36221666  1
  V  V33  1  0.37472507  0.11361477  0.25289430  1
  V  V34  1  0.75646090  0.01174878  0.24814956  1
  V  V35  1  0.38104003  0.24701116  0.12162523  1
  V  V36  1  0.37194223  0.36397655  0.51450593  1
  V  V37  1  0.63300112  0.49705415  0.62402626  1
  V  V38  1  0.50183353  0.00601140  0.00934734  1
  V  V39  1  0.00840956  0.37093393  0.36215343  1
  V  V40  1  0.75172727  0.76440079  0.00083027  1
  V  V41  1  0.12926965  0.24265123  0.36802882  1
  V  V42  1  0.62731977  0.11954899  0.51209648  1
  V  V43  1  0.24492152  0.24686609  -0.00247110  1
  V  V44  1  0.37398967  0.38064681  -0.00534241  1
  V  V45  1  0.62659854  0.74485545  0.87090092  1
  V  V46  1  0.11821081  0.50686756  0.10627120  1
  V  V47  1  0.75100626  0.50334638  0.76740766  1
  V  V48  1  0.11912930  0.24554131  0.87894222  1
  V  V49  1  0.16736354  0.87974837  0.21372461  1
  V  V50  1  0.01700357  0.00310931  0.49941058  1
  V  V51  1  0.36916529  0.86702840  0.00671017  1
  V  V52  1  0.87720409  0.49776520  0.37435069  1
  V  V53  1  0.75278520  0.25930942  0.51820007  1
  V  V54  1  0.25952795  0.51022079  0.75850963  1
  V  V55  1  0.26256892  0.85726555  0.63169304  1
  V  V56  1  0.62380480  0.00342817  0.13010061  1
  V  V57  1  0.49518732  0.38334025  0.86734733  1
  V  V58  1  0.12234044  0.64169300  0.50236656  1
  V  V59  1  0.49695073  0.51308205  0.00885694  1
  V  V60  1  -0.00070889  0.63307015  0.11488723  1
  V  V61  1  0.48528854  0.63329410  0.63833739  1
  V  V62  1  0.24016830  0.37556057  0.12750742  1
  V  V63  1  0.36988785  0.85479917  0.49247575  1
  V  V64  1  0.61672807  0.75492185  0.37610239  1
  V  V65  1  0.62246467  0.62644835  0.50227897  1
  V  V66  1  0.62987188  0.87492403  0.24867955  1
  V  V67  1  0.88580827  0.88293997  -0.01088911  1
  V  V68  1  0.50462374  0.87436423  0.86740255  1
  V  V69  1  0.74857897  0.50098259  0.23812386  1
  V  V70  1  0.87575625  0.37379728  0.51176173  1
  V  V71  1  0.62897075  0.38018136  0.23774726  1
  V  V72  1  0.49787878  0.49831242  0.50067685  1
  Zn  Zn73  1  0.50285688  0.37217044  0.37490666  1
  Zn  Zn74  1  0.87524584  0.01067405  0.87304887  1
  Zn  Zn75  1  0.88896693  0.63850549  0.25776900  1
  Zn  Zn76  1  0.76301059  0.12952713  0.88182204  1
  Zn  Zn77  1  -0.00224275  0.50359210  0.50797414  1
  Zn  Zn78  1  0.24203154  0.24878228  0.50700907  1
  Zn  Zn79  1  0.62253845  0.13575930  0.01610371  1
  Zn  Zn80  1  0.24871466  0.12383807  0.87568414  1
  Zn  Zn81  1  0.85585563  0.36792646  0.01341187  1
  Zn  Zn82  1  0.19124752  0.18973162  0.19523935  1
  Zn  Zn83  1  0.17785296  0.17690215  0.68945814  1
  Zn  Zn84  1  0.17723320  0.69121081  0.19282128  1
  Zn  Zn85  1  0.18559964  0.68671155  0.69205512  1
  Zn  Zn86  1  0.69944519  0.18929371  0.18523879  1
  Zn  Zn87  1  0.69112808  0.18711766  0.68837855  1
  Zn  Zn88  1  0.69083620  0.68871281  0.18601613  1
  Zn  Zn89  1  0.67889366  0.68591552  0.69085086  1
  Zn  Zn90  1  0.31171587  0.30828104  0.31072730  1
  Zn  Zn91  1  0.31232773  0.31018904  0.80152221  1
  Zn  Zn92  1  0.31021168  0.81595000  0.30701634  1
  Zn  Zn93  1  0.31036311  0.80141060  0.81531415  1
  Zn  Zn94  1  0.81770007  0.31671900  0.30668979  1
  Zn  Zn95  1  0.80756802  0.31203091  0.81645498  1
  Zn  Zn96  1  0.81343292  0.82153437  0.32056379  1
  Zn  Zn97  1  0.81460105  0.81054055  0.81153331  1
  Zn  Zn98  1  0.19086807  0.43060828  0.43946291  1
  Zn  Zn99  1  0.18113464  0.43293612  0.93116347  1
  Zn  Zn100  1  0.19228610  0.92138347  0.43723449  1
  Zn  Zn101  1  0.18256374  0.91995922  0.93603802  1
  Zn  Zn102  1  0.68781162  0.43443927  0.43266591  1
  Zn  Zn103  1  0.68355049  0.44066172  0.94277852  1
  Zn  Zn104  1  0.68454886  0.93901448  0.43537729  1
  Zn  Zn105  1  0.69081665  0.94931439  0.93455373  1
  Zn  Zn106  1  0.31567113  0.06506430  0.06031043  1
  Zn  Zn107  1  0.30923140  0.06647717  0.56540836  1
  Zn  Zn108  1  0.31463022  0.55839679  0.06696723  1
  Zn  Zn109  1  0.30506639  0.55833897  0.56760697  1
  Zn  Zn110  1  0.80811777  0.06719842  0.06154065  1
  Zn  Zn111  1  0.82973119  0.08592581  0.53840386  1
  Zn  Zn112  1  0.82187513  0.56565770  0.05651376  1
  Zn  Zn113  1  0.81543929  0.56386394  0.56585823  1
  Zn  Zn114  1  0.43806531  0.43371637  0.18512921  1
  Zn  Zn115  1  0.43777337  0.44368782  0.68529241  1
  Zn  Zn116  1  0.43901186  0.92835631  0.19152224  1
  Zn  Zn117  1  0.44761136  0.95218976  0.67637419  1
  Zn  Zn118  1  0.93740483  0.43923925  0.18159430  1
  Zn  Zn119  1  0.94168248  0.44269005  0.69603776  1
  Zn  Zn120  1  0.97368700  0.98596502  0.19888400  1
  Zn  Zn121  1  0.93285433  0.94462392  0.68128313  1
  Zn  Zn122  1  0.07734554  0.04867067  0.31606421  1
  Zn  Zn123  1  0.05593824  0.06072756  0.81604618  1
  Zn  Zn124  1  0.05886693  0.56905828  0.31154754  1
  Zn  Zn125  1  0.06443261  0.56127687  0.80936230  1
  Zn  Zn126  1  0.56305954  0.06214156  0.32175481  1
  Zn  Zn127  1  0.54905944  0.06171480  0.79257762  1
  Zn  Zn128  1  0.56236133  0.56241646  0.31204857  1
  Zn  Zn129  1  0.56183611  0.56151836  0.81662259  1
  Zn  Zn130  1  0.44619663  0.18252045  0.43564573  1
  Zn  Zn131  1  0.42266153  0.20274291  0.89669663  1
  Zn  Zn132  1  0.43511197  0.68349249  0.43592971  1
  Zn  Zn133  1  0.42849730  0.68840477  0.91808911  1
  Zn  Zn134  1  0.94153870  0.19044069  0.43315348  1
  Zn  Zn135  1  0.93764099  0.18588261  0.95184438  1
  Zn  Zn136  1  0.93872308  0.69082640  0.44655997  1
  Zn  Zn137  1  0.94200266  0.68617695  0.92530822  1
  Zn  Zn138  1  0.05091134  0.31112051  0.06300794  1
  Zn  Zn139  1  0.06028561  0.30997036  0.55595728  1
  Zn  Zn140  1  0.06193739  0.82187438  0.06570790  1
  Zn  Zn141  1  0.06378292  0.82495987  0.56892539  1
  Zn  Zn142  1  0.56313000  0.31737011  0.05635565  1
  Zn  Zn143  1  0.55455025  0.30704370  0.56679032  1
  Zn  Zn144  1  0.55995994  0.81649994  0.06224411  1
  Zn  Zn145  1  0.55072154  0.82008800  0.56907811  1
  O  O146  1  0.15985858  0.08946451  0.13212040  1
  O  O147  1  0.10652320  0.13655614  0.61210245  1
  O  O148  1  0.11606473  0.61803765  0.12403347  1
  O  O149  1  0.13285802  0.61430224  0.60985469  1
  O  O150  1  0.62377850  0.11020554  0.13246049  1
  O  O151  1  0.62271132  0.13716727  0.61217697  1
  O  O152  1  0.62146680  0.63277957  0.11098901  1
  O  O153  1  0.61754740  0.61749480  0.61492615  1
  O  O154  1  0.37776027  0.38503490  0.37510895  1
  O  O155  1  0.38699914  0.37282307  0.88088383  1
  O  O156  1  0.35441845  0.87498298  0.39418376  1
  O  O157  1  0.38586762  0.87789722  0.88757538  1
  O  O158  1  0.88315658  0.38378462  0.37923517  1
  O  O159  1  0.88765333  0.36372702  0.87803870  1
  O  O160  1  0.88398617  0.88514634  0.38603531  1
  O  O161  1  0.86527098  0.88174214  0.88573917  1
  O  O162  1  0.24609259  0.01125029  0.38277355  1
  O  O163  1  0.26007013  -0.00855283  0.87400398  1
  O  O164  1  0.25608809  0.50093737  0.36780306  1
  O  O165  1  0.24472383  0.49072573  0.85864507  1
  O  O166  1  0.76159293  -0.00744199  0.36406406  1
  O  O167  1  0.75541355  0.01281052  0.87006915  1
  O  O168  1  0.75682451  0.51006205  0.37348061  1
  O  O169  1  0.73869519  0.50763641  0.86508947  1
  O  O170  1  0.23972762  0.49692396  0.13016318  1
  O  O171  1  0.23541960  0.49606891  0.63643224  1
  O  O172  1  0.21445082  1.03600116  0.12668648  1
  O  O173  1  0.25548546  0.99774660  0.64218299  1
  O  O174  1  0.75070177  0.51183457  0.14109441  1
  O  O175  1  0.73538715  0.50121257  0.62535580  1
  O  O176  1  0.74166682  0.99933694  0.14133419  1
  O  O177  1  0.79537258  1.04955934  0.70563201  1
  O  O178  1  -0.00139648  0.38367044  0.26419836  1
  O  O179  1  0.00617368  0.36053261  0.75302005  1
  O  O180  1  -0.00778678  0.88537395  0.26403066  1
  O  O181  1  0.00960761  0.88154424  0.74031674  1
  O  O182  1  0.51252813  0.36866997  0.24984695  1
  O  O183  1  0.51065472  0.38944545  0.76110782  1
  O  O184  1  0.51022232  0.86188288  0.25413124  1
  O  O185  1  0.50031013  0.87992136  0.76597186  1
  O  O186  1  0.49110279  0.13474227  0.25734589  1
  O  O187  1  0.46924444  0.06058416  0.71428338  1
  O  O188  1  0.48615508  0.62924114  0.25570649  1
  O  O189  1  0.50274636  0.61633118  0.73725200  1
  O  O190  1  1.00301742  0.08844730  0.24221994  1
  O  O191  1  1.00510985  0.13550988  0.73723482  1
  O  O192  1  0.99863352  0.62069803  0.23120528  1
  O  O193  1  0.99446952  0.63165868  0.74047228  1
  O  O194  1  0.36876612  0.26022563  0.00245807  1
  O  O195  1  0.38539434  0.26485552  0.48986612  1
  O  O196  1  0.38382002  0.75445654  0.01148142  1
  O  O197  1  0.37173153  0.75436415  0.49804404  1
  O  O198  1  0.89626253  0.26205741  0.02170413  1
  O  O199  1  0.86416623  0.26287607  0.49401030  1
  O  O200  1  0.86176411  0.75513324  -0.00448693  1
  O  O201  1  0.86522757  0.76329547  0.49962235  1
  O  O202  1  0.12790410  0.25796842  0.48155894  1
  O  O203  1  0.12913061  0.25909035  0.98675682  1
  O  O204  1  0.12337648  0.74004074  0.50924097  1
  O  O205  1  0.10652999  0.75360950  0.98385132  1
  O  O206  1  0.63681960  0.25695072  0.49013916  1
  O  O207  1  0.62106113  0.24825920  0.98472332  1
  O  O208  1  0.62718126  0.74348147  0.49419807  1
  O  O209  1  0.63439555  0.74575458  0.99913882  1
  O  O210  1  0.49149205  0.25620153  0.13060084  1
  O  O211  1  0.50389419  0.22894659  0.62612480  1
  O  O212  1  0.49711312  0.74791674  0.13679270  1
  O  O213  1  0.50180974  0.73169205  0.62280546  1
  O  O214  1  1.00139881  0.24501650  0.13781127  1
  O  O215  1  1.00044122  0.24813924  0.63575603  1
  O  O216  1  0.98779173  0.74235874  0.12138431  1
  O  O217  1  0.99997191  0.75882838  0.63976042  1
  O  O218  1  0.01043440  0.26144649  0.37533322  1
  O  O219  1  0.00998251  0.25428991  0.86286799  1
  O  O220  1  -0.01573444  0.76148547  0.36974828  1
  O  O221  1  0.00474892  0.75209651  0.85184617  1
  O  O222  1  0.51174138  0.25250622  0.36233760  1
  O  O223  1  0.51101018  0.27380286  0.87890853  1
  O  O224  1  0.51069456  0.73809969  0.36425188  1
  O  O225  1  0.51771962  0.76714924  0.88873153  1
  O  O226  1  0.26285306  0.13336363  0.48324260  1
  O  O227  1  0.25544713  0.14308003  0.99675163  1
  O  O228  1  0.24127030  0.61907546  0.48754373  1
  O  O229  1  0.25697306  0.62626942  0.98187725  1
  O  O230  1  0.74317772  0.15122934  0.50281777  1
  O  O231  1  0.72715430  0.10052629  0.98830241  1
  O  O232  1  0.74203129  0.63020908  0.49477365  1
  O  O233  1  0.73801557  0.63091024  1.00040736  1
  O  O234  1  0.25544711  0.36990113  0.00600727  1
  O  O235  1  0.26683081  0.36908418  0.50161001  1
  O  O236  1  0.27060825  0.87343913  -0.00400111  1
  O  O237  1  0.25909777  0.87775449  0.52128160  1
  O  O238  1  0.74220818  0.37606735  0.00878226  1
  O  O239  1  0.76207656  0.37009518  0.49556117  1
  O  O240  1  0.75063083  0.86634366  0.00330834  1
  O  O241  1  0.75750509  0.86606807  0.49352308  1
  O  O242  1  0.13606234  0.50500471  0.24427227  1
  O  O243  1  0.12939556  0.48649291  0.74068707  1
  O  O244  1  0.13124894  0.96567240  0.25898833  1
  O  O245  1  0.13611278  0.98699657  0.75966246  1
  O  O246  1  0.63265581  0.49036109  0.25493182  1
  O  O247  1  0.63401888  0.49727967  0.74373414  1
  O  O248  1  0.63023612  0.99441762  0.25007263  1
  O  O249  1  0.62864527  0.98721810  0.75369433  1
  O  O250  1  0.38464985  0.01543745  0.24233545  1
  O  O251  1  0.36126356  -0.01030362  0.76794561  1
  O  O252  1  0.36864516  0.50486142  0.25399940  1
  O  O253  1  0.35935818  0.49396403  0.74679180  1
  O  O254  1  0.86459009  -0.00374089  0.25898357  1
  O  O255  1  0.86212787  0.01758520  0.74293788  1
  O  O256  1  0.86100774  0.50018828  0.25857711  1
  O  O257  1  0.85560111  0.50081015  0.74862687  1
  O  O258  1  0.11342337  0.37370264  0.37459633  1
  O  O259  1  0.11459437  0.36681590  0.85963774  1
  O  O260  1  0.10393835  0.86792895  0.38965375  1
  O  O261  1  0.12174004  0.86447896  0.85544015  1
  O  O262  1  0.62334125  0.36523598  0.36499320  1
  O  O263  1  0.61749533  0.37020283  0.86461957  1
  O  O264  1  0.62870871  0.85994272  0.37083056  1
  O  O265  1  0.61807253  0.87337425  0.87005174  1
  O  O266  1  0.36732692  0.13849840  0.13677115  1
  O  O267  1  0.33509123  0.16831686  0.62877737  1
  O  O268  1  0.37251555  0.63242571  0.13400239  1
  O  O269  1  0.38709142  0.61706644  0.61884036  1
  O  O270  1  0.87128996  0.13896693  0.12237753  1
  O  O271  1  0.89819614  0.13463861  0.61179264  1
  O  O272  1  0.88286019  0.63492623  0.12772844  1
  O  O273  1  0.87704105  0.61529018  0.64293563  1
  O  O274  1  0.25332167  0.25832080  0.11867788  1
  O  O275  1  0.27383162  0.21964899  0.62594340  1
  O  O276  1  0.26339223  0.74146843  0.12175144  1
  O  O277  1  0.26071600  0.75753226  0.63806333  1
  O  O278  1  0.77612792  0.23115128  0.11620053  1
  O  O279  1  0.74864218  0.26260184  0.61732811  1
  O  O280  1  0.76205876  0.74351855  0.11097677  1
  O  O281  1  0.74228881  0.74299056  0.61282411  1
  O  O282  1  0.24062031  0.24774079  0.37630536  1
  O  O283  1  0.23528767  0.25625433  0.88240053  1
  O  O284  1  0.25427658  0.73294609  0.37012933  1
  O  O285  1  0.22344652  0.75670158  0.87391268  1
  O  O286  1  0.74148159  0.25613634  0.37336506  1
  O  O287  1  0.72923406  0.24061562  0.86099296  1
  O  O288  1  0.74188956  0.73918189  0.38126266  1
  O  O289  1  0.73685636  0.75433461  0.88940522  1
  O  O290  1  0.01578680  0.12222086  0.00839248  1
  O  O291  1  -0.00041619  0.10992721  0.49921725  1
  O  O292  1  -0.01149469  0.62458831  0.01433575  1
  O  O293  1  0.01810875  0.62054988  0.49152402  1
  O  O294  1  0.50383551  0.10659409  -0.00493463  1
  O  O295  1  0.51645804  0.11206239  0.49549605  1
  O  O296  1  0.48686399  0.61467917  -0.01178891  1
  O  O297  1  0.50730702  0.61589592  0.50163684  1
  O  O298  1  0.49472757  0.38561969  0.49781182  1
  O  O299  1  0.49350530  0.38807064  0.99310910  1
  O  O300  1  0.47682009  0.87550117  0.49895079  1
  O  O301  1  0.49193933  0.88263700  0.99376054  1
  O  O302  1  0.98595887  0.37735750  0.48979089  1
  O  O303  1  1.00931735  0.38046419  0.98055981  1
  O  O304  1  0.98589444  0.88656683  0.50332030  1
  O  O305  1  0.98516564  0.86836102  0.98956725  1
  O  O306  1  0.49015729  0.50192889  0.38388279  1
  O  O307  1  0.50506984  0.48898325  0.88715986  1
  O  O308  1  0.52983657  0.98801690  0.40077426  1
  O  O309  1  0.49037636  0.98887449  0.88633105  1
  O  O310  1  0.99112396  0.49416338  0.37721425  1
  O  O311  1  0.99655740  0.48304543  0.85567591  1
  O  O312  1  0.99057160  0.99109885  0.38869958  1
  O  O313  1  0.99124524  1.00629174  0.89165505  1
  O  O314  1  0.00912402  -0.01758708  0.09327963  1
  O  O315  1  0.00034303  0.01086650  0.61273155  1
  O  O316  1  0.01317353  0.50565463  0.12137157  1
  O  O317  1  0.01926464  0.49705814  0.62797584  1
  O  O318  1  0.50295303  -0.00362851  0.11657337  1
  O  O319  1  0.52575335  -0.01777260  0.59007410  1
  O  O320  1  0.49519244  0.50096999  0.10956691  1
  O  O321  1  0.50891081  0.50813588  0.61435858  1
  O  O322  1  0.25746072  0.38410167  0.23666415  1
  O  O323  1  0.23766647  0.37540373  0.74745455  1
  O  O324  1  0.27023911  0.88534542  0.22892429  1
  O  O325  1  0.24991751  0.87928677  0.74526287  1
  O  O326  1  0.74011914  0.38936267  0.25321515  1
  O  O327  1  0.73559952  0.38759387  0.75538290  1
  O  O328  1  0.73534660  0.88113200  0.25558317  1
  O  O329  1  0.74318665  0.87475520  0.75087850  1
  O  O330  1  0.26655518  0.12823519  0.26236752  1
  O  O331  1  0.24101822  0.10559384  0.75808832  1
  O  O332  1  0.25614887  0.61696269  0.25970828  1
  O  O333  1  0.24449103  0.61019694  0.75020664  1
  O  O334  1  0.74561193  0.10990907  0.25814381  1
  O  O335  1  0.76771699  0.11623889  0.74406492  1
  O  O336  1  0.74470824  0.61546880  0.26174375  1
  O  O337  1  0.75393889  0.61561253  0.74771517  1
  O  O338  1  0.36964730  0.12709694  0.36322946  1
  O  O339  1  0.37189684  0.09884441  0.89269409  1
  O  O340  1  0.36364309  0.61281689  0.37015970  1
  O  O341  1  0.29519962  0.62852943  0.91750753  1
  O  O342  1  0.87721154  0.10680242  0.38477623  1
  O  O343  1  0.87740324  0.12930450  0.87842265  1
  O  O344  1  0.86756099  0.61848475  0.37690756  1
  O  O345  1  0.88225361  0.62046464  0.85066495  1
  O  O346  1  0.13327838  0.38891773  0.11709315  1
  O  O347  1  0.12254579  0.37734536  0.63431237  1
  O  O348  1  0.14535817  0.87982985  0.11293976  1
  O  O349  1  0.14401337  0.87142339  0.64097623  1
  O  O350  1  0.62551396  0.37056057  0.13855891  1
  O  O351  1  0.61356415  0.38382093  0.63827426  1
  O  O352  1  0.61867452  0.88609523  0.13828337  1
  O  O353  1  0.62218034  0.86406712  0.64457872  1
  O  O354  1  0.12867350  0.25305329  0.26560700  1
  O  O355  1  0.12502867  0.25935188  0.75566274  1
  O  O356  1  0.14072671  0.78314062  0.24606975  1
  O  O357  1  0.11141002  0.75633217  0.75057481  1
  O  O358  1  0.62557251  0.25758118  0.25506242  1
  O  O359  1  0.62593323  0.26666187  0.74925067  1
  O  O360  1  0.62138617  0.75350368  0.25515296  1
  O  O361  1  0.63027676  0.75672333  0.76800197  1
  O  O362  1  0.38575462  0.24885309  0.24085844  1
  O  O363  1  0.37654795  0.22278968  0.79356424  1
  O  O364  1  0.38055059  0.74300050  0.23965339  1
  O  O365  1  0.38148796  0.71503101  0.82049955  1
  O  O366  1  0.87791195  0.24712248  0.24530841  1
  O  O367  1  0.88392933  0.25389820  0.74757551  1
  O  O368  1  0.86047092  0.75380491  0.23672213  1
  O  O369  1  0.88021299  0.73882036  0.74878579  1
  O  O370  1  0.37903360  0.48942646  0.49425714  1
  O  O371  1  0.38038663  0.49007845  1.00111339  1
  O  O372  1  0.38444799  1.00490987  0.50401265  1
  O  O373  1  0.38186995  0.98653857  1.00452797  1
  O  O374  1  0.87313890  0.49209525  0.49144539  1
  O  O375  1  0.84667998  0.47836798  0.99439826  1
  O  O376  1  0.86685624  0.98923250  0.48980414  1
  O  O377  1  0.87336448  0.98508904  1.00609129  1
  O  O378  1  0.12672148  0.00660869  -0.01854031  1
  O  O379  1  0.11502565  -0.00590434  0.49685187  1
  O  O380  1  0.13237121  0.50615599  0.00783170  1
  O  O381  1  0.12673346  0.49496628  0.51231727  1
  O  O382  1  0.61032771  -0.01151764  0.01182893  1
  O  O383  1  0.65679976  0.02361592  0.50569322  1
  O  O384  1  0.61153031  0.51884434  -0.00387817  1
  O  O385  1  0.61893249  0.50537539  0.50206318  1
  O  O386  1  0.36566393  0.36719488  0.11554436  1
  O  O387  1  0.38457957  0.36972991  0.61406463  1
  O  O388  1  0.38131028  0.85869374  0.11603505  1
  O  O389  1  0.36750024  0.87914743  0.62505623  1
  O  O390  1  0.88005972  0.35767121  0.13077109  1
  O  O391  1  0.88110347  0.38426884  0.61006361  1
  O  O392  1  0.87771939  0.85742718  0.10915276  1
  O  O393  1  0.86626544  0.88410459  0.61081624  1
  O  O394  1  0.14077334  0.13236325  0.37001538  1
  O  O395  1  0.12589178  0.14333711  0.86674153  1
  O  O396  1  0.13628503  0.62077424  0.38434871  1
  O  O397  1  0.11701864  0.63603333  0.87265479  1
  O  O398  1  0.62607753  0.14345981  0.38408801  1
  O  O399  1  0.60013376  0.14528857  0.85519459  1
  O  O400  1  0.63107727  0.62888953  0.38483371  1
  O  O401  1  0.61540845  0.64158149  0.88610932  1
