# generated using pymatgen
data_V73Zn73O256
_symmetry_space_group_name_H-M   'P 1'
_cell_length_a   16.86650860
_cell_length_b   16.91554114
_cell_length_c   16.86748245
_cell_angle_alpha   90.06613264
_cell_angle_beta   89.95149894
_cell_angle_gamma   89.88425439
_symmetry_Int_Tables_number   1
_chemical_formula_structural   V73Zn73O256
_chemical_formula_sum   'V73 Zn73 O256'
_cell_volume   4812.38121667
_cell_formula_units_Z   1
loop_
 _symmetry_equiv_pos_site_id
 _symmetry_equiv_pos_as_xyz
  1  'x, y, z'
loop_
 _atom_site_type_symbol
 _atom_site_label
 _atom_site_symmetry_multiplicity
 _atom_site_fract_x
 _atom_site_fract_y
 _atom_site_fract_z
 _atom_site_occupancy
  V  V0  1  0.36767690  0.12873725  0.25261070  1
  V  V1  1  0.11654022  0.36881589  0.25216799  1
  V  V2  1  0.50249670  0.25166929  0.25513238  1
  V  V3  1  0.74327155  0.62364736  0.38270470  1
  V  V4  1  0.00232994  0.88372210  0.38169752  1
  V  V5  1  0.86796866  0.11569059  0.76936229  1
  V  V6  1  0.38113995  0.24902285  0.63201679  1
  V  V7  1  0.00317756  0.49386196  0.51433885  1
  V  V8  1  0.24874176  0.00362180  0.24811111  1
  V  V9  1  0.75506293  0.37490688  0.62245655  1
  V  V10  1  0.50175231  0.37460980  0.37811651  1
  V  V11  1  0.50715454  0.76511167  0.25453967  1
  V  V12  1  -0.00170526  0.75412517  0.25314047  1
  V  V13  1  0.13146527  0.62534572  0.50732096  1
  V  V14  1  0.37156208  0.74852699  0.65332507  1
  V  V15  1  0.24387409  0.12316870  0.87437233  1
  V  V16  1  0.62144486  0.50142850  0.64532895  1
  V  V17  1  0.61857200  0.87565046  0.73077405  1
  V  V18  1  0.00243327  0.12952153  0.10804138  1
  V  V19  1  0.62200985  0.63149697  0.50039623  1
  V  V20  1  0.11646793  0.74054979  0.88490414  1
  V  V21  1  0.75528314  0.59674727  0.88355521  1
  V  V22  1  0.88338899  0.49346197  0.38437475  1
  V  V23  1  0.25151455  0.87710105  0.63397990  1
  V  V24  1  0.62489034  0.76808371  0.87888668  1
  V  V25  1  0.11283367  0.87221008  0.75077771  1
  V  V26  1  -0.00601834  0.64406391  0.62175244  1
  V  V27  1  0.49979993  0.35670655  0.88305114  1
  V  V28  1  0.24253143  0.24557006  -0.00062785  1
  V  V29  1  0.49867890  0.50091471  0.50212038  1
  V  V30  1  0.24355458  0.48750163  0.74120970  1
  V  V31  1  0.13271106  0.75230021  0.37813553  1
  V  V32  1  0.26118007  0.62371114  0.87643341  1
  V  V33  1  0.87330651  0.00287344  0.37925013  1
  V  V34  1  0.88808836  0.63966055  0.76367156  1
  V  V35  1  0.51135146  0.13135034  0.12226456  1
  V  V36  1  -0.01042295  0.88411453  0.89379482  1
  V  V37  1  0.47786824  0.62117288  0.13006168  1
  V  V38  1  0.86904093  0.76571550  0.12483269  1
  V  V39  1  0.87355295  0.86930019  0.51014666  1
  V  V40  1  0.36516766  0.37383069  0.50726589  1
  V  V41  1  0.36430191  0.77822148  0.11606935  1
  V  V42  1  0.38335637  0.49259540  0.88004462  1
  V  V43  1  0.68852637  0.18744657  0.42000961  1
  V  V44  1  0.50334895  0.00436165  0.50341044  1
  V  V45  1  0.88055932  0.13053398  0.25002697  1
  V  V46  1  0.87675267  0.62711225  0.25206695  1
  V  V47  1  0.75095564  -0.00815135  0.24621465  1
  V  V48  1  0.49149869  0.63091896  0.63842097  1
  V  V49  1  0.62883593  0.37545601  0.25362435  1
  V  V50  1  0.86846014  0.24139603  0.61306168  1
  V  V51  1  0.37359815  0.86118598  0.48980507  1
  V  V52  1  0.49798517  -0.00796119  0.00272310  1
  V  V53  1  0.24512335  0.38004266  0.11744490  1
  V  V54  1  0.62815106  -0.01411649  0.12908168  1
  V  V55  1  0.01544095  0.62213367  0.11929220  1
  V  V56  1  0.12348155  0.26639214  0.86235576  1
  V  V57  1  0.75477591  0.49512658  0.24520398  1
  V  V58  1  0.39622706  0.12732635  0.75175361  1
  V  V59  1  0.38416101  -0.00556525  0.87805965  1
  V  V60  1  0.01489069  0.11414873  0.62627600  1
  V  V61  1  0.62417195  0.50058759  0.12182962  1
  V  V62  1  0.37818628  0.00119238  0.37275556  1
  V  V63  1  0.12296712  0.00119301  0.10999389  1
  V  V64  1  0.24463114  0.49966185  0.24713847  1
  V  V65  1  -0.00782015  0.46360396  -0.03158067  1
  V  V66  1  0.37237591  0.50145128  0.36778445  1
  V  V67  1  0.13259653  0.87823469  0.24550996  1
  V  V68  1  0.61083900  0.35223942  0.74648032  1
  V  V69  1  0.12538333  0.23522189  0.37882458  1
  V  V70  1  0.37258545  0.25427298  0.11840549  1
  V  V71  1  0.86296111  0.25777236  0.11448673  1
  V  V72  1  0.25129696  0.62669544  0.36949058  1
  Zn  Zn73  1  0.62056482  0.63364555  0.00525972  1
  Zn  Zn74  1  0.75797552  -0.01196016  0.72668117  1
  Zn  Zn75  1  0.75300117  0.74681452  0.00865565  1
  Zn  Zn76  1  -0.03591219  0.28332063  0.76536527  1
  Zn  Zn77  1  0.62877713  0.01363993  0.61584141  1
  Zn  Zn78  1  0.74592499  0.76189118  0.51780764  1
  Zn  Zn79  1  0.24305395  0.25211535  0.49854110  1
  Zn  Zn80  1  0.24348527  0.00744423  0.74737858  1
  Zn  Zn81  1  -0.00193429  0.36584549  0.38344867  1
  Zn  Zn82  1  0.18116849  0.18808483  0.18707588  1
  Zn  Zn83  1  0.20048392  0.19231596  0.68639449  1
  Zn  Zn84  1  0.19627929  0.69257488  0.18602974  1
  Zn  Zn85  1  0.19195095  0.68715418  0.70068658  1
  Zn  Zn86  1  0.69467147  0.18774466  0.20868459  1
  Zn  Zn87  1  0.69737692  0.18050928  0.69180451  1
  Zn  Zn88  1  0.68775585  0.68641999  0.19220843  1
  Zn  Zn89  1  0.71756224  0.71329340  0.71005308  1
  Zn  Zn90  1  0.30617204  0.31235362  0.31346936  1
  Zn  Zn91  1  0.31229339  0.31585873  0.81317304  1
  Zn  Zn92  1  0.31980385  0.80965723  0.30208986  1
  Zn  Zn93  1  0.30419084  0.81648528  0.83465002  1
  Zn  Zn94  1  0.81872189  0.31267054  0.30947765  1
  Zn  Zn95  1  0.79423584  0.30750575  0.80288824  1
  Zn  Zn96  1  0.79523506  0.81808125  0.32470743  1
  Zn  Zn97  1  0.80726349  0.81654954  0.81485922  1
  Zn  Zn98  1  0.18168605  0.43835042  0.43591310  1
  Zn  Zn99  1  0.17961889  0.45526671  0.93518323  1
  Zn  Zn100  1  0.20186610  0.93666748  0.43610765  1
  Zn  Zn101  1  0.18850466  0.92934334  0.93008140  1
  Zn  Zn102  1  0.68857076  0.44008059  0.44109238  1
  Zn  Zn103  1  0.66432226  0.45940126  0.91320356  1
  Zn  Zn104  1  0.68835841  0.93171698  0.43256632  1
  Zn  Zn105  1  0.67010199  0.93348434  0.95148700  1
  Zn  Zn106  1  0.31173064  0.06272341  0.06397726  1
  Zn  Zn107  1  0.32490432  0.05795713  0.56985990  1
  Zn  Zn108  1  0.30353683  0.56183745  0.05061515  1
  Zn  Zn109  1  0.31168923  0.56457650  0.56445919  1
  Zn  Zn110  1  0.80702328  0.07015217  0.06068040  1
  Zn  Zn111  1  0.80136192  0.06863793  0.55635829  1
  Zn  Zn112  1  0.82630506  0.55975331  0.06147936  1
  Zn  Zn113  1  0.79034260  0.58804510  0.59516318  1
  Zn  Zn114  1  0.43624551  0.43663863  0.18343478  1
  Zn  Zn115  1  0.43137784  0.43989674  0.69731876  1
  Zn  Zn116  1  0.43783843  0.93687172  0.18826876  1
  Zn  Zn117  1  0.44065198  0.93578118  0.68902461  1
  Zn  Zn118  1  0.93824502  0.44062092  0.17677712  1
  Zn  Zn119  1  0.87830562  0.46512475  0.81371337  1
  Zn  Zn120  1  0.94520639  0.94508823  0.18828679  1
  Zn  Zn121  1  0.94336394  0.94856702  0.68402830  1
  Zn  Zn122  1  0.05841456  0.06483014  0.30591717  1
  Zn  Zn123  1  0.05518971  0.05864162  0.80547879  1
  Zn  Zn124  1  0.06511516  0.56202009  0.31011144  1
  Zn  Zn125  1  0.06019140  0.55653539  0.80831251  1
  Zn  Zn126  1  0.56011646  0.05662107  0.31156564  1
  Zn  Zn127  1  0.57334225  0.05729162  0.81189393  1
  Zn  Zn128  1  0.56028881  0.56572187  0.30693927  1
  Zn  Zn129  1  0.55503418  0.58884800  0.82919016  1
  Zn  Zn130  1  0.43573475  0.18749073  0.43567431  1
  Zn  Zn131  1  0.43595159  0.18326798  0.94092847  1
  Zn  Zn132  1  0.43961703  0.68535583  0.43117665  1
  Zn  Zn133  1  0.44204126  0.68360705  0.94699484  1
  Zn  Zn134  1  0.94077110  0.18460988  0.43960097  1
  Zn  Zn135  1  0.94033740  0.19983661  0.93660650  1
  Zn  Zn136  1  0.93910112  0.68784749  0.43816919  1
  Zn  Zn137  1  0.94068089  0.69868313  0.94327934  1
  Zn  Zn138  1  0.06136094  0.31080889  0.05966662  1
  Zn  Zn139  1  0.03875406  0.28045258  0.55252815  1
  Zn  Zn140  1  0.06257100  0.81147274  0.06222937  1
  Zn  Zn141  1  0.06820880  0.81876711  0.56002620  1
  Zn  Zn142  1  0.57036125  0.31906538  0.06277266  1
  Zn  Zn143  1  0.56748978  0.18913635  0.55951803  1
  Zn  Zn144  1  0.55563611  0.80442154  0.06918199  1
  Zn  Zn145  1  0.55084740  0.81229988  0.55794818  1
  O  O146  1  0.11437041  0.11504012  0.12598149  1
  O  O147  1  0.11303299  0.13056926  0.64700554  1
  O  O148  1  0.11403779  0.64029904  0.13047697  1
  O  O149  1  0.12449640  0.63522844  0.61000394  1
  O  O150  1  0.61181974  0.12915528  0.13606333  1
  O  O151  1  0.62271622  0.12524967  0.63038038  1
  O  O152  1  0.63259531  0.60748835  0.12255625  1
  O  O153  1  0.60095043  0.61247214  0.61594619  1
  O  O154  1  0.37906062  0.38415643  0.38204242  1
  O  O155  1  0.39069907  0.37963082  0.87183155  1
  O  O156  1  0.36165938  0.88234052  0.38558164  1
  O  O157  1  0.39050361  0.89795783  0.86226995  1
  O  O158  1  0.88223568  0.38938594  0.36734208  1
  O  O159  1  0.89411511  0.35670582  0.82087361  1
  O  O160  1  0.88390999  0.88539649  0.37818200  1
  O  O161  1  0.89289396  0.86405445  0.86747560  1
  O  O162  1  0.26195872  0.00126448  0.35915975  1
  O  O163  1  0.26761899  0.01298340  0.87698394  1
  O  O164  1  0.25405136  0.50560556  0.36732196  1
  O  O165  1  0.25906246  0.50159408  0.86609682  1
  O  O166  1  0.76525028  -0.00186353  0.35997015  1
  O  O167  1  0.70872820  0.07968473  0.91589101  1
  O  O168  1  0.76524056  0.50166515  0.36813192  1
  O  O169  1  0.77711012  0.49530365  0.88168446  1
  O  O170  1  0.25335994  0.48594470  0.13018866  1
  O  O171  1  0.25604851  0.50600167  0.64073358  1
  O  O172  1  0.23677044  1.00838959  0.13579598  1
  O  O173  1  0.26841359  0.98134953  0.63478604  1
  O  O174  1  0.74949012  0.50506881  0.14011879  1
  O  O175  1  0.72684012  0.49687505  0.62977727  1
  O  O176  1  0.73412129  1.00802180  0.12895483  1
  O  O177  1  0.74135871  0.99526459  0.61287855  1
  O  O178  1  0.01658822  0.38066737  0.24429240  1
  O  O179  1  0.07758876  0.39049409  0.69385753  1
  O  O180  1  0.01107806  0.87042182  0.26024228  1
  O  O181  1  0.01304870  0.87373135  0.73875324  1
  O  O182  1  0.50225180  0.37060898  0.25932823  1
  O  O183  1  0.50466808  0.37235972  0.75760782  1
  O  O184  1  0.50329835  0.86773091  0.24791140  1
  O  O185  1  0.51729833  0.87382948  0.74658493  1
  O  O186  1  0.49033509  0.13424956  0.24163804  1
  O  O187  1  0.49489770  0.12848227  0.76233603  1
  O  O188  1  0.50061620  0.62849672  0.23448072  1
  O  O189  1  0.49501128  0.62569813  0.73599038  1
  O  O190  1  0.98549986  0.11481548  0.23280924  1
  O  O191  1  0.98164877  0.12083674  0.73741956  1
  O  O192  1  0.99523509  0.63907169  0.25421743  1
  O  O193  1  0.99349158  0.63130834  0.73629581  1
  O  O194  1  0.36356484  0.24706583  0.01171714  1
  O  O195  1  0.37202097  0.26578910  0.49653898  1
  O  O196  1  0.38661902  0.75226355  0.01785734  1
  O  O197  1  0.37589587  0.76094252  0.49339447  1
  O  O198  1  0.87051191  0.24659606  0.01377126  1
  O  O199  1  0.88042327  0.25681576  0.51399213  1
  O  O200  1  0.87274488  0.75410118  0.02082989  1
  O  O201  1  0.87869298  0.76627979  0.49551796  1
  O  O202  1  0.12870039  0.25853200  0.48573005  1
  O  O203  1  0.13749753  0.24860432  0.98786536  1
  O  O204  1  0.12321753  0.74034754  0.48631475  1
  O  O205  1  0.12871256  0.75851209  0.98472112  1
  O  O206  1  0.62399535  0.24315939  0.47844281  1
  O  O207  1  0.65533624  0.25936290  1.00208768  1
  O  O208  1  0.61715504  0.73396710  0.49915392  1
  O  O209  1  0.63277201  0.75314818  0.99995032  1
  O  O210  1  0.49419072  0.24673870  0.12973761  1
  O  O211  1  0.47815218  0.24253237  0.60926257  1
  O  O212  1  0.48690520  0.73793891  0.13274964  1
  O  O213  1  0.48585857  0.73872924  0.62346455  1
  O  O214  1  0.99611880  0.23395637  0.12118699  1
  O  O215  1  0.97265802  0.26484457  0.64757139  1
  O  O216  1  0.99164827  0.74643971  0.13931572  1
  O  O217  1  1.00723133  0.74230796  0.61876043  1
  O  O218  1  0.01469372  0.25242161  0.38007096  1
  O  O219  1  0.01998905  0.24228681  0.86355390  1
  O  O220  1  0.00990934  0.75930495  0.36844466  1
  O  O221  1  0.00986280  0.76185480  0.87647502  1
  O  O222  1  0.49015907  0.26187137  0.36409609  1
  O  O223  1  0.49752347  0.25709684  0.87936424  1
  O  O224  1  0.49331125  0.74384856  0.35371259  1
  O  O225  1  0.54021189  0.70348753  0.88143806  1
  O  O226  1  0.22458666  0.09211901  0.50705835  1
  O  O227  1  0.25746346  0.13285196  0.98585870  1
  O  O228  1  0.23693857  0.61781913  0.48817347  1
  O  O229  1  0.23181047  0.60568868  0.97492137  1
  O  O230  1  0.75295108  0.13355960  0.47816267  1
  O  O231  1  0.74337375  0.12228674  0.97448394  1
  O  O232  1  0.73710602  0.59769999  0.48567481  1
  O  O233  1  0.76214724  0.62575785  0.99052847  1
  O  O234  1  0.24140976  0.36966517  0.01463014  1
  O  O235  1  0.26345616  0.38317330  0.49748220  1
  O  O236  1  0.27270230  0.85801061  -0.06170980  1
  O  O237  1  0.26416028  0.87926166  0.51681900  1
  O  O238  1  0.70721571  0.30031487  -0.04247697  1
  O  O239  1  0.73779952  0.38098457  0.52253733  1
  O  O240  1  0.77937977  0.91462304  -0.01366109  1
  O  O241  1  0.76733966  0.87392508  0.50121283  1
  O  O242  1  0.13676426  0.48684272  0.25608966  1
  O  O243  1  0.13925036  0.49672607  0.75608891  1
  O  O244  1  0.13211459  0.99464460  0.24686144  1
  O  O245  1  0.13119624  0.97900750  0.75799681  1
  O  O246  1  0.63549721  0.49541656  0.24465582  1
  O  O247  1  0.61136890  0.51492676  0.74293576  1
  O  O248  1  0.63682115  1.00192052  0.24023246  1
  O  O249  1  0.62469053  0.98648791  0.74023375  1
  O  O250  1  0.36879756  0.00880590  0.25118359  1
  O  O251  1  0.38517229  0.01383267  0.76167721  1
  O  O252  1  0.36251331  0.49063850  0.26030986  1
  O  O253  1  0.36190115  0.49874139  0.76603194  1
  O  O254  1  0.86961143  0.00531434  0.25371844  1
  O  O255  1  0.87297813  0.00898154  0.74835802  1
  O  O256  1  0.87245200  0.50902252  0.25602779  1
  O  O257  1  0.85425286  0.54838502  0.73561967  1
  O  O258  1  0.12130995  0.37187928  0.36261985  1
  O  O259  1  0.13148438  0.36408422  0.87620443  1
  O  O260  1  0.12381929  0.87225810  0.37334788  1
  O  O261  1  0.11107078  0.86708174  0.86538529  1
  O  O262  1  0.61125772  0.38860617  0.36641232  1
  O  O263  1  0.61097161  0.37873320  0.85655643  1
  O  O264  1  0.68712223  0.84728539  0.35931935  1
  O  O265  1  0.60652584  0.86855604  0.88527001  1
  O  O266  1  0.38177561  0.13468970  0.13376148  1
  O  O267  1  0.37934959  0.12819551  0.64333433  1
  O  O268  1  0.37787040  0.61072694  0.12489773  1
  O  O269  1  0.38043406  0.63942541  0.62148165  1
  O  O270  1  0.88395785  0.12665996  0.12713215  1
  O  O271  1  0.87609797  0.13575223  0.61950652  1
  O  O272  1  0.88237052  0.63550197  0.14302767  1
  O  O273  1  0.89452000  0.63294484  0.61224350  1
  O  O274  1  0.25354684  0.25466390  0.11864581  1
  O  O275  1  0.27267592  0.23291539  0.60745888  1
  O  O276  1  0.26507464  0.75451460  0.12597207  1
  O  O277  1  0.26595406  0.75567361  0.63332087  1
  O  O278  1  0.76381298  0.24247084  0.13276869  1
  O  O279  1  0.75879142  0.26117370  0.62737670  1
  O  O280  1  0.76495565  0.74869655  0.13229797  1
  O  O281  1  0.73631987  0.69159764  0.60393956  1
  O  O282  1  0.23674413  0.25063516  0.37938069  1
  O  O283  1  0.24805030  0.24125957  0.88097290  1
  O  O284  1  0.24267623  0.74074583  0.36234768  1
  O  O285  1  0.23773084  0.72720563  0.86915254  1
  O  O286  1  0.74069041  0.24843003  0.35555921  1
  O  O287  1  0.73552147  0.25698824  0.89715503  1
  O  O288  1  0.76193202  0.72223399  0.39314022  1
  O  O289  1  0.73196010  0.75377614  0.88939480  1
  O  O290  1  -0.00456550  0.12176299  0.00892873  1
  O  O291  1  0.00735758  0.15737633  0.53047700  1
  O  O292  1  -0.00512409  0.63327271  0.02095366  1
  O  O293  1  0.01182887  0.62282036  0.50450197  1
  O  O294  1  0.49776158  0.12367681  0.01928606  1
  O  O295  1  0.49589592  0.10954539  0.49466482  1
  O  O296  1  0.50547725  0.62268773  0.02652329  1
  O  O297  1  0.50234041  0.61575235  0.49978277  1
  O  O298  1  0.48559720  0.38695406  0.48867194  1
  O  O299  1  0.51158006  0.37485407  0.98267274  1
  O  O300  1  0.47904337  0.88332560  0.50090411  1
  O  O301  1  0.49966817  0.89397533  1.01126534  1
  O  O302  1  1.01160927  0.39138430  0.50509700  1
  O  O303  1  0.99453627  0.36276768  0.98421053  1
  O  O304  1  0.99704101  0.87563755  0.48773613  1
  O  O305  1  0.99605052  0.87669765  0.99485881  1
  O  O306  1  0.49005561  0.49666195  0.37872721  1
  O  O307  1  0.48564672  0.50409338  0.87106022  1
  O  O308  1  0.48469214  0.99682677  0.37596120  1
  O  O309  1  0.49752874  1.01292063  0.89428781  1
  O  O310  1  0.99136370  0.50174874  0.37824585  1
  O  O311  1  0.98081573  0.49533880  0.86632275  1
  O  O312  1  0.98965687  0.99151429  0.36561232  1
  O  O313  1  1.00319729  0.98309979  0.87380635  1
  O  O314  1  0.01500925  0.00764928  0.12179927  1
  O  O315  1  0.00617947  0.01528294  0.61241301  1
  O  O316  1  0.00623367  0.52415988  0.14368831  1
  O  O317  1  0.00473435  0.51620627  0.61123630  1
  O  O318  1  0.50769470  0.01321853  0.12438745  1
  O  O319  1  0.49996159  -0.00348532  0.60699870  1
  O  O320  1  0.51345567  0.50765368  0.13403727  1
  O  O321  1  0.49277393  0.50998516  0.61930937  1
  O  O322  1  0.24125704  0.38093532  0.24164663  1
  O  O323  1  0.25339318  0.38468122  0.74743287  1
  O  O324  1  0.23922845  0.88519437  0.25357429  1
  O  O325  1  0.25104388  0.87524670  0.74219241  1
  O  O326  1  0.74044493  0.38491622  0.25788787  1
  O  O327  1  0.72166898  0.37283991  0.73805945  1
  O  O328  1  0.76301220  0.89414669  0.23700108  1
  O  O329  1  0.72939898  0.88255954  0.76485126  1
  O  O330  1  0.25961150  0.12062348  0.24312228  1
  O  O331  1  0.26449691  0.12415658  0.76298166  1
  O  O332  1  0.24180114  0.61297463  0.25957061  1
  O  O333  1  0.24209027  0.60946712  0.76727898  1
  O  O334  1  0.77181779  0.11007179  0.24389698  1
  O  O335  1  0.76078442  0.10924040  0.75569736  1
  O  O336  1  0.75670011  0.61722537  0.26452869  1
  O  O337  1  0.73131172  0.62780665  0.79068323  1
  O  O338  1  0.37807193  0.11864342  0.36092281  1
  O  O339  1  0.37169445  0.12396015  0.86518592  1
  O  O340  1  0.36171213  0.61203927  0.38300486  1
  O  O341  1  0.36683185  0.61964924  0.88138471  1
  O  O342  1  0.88966461  0.11253730  0.36280738  1
  O  O343  1  0.88081195  0.12609385  0.86791879  1
  O  O344  1  0.87134591  0.61379996  0.37001679  1
  O  O345  1  0.87078778  0.63626417  0.86938077  1
  O  O346  1  0.13728646  0.36338905  0.13656036  1
  O  O347  1  0.11855457  0.36557830  0.63866898  1
  O  O348  1  0.11710193  0.88821591  0.13647560  1
  O  O349  1  0.14370054  0.86671449  0.63261535  1
  O  O350  1  0.61605627  0.38602125  0.14581678  1
  O  O351  1  0.61112788  0.39413018  0.64102607  1
  O  O352  1  0.62367217  0.88786514  0.12228927  1
  O  O353  1  0.62634526  0.86272076  0.62935045  1
  O  O354  1  0.13009520  0.26110580  0.26141200  1
  O  O355  1  0.14206570  0.25489790  0.76380148  1
  O  O356  1  0.11941247  0.76039369  0.25794527  1
  O  O357  1  0.13176787  0.76516709  0.76176520  1
  O  O358  1  0.61024419  0.26064804  0.24515712  1
  O  O359  1  0.61688914  0.25397415  0.74284053  1
  O  O360  1  0.60768408  0.74927757  0.23658341  1
  O  O361  1  0.63175746  0.76581207  0.76828668  1
  O  O362  1  0.38086114  0.24668100  0.24260936  1
  O  O363  1  0.37470947  0.24295004  0.73935677  1
  O  O364  1  0.38709559  0.75782595  0.22884730  1
  O  O365  1  0.37391836  0.75539880  0.75146929  1
  O  O366  1  0.87814860  0.23343959  0.24488577  1
  O  O367  1  0.85897727  0.22492020  0.74283879  1
  O  O368  1  0.88045089  0.74654048  0.25440609  1
  O  O369  1  0.84178452  0.72887422  0.73808206  1
  O  O370  1  0.37894248  0.49262253  0.49413518  1
  O  O371  1  0.36691202  0.49473960  0.98069444  1
  O  O372  1  0.38191688  0.99602938  0.48979327  1
  O  O373  1  0.38654751  1.00874042  0.99140642  1
  O  O374  1  0.89024062  0.50376008  0.48802244  1
  O  O375  1  0.90684406  0.49319434  1.01963549  1
  O  O376  1  0.87181328  0.99495131  0.48187864  1
  O  O377  1  0.83369436  0.97061784  0.99197129  1
  O  O378  1  0.13832351  -0.00797154  0.01234046  1
  O  O379  1  0.16815154  0.03989301  0.49952208  1
  O  O380  1  0.08767110  0.49259977  -0.00711293  1
  O  O381  1  0.11366006  0.51668246  0.49055955  1
  O  O382  1  0.61117536  0.00611112  0.01751065  1
  O  O383  1  0.60494377  -0.01514138  0.48862392  1
  O  O384  1  0.64213221  0.47526707  0.02649554  1
  O  O385  1  0.60837954  0.50452893  0.50645301  1
  O  O386  1  0.35980431  0.36403327  0.13281692  1
  O  O387  1  0.37879875  0.36513631  0.61414936  1
  O  O388  1  0.36910570  0.87990777  0.11746620  1
  O  O389  1  0.37236086  0.85905783  0.62291658  1
  O  O390  1  0.87889118  0.35570991  0.13601195  1
  O  O391  1  0.85332233  0.37716500  0.63309954  1
  O  O392  1  0.88377685  0.86331679  0.13697534  1
  O  O393  1  0.88848693  0.88242890  0.60748690  1
  O  O394  1  0.12136386  0.13564045  0.36801439  1
  O  O395  1  0.14293867  0.12178288  0.86596241  1
  O  O396  1  0.13188916  0.63416677  0.37915925  1
  O  O397  1  0.11048668  0.63940307  0.87157759  1
  O  O398  1  0.63083079  0.12603804  0.36120121  1
  O  O399  1  0.64639974  0.11884556  0.88393500  1
  O  O400  1  0.63603430  0.61508805  0.38075296  1
  O  O401  1  0.64465727  0.57805752  0.90467523  1
