# generated using pymatgen
data_V73Zn73O256
_symmetry_space_group_name_H-M   'P 1'
_cell_length_a   16.90708964
_cell_length_b   16.88907877
_cell_length_c   16.90772379
_cell_angle_alpha   89.51059544
_cell_angle_beta   89.67190106
_cell_angle_gamma   90.21703912
_symmetry_Int_Tables_number   1
_chemical_formula_structural   V73Zn73O256
_chemical_formula_sum   'V73 Zn73 O256'
_cell_volume   4827.62802391
_cell_formula_units_Z   1
loop_
 _symmetry_equiv_pos_site_id
 _symmetry_equiv_pos_as_xyz
  1  'x, y, z'
loop_
 _atom_site_type_symbol
 _atom_site_label
 _atom_site_symmetry_multiplicity
 _atom_site_fract_x
 _atom_site_fract_y
 _atom_site_fract_z
 _atom_site_occupancy
  V  V0  1  0.61726703  0.00059059  0.09962575  1
  V  V1  1  0.13001848  -0.00320020  0.13762658  1
  V  V2  1  0.61290908  0.49962410  0.61929974  1
  V  V3  1  0.50089786  0.75826987  0.24035371  1
  V  V4  1  0.75961258  0.61733029  0.35765852  1
  V  V5  1  0.12571550  0.26833577  0.87545586  1
  V  V6  1  0.25386718  0.49175214  0.27224578  1
  V  V7  1  0.37256983  0.00335439  0.37672683  1
  V  V8  1  0.50107480  0.12284562  0.11357741  1
  V  V9  1  0.87086387  0.12460786  0.25044448  1
  V  V10  1  0.89819303  0.61921104  0.74141229  1
  V  V11  1  0.87049466  0.00500937  0.37752306  1
  V  V12  1  0.64260123  -0.00131433  0.63211100  1
  V  V13  1  0.24495031  0.86624149  0.62449971  1
  V  V14  1  0.73037170  0.25700444  -0.00975167  1
  V  V15  1  0.38762830  0.61554053  0.25356659  1
  V  V16  1  0.63312538  0.24244271  0.37904784  1
  V  V17  1  0.38518233  0.74112500  0.61824811  1
  V  V18  1  0.23837930  0.12919545  0.37806106  1
  V  V19  1  0.64482065  0.37514604  0.24365724  1
  V  V20  1  0.89457131  0.73912289  0.61576056  1
  V  V21  1  0.62536229  0.76055944  0.36567806  1
  V  V22  1  0.87179670  0.25386798  0.10666399  1
  V  V23  1  0.24588142  -0.00079647  0.75572324  1
  V  V24  1  0.73233476  0.00422792  0.25618422  1
  V  V25  1  0.50893084  0.74615961  0.75198785  1
  V  V26  1  0.01404307  0.50563325  0.50120737  1
  V  V27  1  0.26509584  0.64119552  0.38812524  1
  V  V28  1  0.37616898  0.11859190  0.75303143  1
  V  V29  1  -0.00468220  0.11642684  0.11416134  1
  V  V30  1  0.64110460  0.87484647  0.75329517  1
  V  V31  1  0.36163034  0.37831210  -0.00116869  1
  V  V32  1  0.00599405  0.25305648  0.25921088  1
  V  V33  1  0.37967670  0.37210422  0.47400372  1
  V  V34  1  0.62172468  0.62539174  0.49889828  1
  V  V35  1  0.62432170  0.50685880  0.12631690  1
  V  V36  1  0.73917792  0.87347836  0.12309534  1
  V  V37  1  0.23801704  0.25037392  0.50211978  1
  V  V38  1  0.38281314  0.62206025  0.78021713  1
  V  V39  1  0.48514741  0.87644342  0.87871888  1
  V  V40  1  -0.00320016  0.49837210  -0.00695645  1
  V  V41  1  0.26101679  0.48989526  0.75917549  1
  V  V42  1  0.87345021  0.90028987  -0.00121884  1
  V  V43  1  0.74520285  0.51053793  0.74682211  1
  V  V44  1  0.12689139  0.00765323  0.62235452  1
  V  V45  1  0.50515710  0.00922377  0.50988073  1
  V  V46  1  -0.00001417  0.13150667  0.63860748  1
  V  V47  1  0.63159155  0.63266724  -0.01560862  1
  V  V48  1  0.00135597  0.00764089  0.50197703  1
  V  V49  1  -0.05524119  0.59080478  0.15103675  1
  V  V50  1  0.13602834  0.51925123  0.12804274  1
  V  V51  1  0.74589537  0.37067613  0.61394266  1
  V  V52  1  0.37462705  0.12299690  0.25290253  1
  V  V53  1  0.73237310  0.12776709  0.86509633  1
  V  V54  1  0.49583596  0.25702047  0.25562743  1
  V  V55  1  0.37420786  0.26177860  0.62608969  1
  V  V56  1  0.74945842  0.75304934  0.50337057  1
  V  V57  1  0.13796460  0.12538913  -0.00111841  1
  V  V58  1  0.24452196  0.36596714  0.13621644  1
  V  V59  1  0.49846766  0.49646971  0.47509785  1
  V  V60  1  0.50016099  0.24974799  0.75734065  1
  V  V61  1  0.87221754  0.87612181  0.50745401  1
  V  V62  1  0.37753585  0.87702604  0.50408485  1
  V  V63  1  0.49769088  0.38690939  0.88027785  1
  V  V64  1  0.88008714  0.38062082  0.48301517  1
  V  V65  1  0.01132008  0.87148435  0.36581627  1
  V  V66  1  0.12393070  0.37860067  0.71849072  1
  V  V67  1  0.12617710  0.64130730  0.51169432  1
  V  V68  1  0.87556208  0.01382786  0.84952316  1
  V  V69  1  0.24301054  0.87350429  0.17147589  1
  V  V70  1  0.62389569  0.36877271  0.75159198  1
  V  V71  1  0.87430684  0.24668057  0.63285804  1
  V  V72  1  0.89881674  0.77196385  0.12938582  1
  Zn  Zn73  1  0.75272638  0.22619710  0.49188424  1
  Zn  Zn74  1  0.50679291  0.88252667  0.37332120  1
  Zn  Zn75  1  0.49357552  0.52126034  0.00321858  1
  Zn  Zn76  1  0.25759849  0.12952182  0.88421307  1
  Zn  Zn77  1  0.50704424  0.13130781  0.62436573  1
  Zn  Zn78  1  0.37012303  0.24480110  0.12049688  1
  Zn  Zn79  1  0.87286095  0.48795344  0.86787162  1
  Zn  Zn80  1  0.35698216  0.75167341  0.13188988  1
  Zn  Zn81  1  0.02186418  0.88743529  0.87422905  1
  Zn  Zn82  1  0.18539711  0.17984773  0.19130024  1
  Zn  Zn83  1  0.18818036  0.19257985  0.68896615  1
  Zn  Zn84  1  0.18091184  0.68223085  0.22283577  1
  Zn  Zn85  1  0.22761284  0.64473388  0.66594450  1
  Zn  Zn86  1  0.68448680  0.18893639  0.18078541  1
  Zn  Zn87  1  0.68768256  0.18379192  0.68444049  1
  Zn  Zn88  1  0.74052221  0.65496746  0.14420280  1
  Zn  Zn89  1  0.68714001  0.69158111  0.67940376  1
  Zn  Zn90  1  0.17855902  0.31350239  0.31908256  1
  Zn  Zn91  1  0.31101629  0.30787497  0.81923108  1
  Zn  Zn92  1  0.32270660  0.81290205  0.31836547  1
  Zn  Zn93  1  0.31012837  0.80467206  0.80098962  1
  Zn  Zn94  1  0.81533934  0.30761482  0.30545536  1
  Zn  Zn95  1  0.81483162  0.31683075  0.81614961  1
  Zn  Zn96  1  0.81156074  0.82034077  0.31125766  1
  Zn  Zn97  1  0.86489272  0.81029864  0.81376953  1
  Zn  Zn98  1  0.18641587  0.43700145  0.45304165  1
  Zn  Zn99  1  0.18645756  0.45325128  0.94081748  1
  Zn  Zn100  1  0.19030948  0.93859727  0.43920289  1
  Zn  Zn101  1  0.18488284  0.94105207  0.94577768  1
  Zn  Zn102  1  0.68551978  0.43108972  0.42473163  1
  Zn  Zn103  1  0.68213655  0.43973178  0.93905861  1
  Zn  Zn104  1  0.68881542  0.94461620  0.44353437  1
  Zn  Zn105  1  0.69607279  0.93410681  0.92255377  1
  Zn  Zn106  1  0.30906422  0.05491047  0.07257459  1
  Zn  Zn107  1  0.31509010  0.06895048  0.56632042  1
  Zn  Zn108  1  0.32071807  0.56020531  0.07218911  1
  Zn  Zn109  1  0.31671814  0.54706445  0.55973628  1
  Zn  Zn110  1  0.79433524  0.07572360  0.05808811  1
  Zn  Zn111  1  0.81435402  0.06553771  0.56750305  1
  Zn  Zn112  1  0.80710114  0.52111919  0.05317197  1
  Zn  Zn113  1  0.80704308  0.56060804  0.55458348  1
  Zn  Zn114  1  0.43732433  0.43794726  0.18099296  1
  Zn  Zn115  1  0.43558753  0.44125241  0.69128751  1
  Zn  Zn116  1  0.43424963  0.93688678  0.18523337  1
  Zn  Zn117  1  0.43828773  0.93172779  0.69151987  1
  Zn  Zn118  1  0.95558095  0.41743817  0.15977788  1
  Zn  Zn119  1  0.92841655  0.43160755  0.69070295  1
  Zn  Zn120  1  0.93390563  0.94029131  0.19140429  1
  Zn  Zn121  1  0.94296000  0.92737651  0.69570926  1
  Zn  Zn122  1  0.05415955  0.06574551  0.31303825  1
  Zn  Zn123  1  0.06259216  0.06518158  0.81570606  1
  Zn  Zn124  1  0.04785514  0.54825460  0.30375439  1
  Zn  Zn125  1  0.07697941  0.55929918  0.80184560  1
  Zn  Zn126  1  0.55454807  0.06956706  0.31698881  1
  Zn  Zn127  1  0.55764108  0.05202231  0.81737904  1
  Zn  Zn128  1  0.57879906  0.56776427  0.30474165  1
  Zn  Zn129  1  0.56851352  0.56606139  0.81188658  1
  Zn  Zn130  1  0.43892234  0.18978213  0.43577264  1
  Zn  Zn131  1  0.43314288  0.19480035  0.93651308  1
  Zn  Zn132  1  0.44462916  0.68785189  0.43804789  1
  Zn  Zn133  1  0.45277506  0.71513133  0.95356933  1
  Zn  Zn134  1  0.93161787  0.18930082  0.44296489  1
  Zn  Zn135  1  0.94426549  0.18592689  0.92594418  1
  Zn  Zn136  1  0.94473966  0.68220411  0.42693179  1
  Zn  Zn137  1  0.78410957  0.71767292  0.96837343  1
  Zn  Zn138  1  0.06561994  0.30802687  0.06338353  1
  Zn  Zn139  1  0.05643184  0.31723951  0.55481679  1
  Zn  Zn140  1  0.06914563  0.83429659  0.04165402  1
  Zn  Zn141  1  0.06771174  0.81817563  0.54871456  1
  Zn  Zn142  1  0.55817472  0.31244056  0.06569400  1
  Zn  Zn143  1  0.55720923  0.31281322  0.55903801  1
  Zn  Zn144  1  0.57257008  0.80623627  0.05552897  1
  Zn  Zn145  1  0.56595376  0.81883757  0.56373867  1
  O  O146  1  0.11689159  0.12072415  0.11866855  1
  O  O147  1  0.11310284  0.12085354  0.62739274  1
  O  O148  1  0.14515905  0.61866379  0.13375745  1
  O  O149  1  0.13063573  0.64095519  0.61236468  1
  O  O150  1  0.60997085  0.11341720  0.12427168  1
  O  O151  1  0.62059200  0.10482962  0.63533165  1
  O  O152  1  0.62885323  0.60889514  0.13196790  1
  O  O153  1  0.62965274  0.61515285  0.60660572  1
  O  O154  1  0.38235137  0.36804987  0.37943351  1
  O  O155  1  0.38458958  0.37383019  0.88691298  1
  O  O156  1  0.37566545  0.88670846  0.38894832  1
  O  O157  1  0.38557059  0.85955690  0.86561854  1
  O  O158  1  0.86649686  0.36905249  0.38498081  1
  O  O159  1  0.88997645  0.39873742  0.80530872  1
  O  O160  1  0.88039486  0.89024341  0.38318271  1
  O  O161  1  0.85356016  0.90578373  0.89256418  1
  O  O162  1  0.26460218  0.01560256  0.39142358  1
  O  O163  1  0.24226595  -0.00286587  0.85730258  1
  O  O164  1  0.25969532  0.49131921  0.37226358  1
  O  O165  1  0.25000874  0.50463546  0.86086696  1
  O  O166  1  0.75539487  -0.00435839  0.36243109  1
  O  O167  1  0.75940900  0.02076052  0.87637885  1
  O  O168  1  0.73843129  0.51875440  0.37318013  1
  O  O169  1  0.74875522  0.48842448  0.84810288  1
  O  O170  1  0.24695823  0.49197295  0.13720781  1
  O  O171  1  0.25745913  0.52701319  0.65409443  1
  O  O172  1  0.23930495  0.98939601  0.13777299  1
  O  O173  1  0.24279427  0.99745785  0.62867308  1
  O  O174  1  0.72196494  0.47910109  0.11274701  1
  O  O175  1  0.73265769  0.49018850  0.62360534  1
  O  O176  1  0.72624911  1.00436633  0.13118662  1
  O  O177  1  0.74127755  0.99619498  0.62631954  1
  O  O178  1  -0.01108613  0.35136330  0.24811407  1
  O  O179  1  0.02585090  0.38172588  0.72823141  1
  O  O180  1  0.00181470  0.89105944  0.26699828  1
  O  O181  1  -0.03334480  0.85352650  0.78063343  1
  O  O182  1  0.49179883  0.35655390  0.24383063  1
  O  O183  1  0.50281114  0.37034291  0.75865613  1
  O  O184  1  0.49083352  0.86201771  0.25633451  1
  O  O185  1  0.50112576  0.86272678  0.75803230  1
  O  O186  1  0.49152255  0.12966702  0.24134513  1
  O  O187  1  0.48836450  0.12958898  0.75356564  1
  O  O188  1  0.49207283  0.63395037  0.26007326  1
  O  O189  1  0.49731357  0.63564289  0.74934372  1
  O  O190  1  0.98901210  0.12988413  0.23844984  1
  O  O191  1  1.00311411  0.12749253  0.73706282  1
  O  O192  1  0.97902803  0.62087920  0.23962705  1
  O  O193  1  0.99703764  0.60547889  0.73453833  1
  O  O194  1  0.37974157  0.27061624  0.00532235  1
  O  O195  1  0.38430236  0.26292695  0.50630396  1
  O  O196  1  0.34722334  0.72048975  0.01501100  1
  O  O197  1  0.38689802  0.76210112  0.51028099  1
  O  O198  1  0.88699029  0.24661484  0.00648319  1
  O  O199  1  0.87029386  0.26157210  0.50633742  1
  O  O200  1  0.86396398  0.78037397  0.02350196  1
  O  O201  1  0.86983840  0.75695853  0.50205509  1
  O  O202  1  0.13995462  0.25068857  0.50860637  1
  O  O203  1  0.12326093  0.23535704  0.99344514  1
  O  O204  1  0.12866898  0.74020907  0.49170106  1
  O  O205  1  0.04206228  0.70914277  0.96399974  1
  O  O206  1  0.62183548  0.25797674  0.48208752  1
  O  O207  1  0.63135769  0.25234359  1.00037753  1
  O  O208  1  0.62878188  0.74531778  0.49494273  1
  O  O209  1  0.64336235  0.73450877  1.00123114  1
  O  O210  1  0.50008336  0.23347410  0.13369061  1
  O  O211  1  0.49284867  0.24982445  0.63650279  1
  O  O212  1  0.50033180  0.75752779  0.13930974  1
  O  O213  1  0.48980293  0.75641645  0.63171584  1
  O  O214  1  0.99141706  0.23688329  0.13075363  1
  O  O215  1  0.99029779  0.23904934  0.61662209  1
  O  O216  1  0.99900413  0.77676156  0.11894104  1
  O  O217  1  0.99280460  0.75042638  0.61065594  1
  O  O218  1  -0.00624807  0.23463423  0.35769791  1
  O  O219  1  0.02834833  0.23710631  0.86822457  1
  O  O220  1  -0.00734438  0.77306708  0.37889197  1
  O  O221  1  -0.01048451  0.71298789  0.91388414  1
  O  O222  1  0.50784610  0.24539413  0.35955070  1
  O  O223  1  0.49554938  0.26082546  0.86197324  1
  O  O224  1  0.51392343  0.75578175  0.37479408  1
  O  O225  1  0.50794479  0.75218212  0.85341288  1
  O  O226  1  0.26116842  0.13958356  0.48918076  1
  O  O227  1  0.24368608  0.12467090  1.00629047  1
  O  O228  1  0.24384459  0.61435905  0.49177795  1
  O  O229  1  0.29719919  0.65816936  1.00428042  1
  O  O230  1  0.75045940  0.11453936  0.49339769  1
  O  O231  1  0.75016232  0.14377823  0.98032161  1
  O  O232  1  0.73930809  0.63480098  0.48831029  1
  O  O233  1  0.74595202  0.62266025  1.02349664  1
  O  O234  1  0.25863336  0.38272496  0.00970748  1
  O  O235  1  0.26855827  0.35970685  0.49389935  1
  O  O236  1  0.29625012  0.91094177  -0.00907940  1
  O  O237  1  0.26294972  0.88289778  0.51599541  1
  O  O238  1  0.74987106  0.35892235  -0.01519885  1
  O  O239  1  0.74972785  0.37320363  0.50723097  1
  O  O240  1  0.74969614  0.88761738  0.01727592  1
  O  O241  1  0.76228918  0.86739574  0.49234291  1
  O  O242  1  0.15339479  0.50643596  0.25537092  1
  O  O243  1  0.14542810  0.48326443  0.75055277  1
  O  O244  1  0.12096497  1.01224786  0.23583523  1
  O  O245  1  0.13753716  1.00486750  0.73942772  1
  O  O246  1  0.62110293  0.48430364  0.23993991  1
  O  O247  1  0.62815991  0.49094892  0.73847411  1
  O  O248  1  0.63219853  1.00469292  0.25913579  1
  O  O249  1  0.62056803  0.98703056  0.74035750  1
  O  O250  1  0.38473637  0.00881918  0.26620403  1
  O  O251  1  0.36552762  0.01245849  0.74178427  1
  O  O252  1  0.37224913  0.50886057  0.24982481  1
  O  O253  1  0.37791939  0.51436393  0.75762490  1
  O  O254  1  0.86792452  0.00967378  0.25886428  1
  O  O255  1  0.86979565  0.00185135  0.75082642  1
  O  O256  1  0.88026380  0.51161805  0.15664309  1
  O  O257  1  0.85022596  0.52096558  0.71252560  1
  O  O258  1  0.12117575  0.37425681  0.38986558  1
  O  O259  1  0.12561401  0.36738551  0.88940626  1
  O  O260  1  0.11092055  0.88327805  0.38457492  1
  O  O261  1  0.11368367  0.85631818  0.93532162  1
  O  O262  1  0.62549237  0.36320762  0.35285656  1
  O  O263  1  0.61210452  0.37922037  0.86034838  1
  O  O264  1  0.62714644  0.86402694  0.38135336  1
  O  O265  1  0.61756846  0.87814809  0.85809796  1
  O  O266  1  0.38205096  0.11813524  0.13458065  1
  O  O267  1  0.38017107  0.13677658  0.63744387  1
  O  O268  1  0.36837900  0.63263409  0.15168579  1
  O  O269  1  0.37169246  0.64192782  0.61212703  1
  O  O270  1  0.88459133  0.12454624  0.12814646  1
  O  O271  1  0.88691806  0.13516271  0.62416580  1
  O  O272  1  0.87003760  0.66402619  0.12653367  1
  O  O273  1  0.87712291  0.63611799  0.60917379  1
  O  O274  1  0.25163989  0.26160967  0.13731069  1
  O  O275  1  0.26219058  0.24035332  0.60941478  1
  O  O276  1  0.23266559  0.76784403  0.16368053  1
  O  O277  1  0.26429986  0.76253682  0.63584992  1
  O  O278  1  0.76235008  0.23364754  0.10295575  1
  O  O279  1  0.75770675  0.25209663  0.61814491  1
  O  O280  1  0.73686571  0.77511294  0.13640811  1
  O  O281  1  0.75598318  0.74748980  0.60634787  1
  O  O282  1  0.24520091  0.23874133  0.38629670  1
  O  O283  1  0.23410143  0.24343686  0.87446318  1
  O  O284  1  0.25854669  0.74003982  0.38216794  1
  O  O285  1  0.22149000  0.75546839  0.86372821  1
  O  O286  1  0.73790623  0.25035466  0.37317910  1
  O  O287  1  0.75231076  0.24526431  0.87991979  1
  O  O288  1  0.73946014  0.74971232  0.37803527  1
  O  O289  1  0.78389662  0.75543750  0.86552834  1
  O  O290  1  0.00869340  0.12519514  0.01277324  1
  O  O291  1  -0.00666225  0.11165082  0.50870226  1
  O  O292  1  -0.00631414  0.58689198  0.05207762  1
  O  O293  1  0.01874486  0.62185771  0.49462283  1
  O  O294  1  0.48642834  0.12801350  0.01521275  1
  O  O295  1  0.49658116  0.11268109  0.50293184  1
  O  O296  1  0.52299402  0.63460527  -0.00180847  1
  O  O297  1  0.50863195  0.60800775  0.49275830  1
  O  O298  1  0.49300516  0.38701216  0.49555856  1
  O  O299  1  0.50219117  0.37395815  0.98386934  1
  O  O300  1  0.49098337  0.88764136  0.50123913  1
  O  O301  1  0.49278352  0.83367668  0.97779765  1
  O  O302  1  0.98624944  0.38320941  0.49553615  1
  O  O303  1  1.00460345  0.40321032  1.03534209  1
  O  O304  1  0.99105157  0.88900474  0.49418033  1
  O  O305  1  0.97401290  0.88750894  0.99468318  1
  O  O306  1  0.50697670  0.49944659  0.37751979  1
  O  O307  1  0.50251474  0.48930652  0.87476523  1
  O  O308  1  0.49334538  1.00092719  0.39060871  1
  O  O309  1  0.49463159  0.97749402  0.87854118  1
  O  O310  1  0.99817063  0.50634000  0.39676139  1
  O  O311  1  1.02971452  0.51222969  0.89787459  1
  O  O312  1  0.99033067  0.99939808  0.38530779  1
  O  O313  1  0.98274104  1.00018732  0.86576841  1
  O  O314  1  0.00842822  0.01159073  0.12917694  1
  O  O315  1  0.00596290  0.00721747  0.62515609  1
  O  O316  1  0.03812187  0.50030940  0.16853947  1
  O  O317  1  -0.01687961  0.49568130  0.59938895  1
  O  O318  1  0.50815726  0.00671363  0.12671339  1
  O  O319  1  0.49490518  0.00194709  0.61534793  1
  O  O320  1  0.51521504  0.48952207  0.11610270  1
  O  O321  1  0.51058288  0.49519002  0.62027707  1
  O  O322  1  0.25375656  0.38212352  0.24543812  1
  O  O323  1  0.26407120  0.38802065  0.74832320  1
  O  O324  1  0.24379743  0.88449417  0.26994682  1
  O  O325  1  0.25958691  0.89073477  0.73406847  1
  O  O326  1  0.74393267  0.36953670  0.24056497  1
  O  O327  1  0.73669366  0.37782122  0.73250984  1
  O  O328  1  0.75214582  0.89870065  0.23538254  1
  O  O329  1  0.73740125  0.86957128  0.75125328  1
  O  O330  1  0.26145338  0.13233433  0.26692046  1
  O  O331  1  0.25901300  0.11512472  0.74770702  1
  O  O332  1  0.26767796  0.61402013  0.27423490  1
  O  O333  1  0.28034057  0.63128265  0.76486944  1
  O  O334  1  0.75771098  0.11274454  0.23831401  1
  O  O335  1  0.75176465  0.13882582  0.76539522  1
  O  O336  1  0.74851884  0.63372910  0.25846893  1
  O  O337  1  0.73116460  0.60984332  0.74398353  1
  O  O338  1  0.37317079  0.12025200  0.36972287  1
  O  O339  1  0.37246833  0.13048894  0.85943785  1
  O  O340  1  0.37190707  0.62565619  0.37426885  1
  O  O341  1  0.39349657  0.63387966  0.87674446  1
  O  O342  1  0.87758341  0.11414878  0.36550273  1
  O  O343  1  0.87547534  0.11582740  0.87052806  1
  O  O344  1  0.85774996  0.63076212  0.37855593  1
  O  O345  1  0.88000866  0.60629061  0.83867240  1
  O  O346  1  0.14375872  0.37601946  0.12417936  1
  O  O347  1  0.13698369  0.37085844  0.61974792  1
  O  O348  1  0.13445034  0.88837428  0.12655864  1
  O  O349  1  0.14051286  0.87925000  0.62135501  1
  O  O350  1  0.61747405  0.36950467  0.14228151  1
  O  O351  1  0.62659514  0.37932400  0.62802394  1
  O  O352  1  0.62685437  0.89061542  0.11961869  1
  O  O353  1  0.61997596  0.88852013  0.63629543  1
  O  O354  1  0.11252782  0.24661189  0.24930276  1
  O  O355  1  0.14163056  0.27472750  0.75694104  1
  O  O356  1  0.11093069  0.65754425  0.31762914  1
  O  O357  1  0.16556918  0.71556172  0.82113792  1
  O  O358  1  0.61703155  0.25554146  0.25139501  1
  O  O359  1  0.61246942  0.25992370  0.73901205  1
  O  O360  1  0.61121948  0.75075345  0.26310132  1
  O  O361  1  0.61424262  0.76124010  0.73219735  1
  O  O362  1  0.38888198  0.23534856  0.24540994  1
  O  O363  1  0.37911196  0.24239095  0.74444841  1
  O  O364  1  0.38940835  0.73996871  0.25684543  1
  O  O365  1  0.38870156  0.73735223  0.73955916  1
  O  O366  1  0.87669238  0.23588963  0.23707669  1
  O  O367  1  0.87202331  0.25277998  0.73030496  1
  O  O368  1  0.87703500  0.77905719  0.22915010  1
  O  O369  1  0.87541420  0.72660645  0.72409851  1
  O  O370  1  0.38773683  0.48608173  0.49598430  1
  O  O371  1  0.38230385  0.48505106  1.00812738  1
  O  O372  1  0.38478750  0.99661194  0.49839570  1
  O  O373  1  0.34725540  0.96855384  0.99732105  1
  O  O374  1  0.86586496  0.48170304  0.49745921  1
  O  O375  1  0.89001489  0.49777144  0.97933724  1
  O  O376  1  0.88013616  0.99353498  0.49745058  1
  O  O377  1  0.86700411  1.00096131  1.01277538  1
  O  O378  1  0.13079168  0.01594974  0.01948108  1
  O  O379  1  0.11595718  -0.00347548  0.51442425  1
  O  O380  1  0.12644423  0.50550408  0.02457447  1
  O  O381  1  0.11923349  0.51133031  0.50814934  1
  O  O382  1  0.62235922  0.00022650  0.00241382  1
  O  O383  1  0.61229342  -0.00738542  0.51520171  1
  O  O384  1  0.62143732  0.51351765  0.00399677  1
  O  O385  1  0.61320269  0.50170745  0.49892894  1
  O  O386  1  0.36283304  0.37312651  0.11674808  1
  O  O387  1  0.37870890  0.36380552  0.62781041  1
  O  O388  1  0.34716803  0.87144993  0.14292931  1
  O  O389  1  0.36889811  0.86795765  0.62020206  1
  O  O390  1  0.86940950  0.35077953  0.12323734  1
  O  O391  1  0.86386558  0.36201295  0.61563815  1
  O  O392  1  0.86088221  0.88591360  0.12013322  1
  O  O393  1  0.88266803  0.86209692  0.61328698  1
  O  O394  1  0.14062262  0.11403823  0.37423315  1
  O  O395  1  0.13171763  0.11552483  0.89278355  1
  O  O396  1  0.15329697  0.62125828  0.38207798  1
  O  O397  1  0.13869470  0.65136868  0.85923729  1
  O  O398  1  0.62311825  0.14242229  0.36924477  1
  O  O399  1  0.63170467  0.12049350  0.86875636  1
  O  O400  1  0.63190355  0.63965633  0.38113905  1
  O  O401  1  0.63879845  0.62063974  0.88478831  1
