# generated using pymatgen
data_V73Zn73O256
_symmetry_space_group_name_H-M   'P 1'
_cell_length_a   16.95360655
_cell_length_b   16.94599140
_cell_length_c   16.91656067
_cell_angle_alpha   90.21627429
_cell_angle_beta   90.00319368
_cell_angle_gamma   90.10291757
_symmetry_Int_Tables_number   1
_chemical_formula_structural   V73Zn73O256
_chemical_formula_sum   'V73 Zn73 O256'
_cell_volume   4860.01217109
_cell_formula_units_Z   1
loop_
 _symmetry_equiv_pos_site_id
 _symmetry_equiv_pos_as_xyz
  1  'x, y, z'
loop_
 _atom_site_type_symbol
 _atom_site_label
 _atom_site_symmetry_multiplicity
 _atom_site_fract_x
 _atom_site_fract_y
 _atom_site_fract_z
 _atom_site_occupancy
  V  V0  1  -0.00430154  0.74950260  0.75183898  1
  V  V1  1  0.88909818  0.12059187  0.26122451  1
  V  V2  1  0.76441631  0.50531009  0.75374674  1
  V  V3  1  0.89002974  0.88227527  -0.00488097  1
  V  V4  1  0.00124028  0.11367154  0.62116966  1
  V  V5  1  0.49666877  0.50112636  0.50050602  1
  V  V6  1  0.61448094  0.76046450  0.86398739  1
  V  V7  1  0.87504457  0.87681137  0.48972064  1
  V  V8  1  0.24877065  0.03115736  0.25568151  1
  V  V9  1  0.49018000  0.24322676  0.24394689  1
  V  V10  1  0.75908587  0.23592069  -0.00371453  1
  V  V11  1  0.74722693  0.62100027  0.37880950  1
  V  V12  1  0.49746884  -0.01020220  -0.01893730  1
  V  V13  1  0.48720836  0.62875000  0.12620165  1
  V  V14  1  0.11438526  0.85254680  0.25044049  1
  V  V15  1  0.61701277  -0.00701921  0.63249997  1
  V  V16  1  0.37225395  0.75433229  0.63092850  1
  V  V17  1  0.88261918  0.24728753  0.12538590  1
  V  V18  1  0.75537930  0.37704441  0.11364703  1
  V  V19  1  0.76371979  0.62419748  0.87488113  1
  V  V20  1  0.74381743  0.87735957  0.63925353  1
  V  V21  1  0.12086250  0.76378679  0.88392187  1
  V  V22  1  0.75199525  0.01496379  0.26423505  1
  V  V23  1  0.74670220  0.88325392  0.12498053  1
  V  V24  1  0.11417256  0.88339834  0.74231891  1
  V  V25  1  0.26508666  0.22555279  0.00218640  1
  V  V26  1  0.02356048  0.25046127  0.74085237  1
  V  V27  1  0.24460231  0.61261704  0.87284413  1
  V  V28  1  0.25017487  0.88810152  0.13102627  1
  V  V29  1  0.74662220  0.24468903  0.49358002  1
  V  V30  1  0.87269200  0.74383266  0.63344914  1
  V  V31  1  0.63136804  0.23959428  0.37065701  1
  V  V32  1  0.36673749  0.60917658  0.75142536  1
  V  V33  1  0.49317716  0.49822582  -0.00642330  1
  V  V34  1  0.74624301  0.74898603  0.50121959  1
  V  V35  1  0.49288063  0.37664435  0.87401666  1
  V  V36  1  0.37375795  0.36999328  0.50844368  1
  V  V37  1  0.01035929  0.03337892  -0.00238367  1
  V  V38  1  0.62544938  0.50116389  0.12313995  1
  V  V39  1  0.62290818  0.37747204  0.75261636  1
  V  V40  1  0.49923873  0.75713601  0.26669445  1
  V  V41  1  0.62746009  0.01211368  0.11668787  1
  V  V42  1  0.37166723  0.36603810  0.00732363  1
  V  V43  1  0.14531126  0.23614943  0.87703480  1
  V  V44  1  0.24344364  0.62294050  0.36250830  1
  V  V45  1  0.86731652  0.23938353  0.63671045  1
  V  V46  1  0.62905097  0.24511318  0.88586599  1
  V  V47  1  0.88530987  0.37246376  0.50592610  1
  V  V48  1  0.50573117  0.23650239  0.73877996  1
  V  V49  1  0.24937063  -0.00024117  0.77273240  1
  V  V50  1  0.01290578  0.61977755  0.61664401  1
  V  V51  1  0.62374254  0.50123194  0.62868183  1
  V  V52  1  0.48985718  0.12520699  0.11816686  1
  V  V53  1  0.37555044  0.50767310  0.35857131  1
  V  V54  1  0.23649290  0.73994521  0.49795643  1
  V  V55  1  0.62872686  0.37243931  0.24825705  1
  V  V56  1  0.37782084  0.87287268  0.48405514  1
  V  V57  1  0.49586038  0.63202441  0.63255267  1
  V  V58  1  0.75225829  0.50396592  0.25324026  1
  V  V59  1  0.24599812  0.88693362  0.61871300  1
  V  V60  1  0.00816895  0.27842055  0.25859956  1
  V  V61  1  0.88170283  0.49272389  0.38115548  1
  V  V62  1  0.87819564  0.74976977  0.14237102  1
  V  V63  1  0.62248155  0.62952775  0.49836336  1
  V  V64  1  0.86368733  0.02479605  0.86913264  1
  V  V65  1  0.37820673  0.01916193  0.36759077  1
  V  V66  1  0.62328966  0.62645109  -0.00298483  1
  V  V67  1  0.50015658  0.37663451  0.36914193  1
  V  V68  1  0.26099230  0.75607380  -0.00085825  1
  V  V69  1  0.12674498  0.26668377  0.38832822  1
  V  V70  1  0.74718402  0.75596378  0.00178235  1
  V  V71  1  0.37069784  0.12173912  0.75186019  1
  V  V72  1  0.22764417  0.37953246  0.12239017  1
  Zn  Zn73  1  0.61661908  0.87790915  0.25967061  1
  Zn  Zn74  1  0.97874526  0.00120995  0.49924254  1
  Zn  Zn75  1  0.14223992  0.11812592  0.49790589  1
  Zn  Zn76  1  0.26046692  0.24812095  0.49270625  1
  Zn  Zn77  1  0.74878157  0.37192000  0.62687361  1
  Zn  Zn78  1  0.62129840  0.11746655  0.50293342  1
  Zn  Zn79  1  0.07281288  0.06843765  0.15983432  1
  Zn  Zn80  1  0.37259555  0.75250316  0.12786210  1
  Zn  Zn81  1  0.50575552  0.00006837  0.49040819  1
  Zn  Zn82  1  0.20100869  0.21332391  0.19782740  1
  Zn  Zn83  1  0.19758972  0.16992183  0.65972193  1
  Zn  Zn84  1  0.18252457  0.68157485  0.18340802  1
  Zn  Zn85  1  0.18509693  0.69300539  0.68986119  1
  Zn  Zn86  1  0.69283333  0.18745871  0.18396229  1
  Zn  Zn87  1  0.69050348  0.17553746  0.68811343  1
  Zn  Zn88  1  0.68385989  0.69049963  0.18881019  1
  Zn  Zn89  1  0.68806371  0.68656921  0.69003137  1
  Zn  Zn90  1  0.31136988  0.32055833  0.30771397  1
  Zn  Zn91  1  0.31549575  0.29768803  0.81663280  1
  Zn  Zn92  1  0.31065564  0.79904680  0.30542403  1
  Zn  Zn93  1  0.30528998  0.81316094  0.80555913  1
  Zn  Zn94  1  0.81763289  0.31141786  0.31198122  1
  Zn  Zn95  1  0.81313199  0.31919926  0.81558930  1
  Zn  Zn96  1  0.78501119  0.82316226  0.31800285  1
  Zn  Zn97  1  0.80839209  0.81545738  0.81870492  1
  Zn  Zn98  1  0.20512316  0.42250598  0.41467771  1
  Zn  Zn99  1  0.14485344  0.43546007  0.83013292  1
  Zn  Zn100  1  0.19486959  0.92620473  0.42234313  1
  Zn  Zn101  1  0.17975374  0.93521195  0.94632699  1
  Zn  Zn102  1  0.68912962  0.43060132  0.43944520  1
  Zn  Zn103  1  0.68637988  0.44020628  0.93360097  1
  Zn  Zn104  1  0.68417042  0.93056088  0.43506692  1
  Zn  Zn105  1  0.68410366  0.94131503  0.93377693  1
  Zn  Zn106  1  0.32635823  0.04682975  0.06342757  1
  Zn  Zn107  1  0.32750862  0.06868939  0.56332751  1
  Zn  Zn108  1  0.30356055  0.55549641  0.05335768  1
  Zn  Zn109  1  0.30667854  0.55768217  0.56343987  1
  Zn  Zn110  1  0.82216422  0.06492762  0.06333663  1
  Zn  Zn111  1  0.80149404  0.05970270  0.56018297  1
  Zn  Zn112  1  0.81015981  0.57266460  0.07022704  1
  Zn  Zn113  1  0.81701884  0.55897090  0.56644900  1
  Zn  Zn114  1  0.44017166  0.43639456  0.18129708  1
  Zn  Zn115  1  0.43751527  0.43558574  0.69028784  1
  Zn  Zn116  1  0.43453310  0.93690356  0.18969571  1
  Zn  Zn117  1  0.42320237  0.96249586  0.67346651  1
  Zn  Zn118  1  0.93341681  0.43936117  0.18721606  1
  Zn  Zn119  1  0.97619733  0.45847927  0.72677651  1
  Zn  Zn120  1  0.93741630  0.93962535  0.18190071  1
  Zn  Zn121  1  0.92284773  0.93601832  0.68976440  1
  Zn  Zn122  1  0.07433489  0.07366886  0.32885461  1
  Zn  Zn123  1  0.05266808  0.06737090  0.81011713  1
  Zn  Zn124  1  0.05351820  0.57740542  0.32286599  1
  Zn  Zn125  1  0.04982832  0.59255078  0.83365910  1
  Zn  Zn126  1  0.56059938  0.05993263  0.30707768  1
  Zn  Zn127  1  0.60087031  0.06180619  0.81195656  1
  Zn  Zn128  1  0.56246503  0.56633026  0.30878328  1
  Zn  Zn129  1  0.56158209  0.56906051  0.81447367  1
  Zn  Zn130  1  0.44943820  0.18803528  0.43814643  1
  Zn  Zn131  1  0.44441067  0.17765485  0.92970137  1
  Zn  Zn132  1  0.43083005  0.68841141  0.44115269  1
  Zn  Zn133  1  0.43396310  0.68609043  0.93255366  1
  Zn  Zn134  1  0.94038796  0.19310901  0.43791202  1
  Zn  Zn135  1  0.94488586  0.19548287  0.92250607  1
  Zn  Zn136  1  0.92596262  0.67992968  0.44892687  1
  Zn  Zn137  1  0.93451178  0.70429149  0.94396851  1
  Zn  Zn138  1  0.08524766  0.24571720  0.07976928  1
  Zn  Zn139  1  0.06486959  0.31692900  0.57402828  1
  Zn  Zn140  1  0.06274559  0.81549992  0.07552033  1
  Zn  Zn141  1  0.05695663  0.81173155  0.56185484  1
  Zn  Zn142  1  0.56362848  0.31147425  0.06299357  1
  Zn  Zn143  1  0.56300359  0.31253905  0.55746395  1
  Zn  Zn144  1  0.56389874  0.81729321  0.06463876  1
  Zn  Zn145  1  0.55749265  0.81668520  0.56161388  1
  O  O146  1  0.13206486  0.15479675  0.12857415  1
  O  O147  1  0.10394795  0.11348476  0.61316764  1
  O  O148  1  0.10247294  0.59132234  0.15376619  1
  O  O149  1  0.11278665  0.62891971  0.63202811  1
  O  O150  1  0.62085276  0.11547581  0.12795157  1
  O  O151  1  0.63179181  0.09721353  0.62240126  1
  O  O152  1  0.61955169  0.62101358  0.11108573  1
  O  O153  1  0.61484921  0.61875502  0.62120692  1
  O  O154  1  0.38111609  0.39157012  0.37862942  1
  O  O155  1  0.38781315  0.36680712  0.87891051  1
  O  O156  1  0.36351506  0.86967765  0.38395309  1
  O  O157  1  0.41326225  0.86868402  0.84074259  1
  O  O158  1  0.86914100  0.38404355  0.38819175  1
  O  O159  1  0.89142246  0.39480520  0.86000057  1
  O  O160  1  0.86818642  0.86286552  0.39162563  1
  O  O161  1  0.87055925  0.87372824  0.89499871  1
  O  O162  1  0.25996241  0.00388729  0.36034703  1
  O  O163  1  0.24370231  -0.00355101  0.87091052  1
  O  O164  1  0.26668974  0.50818300  0.37563837  1
  O  O165  1  0.22594452  0.51552205  0.87067873  1
  O  O166  1  0.75172078  0.00799109  0.36124965  1
  O  O167  1  0.76603943  0.00378447  0.89138655  1
  O  O168  1  0.74974091  0.50177567  0.36969143  1
  O  O169  1  0.74699728  0.50803858  0.86222343  1
  O  O170  1  0.24312440  0.48067774  0.11038550  1
  O  O171  1  0.22911052  0.49336578  0.62821512  1
  O  O172  1  0.25719190  0.99362861  0.14148626  1
  O  O173  1  0.25167279  0.98762274  0.61910193  1
  O  O174  1  0.74674926  0.49658550  0.13443494  1
  O  O175  1  0.73807436  0.50394364  0.63782725  1
  O  O176  1  0.73834895  1.00162409  0.11635275  1
  O  O177  1  0.74160254  0.98151769  0.62418182  1
  O  O178  1  0.00077103  0.37764980  0.25426667  1
  O  O179  1  0.00006965  0.34715355  0.72614292  1
  O  O180  1  0.02090971  0.89218867  0.24044232  1
  O  O181  1  0.01076435  0.87171122  0.74124072  1
  O  O182  1  0.51179397  0.36629225  0.24658741  1
  O  O183  1  0.50524349  0.36831398  0.75647113  1
  O  O184  1  0.49950517  0.86349532  0.25094749  1
  O  O185  1  0.46253864  0.88142769  0.78613572  1
  O  O186  1  0.50413125  0.13945441  0.24161347  1
  O  O187  1  0.51691104  0.13847937  0.75381690  1
  O  O188  1  0.50463080  0.62901329  0.23037226  1
  O  O189  1  0.48307080  0.61877794  0.74206894  1
  O  O190  1  0.99380858  0.11198140  0.25054211  1
  O  O191  1  0.99831341  0.13645403  0.73074312  1
  O  O192  1  0.98578607  0.67494199  0.29554688  1
  O  O193  1  0.99907745  0.64587323  0.74373469  1
  O  O194  1  0.37473293  0.25448766  -0.00812197  1
  O  O195  1  0.38126380  0.26753176  0.48557673  1
  O  O196  1  0.36280508  0.75389361  -0.00394999  1
  O  O197  1  0.36537006  0.75852395  0.50886301  1
  O  O198  1  0.86566514  0.24732889  0.00500756  1
  O  O199  1  0.86395512  0.25906936  0.49825327  1
  O  O200  1  0.86280289  0.76428390  0.01035079  1
  O  O201  1  0.86410910  0.75577077  0.51296761  1
  O  O202  1  0.13062904  0.25949022  0.49903756  1
  O  O203  1  0.14718238  0.24296536  0.98175189  1
  O  O204  1  0.13850828  0.75587770  0.50201026  1
  O  O205  1  0.12820670  0.76032384  0.98732983  1
  O  O206  1  0.62910014  0.25132251  0.48615436  1
  O  O207  1  0.64108379  0.26448265  0.99175819  1
  O  O208  1  0.63103874  0.73708434  0.50915723  1
  O  O209  1  0.63306803  0.74347553  0.99785836  1
  O  O210  1  0.50847155  0.23853278  0.13315252  1
  O  O211  1  0.51555971  0.25028137  0.64011330  1
  O  O212  1  0.49470597  0.73394195  0.11219921  1
  O  O213  1  0.48872399  0.73870108  0.61794322  1
  O  O214  1  0.99170651  0.25962267  0.14529207  1
  O  O215  1  0.98192322  0.23604444  0.62489727  1
  O  O216  1  0.97797794  0.75906505  0.12630611  1
  O  O217  1  0.99064595  0.74582318  0.63365220  1
  O  O218  1  0.00302076  0.25729908  0.36387260  1
  O  O219  1  0.02587619  0.24561907  0.85209108  1
  O  O220  1  -0.01920488  0.72700874  0.35179155  1
  O  O221  1  0.01417385  0.74470344  0.87055715  1
  O  O222  1  0.51144087  0.25615997  0.35810221  1
  O  O223  1  0.51415996  0.25958006  0.87116358  1
  O  O224  1  0.49944341  0.73965800  0.36555616  1
  O  O225  1  0.51643565  0.74286707  0.88264834  1
  O  O226  1  0.24770577  0.14902138  0.54946110  1
  O  O227  1  0.26653186  0.12817480  1.01226034  1
  O  O228  1  0.25169370  0.63685318  0.50115396  1
  O  O229  1  0.25660404  0.63561494  0.97946432  1
  O  O230  1  0.74344333  0.14059275  0.50038969  1
  O  O231  1  0.75068991  0.13880448  1.00307252  1
  O  O232  1  0.73883800  0.62627742  0.50151274  1
  O  O233  1  0.74208055  0.63211077  0.99583804  1
  O  O234  1  0.27061009  0.36930266  0.00201420  1
  O  O235  1  0.27064803  0.37713887  0.49937704  1
  O  O236  1  0.24411653  0.86587945  0.01656533  1
  O  O237  1  0.25607507  0.86378720  0.50211358  1
  O  O238  1  0.75041150  0.38324853  0.01148912  1
  O  O239  1  0.74903669  0.36193084  0.50743753  1
  O  O240  1  0.74887146  0.86955488  0.00836890  1
  O  O241  1  0.75593477  0.85973660  0.50865398  1
  O  O242  1  0.07304601  0.54442451  0.20735704  1
  O  O243  1  0.05408777  0.48801186  0.80386787  1
  O  O244  1  0.14364071  1.01715436  0.24861979  1
  O  O245  1  0.13009900  0.98836382  0.75577669  1
  O  O246  1  0.62998881  0.49042910  0.24500876  1
  O  O247  1  0.62206234  0.49528416  0.74343557  1
  O  O248  1  0.64051617  1.00392824  0.24197338  1
  O  O249  1  0.61037546  0.98058597  0.73124269  1
  O  O250  1  0.36370139  0.00041678  0.25972666  1
  O  O251  1  0.35198810  -0.00706351  0.76042268  1
  O  O252  1  0.38462443  0.49906200  0.25986986  1
  O  O253  1  0.36580770  0.50973006  0.74144864  1
  O  O254  1  0.86585286  0.01538060  0.24012642  1
  O  O255  1  0.87689895  -0.00494979  0.77333796  1
  O  O256  1  0.86098001  0.49225357  0.26601224  1
  O  O257  1  0.86067581  0.49400465  0.74359615  1
  O  O258  1  0.11235587  0.37059349  0.38882449  1
  O  O259  1  0.16694751  0.32942097  0.83321423  1
  O  O260  1  0.13784278  0.86239336  0.34871712  1
  O  O261  1  0.12642269  0.86805848  0.86284148  1
  O  O262  1  0.61948111  0.37120244  0.36348415  1
  O  O263  1  0.61590732  0.37400471  0.86693125  1
  O  O264  1  0.67721315  0.85748821  0.35208001  1
  O  O265  1  0.63068577  0.85895572  0.87681576  1
  O  O266  1  0.39223105  0.11858470  0.13021546  1
  O  O267  1  0.39908220  0.08571021  0.65485488  1
  O  O268  1  0.38640518  0.61899762  0.11393786  1
  O  O269  1  0.37620210  0.62987690  0.63317077  1
  O  O270  1  0.87322956  0.14208026  0.13494687  1
  O  O271  1  0.86894834  0.13638667  0.62053362  1
  O  O272  1  0.86258094  0.64958851  0.13244036  1
  O  O273  1  0.87577771  0.64033840  0.62353168  1
  O  O274  1  0.25489445  0.26213729  0.10200808  1
  O  O275  1  0.26627008  0.28063427  0.65420347  1
  O  O276  1  0.24870113  0.73705495  0.10542575  1
  O  O277  1  0.25392510  0.75876458  0.61524808  1
  O  O278  1  0.75471969  0.25764846  0.11101972  1
  O  O279  1  0.75325058  0.24720825  0.62007558  1
  O  O280  1  0.74793567  0.76314135  0.11823665  1
  O  O281  1  0.75333143  0.75233593  0.62067957  1
  O  O282  1  0.23399929  0.26912931  0.37632030  1
  O  O283  1  0.25925785  0.22967116  0.88963756  1
  O  O284  1  0.25717903  0.73289343  0.38772106  1
  O  O285  1  0.24331302  0.76098064  0.88688802  1
  O  O286  1  0.74051995  0.25849296  0.37968849  1
  O  O287  1  0.74328323  0.26171133  0.88808080  1
  O  O288  1  0.75963831  0.72879621  0.39259527  1
  O  O289  1  0.74162047  0.74271222  0.88519518  1
  O  O290  1  0.00561868  0.13534340  0.00142414  1
  O  O291  1  -0.01269392  0.12154978  0.51221401  1
  O  O292  1  0.00384284  0.62738040  0.00689720  1
  O  O293  1  0.00220514  0.63293600  0.51567267  1
  O  O294  1  0.50023588  0.11827503  0.01409686  1
  O  O295  1  0.50658776  0.11647265  0.49769867  1
  O  O296  1  0.50439979  0.61566038  0.00235495  1
  O  O297  1  0.50357981  0.61845478  0.50916099  1
  O  O298  1  0.49773776  0.38488891  0.48999991  1
  O  O299  1  0.49722903  0.37907835  0.99280065  1
  O  O300  1  0.47991996  0.86944528  0.49431335  1
  O  O301  1  0.50703935  0.89073566  1.00168912  1
  O  O302  1  0.98363515  0.36910667  0.50774422  1
  O  O303  1  0.93488316  0.36664733  0.92636729  1
  O  O304  1  0.97823582  0.87489655  0.51002565  1
  O  O305  1  0.98925317  0.87286320  1.00161447  1
  O  O306  1  0.49278999  0.50076355  0.38110345  1
  O  O307  1  0.50636427  0.49103510  0.88309042  1
  O  O308  1  0.48217272  0.99943945  0.36615150  1
  O  O309  1  0.52813697  1.00759227  0.88648288  1
  O  O310  1  0.97956231  0.50677734  0.37184309  1
  O  O311  1  1.03149190  0.57325477  0.96104786  1
  O  O312  1  1.05486282  0.99473959  0.41246329  1
  O  O313  1  0.98515664  1.01701676  0.89056279  1
  O  O314  1  -0.00530531  0.00848041  0.10322864  1
  O  O315  1  -0.02035034  0.01204667  0.62432882  1
  O  O316  1  -0.04157851  0.49978689  0.08886117  1
  O  O317  1  -0.01109761  0.52307631  0.63281573  1
  O  O318  1  0.51138703  0.01113068  0.13112157  1
  O  O319  1  0.51505053  -0.02673056  0.61039516  1
  O  O320  1  0.50602544  0.50925217  0.11465330  1
  O  O321  1  0.50546798  0.50927345  0.61943810  1
  O  O322  1  0.24777566  0.36019295  0.22206155  1
  O  O323  1  0.26985754  0.33417710  0.70844584  1
  O  O324  1  0.24063516  0.86103517  0.23515391  1
  O  O325  1  0.23962075  0.88682956  0.74252067  1
  O  O326  1  0.74227615  0.38204460  0.24312064  1
  O  O327  1  0.73885916  0.38941351  0.75089970  1
  O  O328  1  0.76326644  0.90474628  0.22948493  1
  O  O329  1  0.74815056  0.86784151  0.73822589  1
  O  O330  1  0.26033792  0.12866881  0.25146056  1
  O  O331  1  0.26150699  0.11113983  0.74196578  1
  O  O332  1  0.25041053  0.63354937  0.26318500  1
  O  O333  1  0.25918660  0.63086080  0.75703234  1
  O  O334  1  0.76339505  0.12039750  0.24604092  1
  O  O335  1  0.70047912  0.10885429  0.77516748  1
  O  O336  1  0.73556141  0.61305929  0.26237001  1
  O  O337  1  0.74821961  0.61288158  0.75829285  1
  O  O338  1  0.37324253  0.11703606  0.38022045  1
  O  O339  1  0.39268304  0.11294171  0.85037112  1
  O  O340  1  0.36947750  0.61106632  0.37989433  1
  O  O341  1  0.36326744  0.62548788  0.85970983  1
  O  O342  1  0.88147806  0.12689190  0.36006162  1
  O  O343  1  0.86914963  0.12629721  0.87235488  1
  O  O344  1  0.85684644  0.60234218  0.39337766  1
  O  O345  1  0.86291257  0.63292845  0.88578100  1
  O  O346  1  0.13082387  0.35962360  0.10728864  1
  O  O347  1  0.12756610  0.40693198  0.63093776  1
  O  O348  1  0.14031343  0.87597207  0.13375367  1
  O  O349  1  0.13095297  0.87068685  0.63628171  1
  O  O350  1  0.63356837  0.38031898  0.13086724  1
  O  O351  1  0.62181708  0.38632272  0.63414728  1
  O  O352  1  0.63257278  0.88966290  0.13207184  1
  O  O353  1  0.63920237  0.87225668  0.61771767  1
  O  O354  1  0.11185879  0.25863175  0.26507173  1
  O  O355  1  0.11826583  0.24487087  0.70854619  1
  O  O356  1  0.11003007  0.75224952  0.23353712  1
  O  O357  1  0.11867429  0.76653434  0.75734204  1
  O  O358  1  0.62700599  0.25943438  0.25163577  1
  O  O359  1  0.62233380  0.26240531  0.76196835  1
  O  O360  1  0.60242023  0.75114871  0.23821737  1
  O  O361  1  0.62431524  0.74111075  0.76476551  1
  O  O362  1  0.39293966  0.25703172  0.25301006  1
  O  O363  1  0.39248982  0.23087324  0.74863642  1
  O  O364  1  0.39354015  0.74682747  0.24357973  1
  O  O365  1  0.36652697  0.74516731  0.73448190  1
  O  O366  1  0.88883398  0.24194618  0.24924107  1
  O  O367  1  0.86587267  0.25073621  0.73732813  1
  O  O368  1  0.85435474  0.77147887  0.23800036  1
  O  O369  1  0.88502448  0.76398768  0.74599865  1
  O  O370  1  0.38612567  0.49410317  0.49823725  1
  O  O371  1  0.38701961  0.48509967  0.99875924  1
  O  O372  1  0.36966106  0.98763566  0.48344939  1
  O  O373  1  0.39636938  1.00143320  0.98946121  1
  O  O374  1  0.86561976  0.48241389  0.49512724  1
  O  O375  1  0.90089215  0.50104560  1.03681812  1
  O  O376  1  0.86159835  0.98135944  0.49977244  1
  O  O377  1  0.88623975  0.99552059  0.99433345  1
  O  O378  1  0.10767821  0.00780650  -0.00801951  1
  O  O379  1  0.12058574  0.00160563  0.47242615  1
  O  O380  1  -0.00414400  0.40599180  -0.05600677  1
  O  O381  1  0.17070078  0.45608042  0.58566627  1
  O  O382  1  0.61761167  0.00044169  0.01456569  1
  O  O383  1  0.62501709  -0.00516902  0.50161184  1
  O  O384  1  0.61729050  0.50775510  0.00259448  1
  O  O385  1  0.61570462  0.50498922  0.50978386  1
  O  O386  1  0.38331758  0.37007537  0.10845704  1
  O  O387  1  0.39017057  0.37541335  0.60704004  1
  O  O388  1  0.35564875  0.87113849  0.13002047  1
  O  O389  1  0.36501273  0.87124602  0.61488896  1
  O  O390  1  0.86230453  0.36035296  0.13695491  1
  O  O391  1  0.86762763  0.35696318  0.61218546  1
  O  O392  1  0.86487627  0.87680162  0.11003324  1
  O  O393  1  0.85879258  0.86432640  0.62086768  1
  O  O394  1  0.12210758  0.15520325  0.39001224  1
  O  O395  1  0.13696455  0.14122088  0.84278568  1
  O  O396  1  0.14517518  0.60710683  0.37802617  1
  O  O397  1  0.14445207  0.65259441  0.86335327  1
  O  O398  1  0.62286565  0.13875250  0.36781634  1
  O  O399  1  0.62069933  0.14837221  0.89216588  1
  O  O400  1  0.63142839  0.61392096  0.39033803  1
  O  O401  1  0.63321324  0.62997633  0.88600561  1
