# generated using pymatgen
data_V73Zn73O256
_symmetry_space_group_name_H-M   'P 1'
_cell_length_a   16.93818379
_cell_length_b   16.89662778
_cell_length_c   16.88592437
_cell_angle_alpha   90.12444002
_cell_angle_beta   90.05217644
_cell_angle_gamma   89.58903215
_symmetry_Int_Tables_number   1
_chemical_formula_structural   V73Zn73O256
_chemical_formula_sum   'V73 Zn73 O256'
_cell_volume   4832.58328554
_cell_formula_units_Z   1
loop_
 _symmetry_equiv_pos_site_id
 _symmetry_equiv_pos_as_xyz
  1  'x, y, z'
loop_
 _atom_site_type_symbol
 _atom_site_label
 _atom_site_symmetry_multiplicity
 _atom_site_fract_x
 _atom_site_fract_y
 _atom_site_fract_z
 _atom_site_occupancy
  V  V0  1  -0.00227585  0.11671307  0.12414611  1
  V  V1  1  0.74483382  0.75882355  0.01220243  1
  V  V2  1  0.62020364  0.61313293  0.01869199  1
  V  V3  1  0.87775627  0.75383943  0.12192125  1
  V  V4  1  0.62403471  0.25892229  0.37416884  1
  V  V5  1  0.74850370  0.00590115  0.74956775  1
  V  V6  1  0.87231534  0.24858783  0.13143640  1
  V  V7  1  0.89003566  0.37449609  0.01056947  1
  V  V8  1  0.49335414  0.25437391  0.75103573  1
  V  V9  1  0.25134316  0.49511646  0.24955944  1
  V  V10  1  0.87981420  0.49038264  0.89035609  1
  V  V11  1  0.36732185  0.25272480  0.62178532  1
  V  V12  1  0.00099824  0.74923662  0.24002268  1
  V  V13  1  0.73687607  0.48832661  0.75120669  1
  V  V14  1  0.87839148  -0.00120257  0.39183046  1
  V  V15  1  0.12957120  0.39330217  0.75151182  1
  V  V16  1  0.37804663  0.88154883  0.49310732  1
  V  V17  1  0.54786934  0.71902699  0.70116358  1
  V  V18  1  0.87918062  0.12032786  0.24967074  1
  V  V19  1  0.12189832  0.11829553  0.51088808  1
  V  V20  1  0.62287236  -0.00375649  0.12778729  1
  V  V21  1  0.61478144  -0.01414342  0.62023819  1
  V  V22  1  0.25383008  0.12474608  0.87398056  1
  V  V23  1  0.24363658  0.00358194  0.74679190  1
  V  V24  1  0.75074715  -0.00765133  0.24429718  1
  V  V25  1  0.25196542  0.39580168  0.62867223  1
  V  V26  1  0.38041689  0.76005579  0.12413997  1
  V  V27  1  0.37604235  0.74180967  0.62598900  1
  V  V28  1  0.61086761  0.12759500  0.50513775  1
  V  V29  1  0.74276442  0.12066249  0.38102144  1
  V  V30  1  0.24555936  0.88364258  0.11307517  1
  V  V31  1  0.11776955  0.24932857  0.37846898  1
  V  V32  1  0.26529230  0.24799804  0.00476951  1
  V  V33  1  0.25917970  0.00054499  0.25228933  1
  V  V34  1  0.00297572  0.24984394  0.73324578  1
  V  V35  1  0.75443935  0.74379413  0.48880423  1
  V  V36  1  0.86474755  0.88584882  -0.01410910  1
  V  V37  1  0.37733334  0.12439828  0.25080135  1
  V  V38  1  0.61944050  0.12284335  0.00477323  1
  V  V39  1  0.62817772  0.85560914  0.24981117  1
  V  V40  1  0.37325391  0.39363835  0.00509915  1
  V  V41  1  0.74182369  0.61706346  0.88658771  1
  V  V42  1  0.12246001  0.86532143  0.75466747  1
  V  V43  1  0.12635092  0.75388713  0.37257927  1
  V  V44  1  0.37688173  0.38697422  0.49051720  1
  V  V45  1  0.37332154  0.61903633  0.75805365  1
  V  V46  1  0.00147994  0.88466169  0.38381140  1
  V  V47  1  0.74133934  0.26223367  0.01126206  1
  V  V48  1  0.24912866  0.88224879  0.62455062  1
  V  V49  1  0.87627424  0.61742906  0.74550185  1
  V  V50  1  0.10539514  0.50722181  0.12395879  1
  V  V51  1  0.38163329  0.12205257  0.75030749  1
  V  V52  1  0.11434186  0.25765248  0.87647680  1
  V  V53  1  0.25670938  0.12645552  0.38406334  1
  V  V54  1  0.36898819  0.62726668  0.24735779  1
  V  V55  1  0.12443335  0.88739946  0.24099879  1
  V  V56  1  0.24622052  0.75314092  0.50069976  1
  V  V57  1  0.61462455  0.25140500  0.88451621  1
  V  V58  1  -0.00344473  -0.00242640  -0.02230339  1
  V  V59  1  0.61376198  0.75069058  0.88438994  1
  V  V60  1  0.49530617  0.61248909  0.12927363  1
  V  V61  1  0.25328899  0.73861861  -0.00903745  1
  V  V62  1  0.63204284  0.86838486  0.75341859  1
  V  V63  1  0.62228624  0.37595159  0.74624644  1
  V  V64  1  0.11675658  0.61995004  0.51416429  1
  V  V65  1  0.50005259  0.86671290  0.35860260  1
  V  V66  1  0.51706788  0.50485157  0.49839905  1
  V  V67  1  0.49741657  0.12647131  0.12824552  1
  V  V68  1  0.25120390  0.62238633  0.37167800  1
  V  V69  1  0.11945393  0.12423778  0.00122184  1
  V  V70  1  0.48837038  0.38988118  0.88139709  1
  V  V71  1  0.11222023  0.36623364  0.25508778  1
  V  V72  1  0.49870671  0.26056795  0.25480248  1
  Zn  Zn73  1  0.84103566  0.28248982  0.61281038  1
  Zn  Zn74  1  0.12964987  0.74736400  0.87089674  1
  Zn  Zn75  1  0.75315219  0.12112381  0.88094262  1
  Zn  Zn76  1  0.48536257  0.89649696  0.89387293  1
  Zn  Zn77  1  -0.04840638  0.08071956  0.58973467  1
  Zn  Zn78  1  0.87553453  0.13073160  0.74815177  1
  Zn  Zn79  1  0.49166534  -0.00013777  0.48774535  1
  Zn  Zn80  1  0.24939573  0.59392482  0.87150381  1
  Zn  Zn81  1  0.25092494  0.36799562  0.13021273  1
  Zn  Zn82  1  0.18612235  0.18533964  0.18739161  1
  Zn  Zn83  1  0.19250144  0.19599584  0.68895940  1
  Zn  Zn84  1  0.18566835  0.69182979  0.17757262  1
  Zn  Zn85  1  0.16400374  0.65266099  0.71858180  1
  Zn  Zn86  1  0.68698409  0.18575969  0.19487198  1
  Zn  Zn87  1  0.67528434  0.19459667  0.69121810  1
  Zn  Zn88  1  0.65598174  0.64062658  0.23716544  1
  Zn  Zn89  1  0.72700864  0.69450695  0.69741892  1
  Zn  Zn90  1  0.30800654  0.30575123  0.31294748  1
  Zn  Zn91  1  0.30773317  0.31806888  0.81744367  1
  Zn  Zn92  1  0.31349680  0.81542584  0.30860212  1
  Zn  Zn93  1  0.32476887  0.81982985  0.81141391  1
  Zn  Zn94  1  0.82309294  0.29871249  0.33142964  1
  Zn  Zn95  1  0.81829153  0.29192549  0.82866600  1
  Zn  Zn96  1  0.82044722  0.81442031  0.30964807  1
  Zn  Zn97  1  0.80753718  0.80690296  0.81626359  1
  Zn  Zn98  1  0.19053811  0.43681411  0.43999757  1
  Zn  Zn99  1  0.18154430  0.43963525  0.94652070  1
  Zn  Zn100  1  0.19067671  0.94267750  0.43326842  1
  Zn  Zn101  1  0.18871189  0.94240936  0.93237534  1
  Zn  Zn102  1  0.63117786  0.47473912  0.37304547  1
  Zn  Zn103  1  0.68018835  0.43236145  0.94404470  1
  Zn  Zn104  1  0.68434099  0.93583386  0.43432356  1
  Zn  Zn105  1  0.67567444  0.94110482  0.93342099  1
  Zn  Zn106  1  0.30694981  0.07013687  0.07041121  1
  Zn  Zn107  1  0.31580859  0.06594967  0.56666027  1
  Zn  Zn108  1  0.29960291  0.56278564  0.06884169  1
  Zn  Zn109  1  0.31304614  0.56337911  0.55666773  1
  Zn  Zn110  1  0.80695836  0.06393687  0.06067186  1
  Zn  Zn111  1  0.77379890  0.11539669  0.59375903  1
  Zn  Zn112  1  0.82291472  0.57164450  0.06425724  1
  Zn  Zn113  1  0.84153955  0.49300304  0.59212317  1
  Zn  Zn114  1  0.43487366  0.43603286  0.18919025  1
  Zn  Zn115  1  0.44776378  0.44270994  0.67683773  1
  Zn  Zn116  1  0.43549359  0.94321173  0.06639720  1
  Zn  Zn117  1  0.44083812  0.91771092  0.70310056  1
  Zn  Zn118  1  0.93084014  0.43103219  0.20392473  1
  Zn  Zn119  1  0.92041808  0.40533830  0.72104797  1
  Zn  Zn120  1  0.93794236  0.93553801  0.17785327  1
  Zn  Zn121  1  0.94323786  0.94513400  0.72682755  1
  Zn  Zn122  1  0.06634631  0.06517231  0.31431072  1
  Zn  Zn123  1  0.06589550  0.06960742  0.80616785  1
  Zn  Zn124  1  0.07235109  0.56942960  0.29866271  1
  Zn  Zn125  1  0.05579001  0.56832939  0.83228025  1
  Zn  Zn126  1  0.55734065  0.05324032  0.31308468  1
  Zn  Zn127  1  0.56874350  0.06321687  0.80873829  1
  Zn  Zn128  1  0.52051558  0.58776887  0.34648026  1
  Zn  Zn129  1  0.55680753  0.56544927  0.81910715  1
  Zn  Zn130  1  0.43719023  0.19418354  0.43643332  1
  Zn  Zn131  1  0.43788715  0.07268276  0.93562332  1
  Zn  Zn132  1  0.43505092  0.69541884  0.43875657  1
  Zn  Zn133  1  0.43392318  0.68256319  0.94404112  1
  Zn  Zn134  1  0.94425255  0.18246093  0.43478699  1
  Zn  Zn135  1  0.93264350  0.18937643  0.93496840  1
  Zn  Zn136  1  0.94393235  0.68609282  0.43000137  1
  Zn  Zn137  1  0.91679211  0.68695350  0.93759660  1
  Zn  Zn138  1  0.06243596  0.30678896  0.07221161  1
  Zn  Zn139  1  0.08507874  0.31012286  0.56480016  1
  Zn  Zn140  1  0.05736527  0.80475437  0.04312147  1
  Zn  Zn141  1  0.06582199  0.93938515  0.57202941  1
  Zn  Zn142  1  0.55485407  0.31841375  0.07141398  1
  Zn  Zn143  1  0.55826788  0.31562238  0.56023228  1
  Zn  Zn144  1  0.56145495  0.81149132  0.06931796  1
  Zn  Zn145  1  0.56438316  0.81243936  0.55058113  1
  O  O146  1  0.11215065  0.13470323  0.11070697  1
  O  O147  1  0.13957629  0.13342400  0.60821241  1
  O  O148  1  0.12201620  0.60781471  0.13464535  1
  O  O149  1  0.12974354  0.62947163  0.61363295  1
  O  O150  1  0.61903565  0.11890560  0.12445235  1
  O  O151  1  0.61633157  0.11779980  0.60876990  1
  O  O152  1  0.60766269  0.62819104  0.12837226  1
  O  O153  1  0.61798835  0.67441162  0.64636827  1
  O  O154  1  0.36364374  0.36100822  0.39514652  1
  O  O155  1  0.38258806  0.37304354  0.88491508  1
  O  O156  1  0.38396342  0.86884605  0.38054461  1
  O  O157  1  0.41134897  0.88803422  0.81104807  1
  O  O158  1  0.86846839  0.32582261  0.43634249  1
  O  O159  1  0.86676617  0.38239894  0.89574175  1
  O  O160  1  0.89000091  0.88759820  0.37196865  1
  O  O161  1  0.87376684  0.86961453  0.88575552  1
  O  O162  1  0.24449077  0.01534789  0.36350014  1
  O  O163  1  0.24870091  0.01682065  0.86552148  1
  O  O164  1  0.24266901  0.51281863  0.36269858  1
  O  O165  1  0.25302012  0.48392758  0.87788793  1
  O  O166  1  0.76371044  0.00050127  0.37036395  1
  O  O167  1  0.73365970  0.00501432  0.85835681  1
  O  O168  1  0.78122541  0.46106725  0.29365387  1
  O  O169  1  0.75040163  0.50569034  0.88678978  1
  O  O170  1  0.23443782  0.49454522  0.13656912  1
  O  O171  1  0.25798796  0.49480082  0.63206289  1
  O  O172  1  0.25060599  0.98945544  0.13478052  1
  O  O173  1  0.25657832  0.99329597  0.63349772  1
  O  O174  1  0.77058430  0.54489182  0.16551243  1
  O  O175  1  0.74133338  0.49465760  0.65297605  1
  O  O176  1  0.74100444  1.00488216  0.13624138  1
  O  O177  1  0.72927094  1.01105521  0.63980500  1
  O  O178  1  0.01411009  0.37082793  0.26251209  1
  O  O179  1  0.02513939  0.36558891  0.74764671  1
  O  O180  1  0.01022294  0.87586212  0.25257068  1
  O  O181  1  0.02220226  0.87336219  0.75573977  1
  O  O182  1  0.49057442  0.35936475  0.25069774  1
  O  O183  1  0.50085874  0.37496627  0.76352534  1
  O  O184  1  0.51561216  0.86466273  0.25500457  1
  O  O185  1  0.53375491  0.83207471  0.72470155  1
  O  O186  1  0.49232125  0.12587092  0.24798636  1
  O  O187  1  0.48705147  0.13602600  0.75568896  1
  O  O188  1  0.48175040  0.62518478  0.24094036  1
  O  O189  1  0.50029437  0.64298985  0.75273193  1
  O  O190  1  0.98915137  0.11229637  0.23999048  1
  O  O191  1  0.99772042  0.14531496  0.75214827  1
  O  O192  1  1.00285614  0.65089113  0.25521477  1
  O  O193  1  0.97311907  0.62253309  0.76799656  1
  O  O194  1  0.36149738  0.24155766  -0.00095562  1
  O  O195  1  0.38517885  0.25825754  0.51877330  1
  O  O196  1  0.36631849  0.74637511  0.01569744  1
  O  O197  1  0.36411592  0.75956097  0.50371932  1
  O  O198  1  0.86367560  0.26146359  0.00799876  1
  O  O199  1  0.87537708  0.26214188  0.48735612  1
  O  O200  1  0.86257938  0.76719806  0.00106024  1
  O  O201  1  0.85870748  0.74808509  0.49059195  1
  O  O202  1  0.12846624  0.23873407  0.48652458  1
  O  O203  1  0.12385506  0.24566886  0.98861426  1
  O  O204  1  0.13620052  0.74448088  0.48598883  1
  O  O205  1  0.15314055  0.76513239  0.99194460  1
  O  O206  1  0.61012612  0.23520397  0.48922724  1
  O  O207  1  0.62358876  0.24612961  1.00451107  1
  O  O208  1  0.64927876  0.74969537  0.49514903  1
  O  O209  1  0.63124134  0.74540474  1.00312744  1
  O  O210  1  0.50827548  0.23739759  0.14509485  1
  O  O211  1  0.48685099  0.26286066  0.64366651  1
  O  O212  1  0.48218836  0.74548926  0.12740759  1
  O  O213  1  0.48639791  0.74621326  0.61147020  1
  O  O214  1  0.98205793  0.23341702  0.11837106  1
  O  O215  1  1.01322509  0.25309261  0.63344110  1
  O  O216  1  1.00058411  0.76183459  0.13520628  1
  O  O217  1  0.95598384  0.76737907  0.62880404  1
  O  O218  1  0.01802281  0.24255766  0.37062767  1
  O  O219  1  0.01287647  0.25269702  0.87183456  1
  O  O220  1  0.00697494  0.76825689  0.36330923  1
  O  O221  1  0.01508580  0.74235912  0.89800124  1
  O  O222  1  0.51155753  0.24619078  0.36545913  1
  O  O223  1  0.50495103  0.26224558  0.86558355  1
  O  O224  1  0.50264967  0.76553629  0.37944557  1
  O  O225  1  0.51381574  0.74437878  0.88559703  1
  O  O226  1  0.24523924  0.11856973  0.48796401  1
  O  O227  1  0.23855111  0.13285664  0.99539207  1
  O  O228  1  0.24586140  0.63555261  0.48924969  1
  O  O229  1  0.25167470  0.63473229  0.99092780  1
  O  O230  1  0.72874399  0.11328037  0.48706734  1
  O  O231  1  0.73808305  0.13821340  1.00053493  1
  O  O232  1  0.74988848  0.64196899  0.47529107  1
  O  O233  1  0.73681366  0.63280330  1.00641396  1
  O  O234  1  0.26164237  0.36073116  -0.00129226  1
  O  O235  1  0.25940577  0.38207763  0.51846156  1
  O  O236  1  0.25155426  0.88522902  0.01232830  1
  O  O237  1  0.25475765  0.87186107  0.50203933  1
  O  O238  1  0.74603320  0.36523820  0.01216384  1
  O  O239  1  0.77201925  0.45427049  0.45172543  1
  O  O240  1  0.75634467  0.87413550  -0.00603364  1
  O  O241  1  0.75051520  0.85264992  0.48916418  1
  O  O242  1  0.13055402  0.48379877  0.24882662  1
  O  O243  1  0.11642056  0.49049590  0.75942800  1
  O  O244  1  0.13401997  0.99321759  0.25066089  1
  O  O245  1  0.13835473  0.99626433  0.75169026  1
  O  O246  1  0.70855067  0.44250040  0.27896988  1
  O  O247  1  0.62982012  0.49098564  0.76626063  1
  O  O248  1  0.63498843  0.99716834  0.24340092  1
  O  O249  1  0.62488867  0.98668640  0.74008398  1
  O  O250  1  0.36282430  0.01206723  0.25283970  1
  O  O251  1  0.36848938  0.02185192  0.73901824  1
  O  O252  1  0.36090707  0.51276817  0.24091552  1
  O  O253  1  0.39831007  0.52328438  0.74159765  1
  O  O254  1  0.86726409  0.00423460  0.24862431  1
  O  O255  1  0.85284966  0.00663209  0.74813358  1
  O  O256  1  0.92659195  0.50138822  0.33155644  1
  O  O257  1  0.85901989  0.49551690  0.77535641  1
  O  O258  1  0.13617075  0.35959020  0.36976505  1
  O  O259  1  0.13363429  0.36206224  0.86539008  1
  O  O260  1  0.11939400  0.87376087  0.36425365  1
  O  O261  1  0.14136497  0.87084620  0.85864576  1
  O  O262  1  0.63534712  0.35522660  0.38577065  1
  O  O263  1  0.60590159  0.37069545  0.87889305  1
  O  O264  1  0.61785929  0.87629204  0.35898414  1
  O  O265  1  0.61835259  0.86549227  0.86758635  1
  O  O266  1  0.38462790  0.12508995  0.13930196  1
  O  O267  1  0.36866444  0.14315828  0.63642353  1
  O  O268  1  0.37890302  0.63267406  0.12760185  1
  O  O269  1  0.37095034  0.63939410  0.62055361  1
  O  O270  1  0.87786076  0.12748578  0.13144469  1
  O  O271  1  0.87476716  0.14876936  0.63277683  1
  O  O272  1  0.89262398  0.65529705  0.09925976  1
  O  O273  1  0.87266858  0.59121171  0.64742342  1
  O  O274  1  0.24272422  0.24836675  0.10867059  1
  O  O275  1  0.26414458  0.26350615  0.62907391  1
  O  O276  1  0.25526575  0.75982171  0.11121001  1
  O  O277  1  0.26087858  0.76130118  0.61150271  1
  O  O278  1  0.76102431  0.24117874  0.12358359  1
  O  O279  1  0.74169621  0.23134803  0.61100872  1
  O  O280  1  0.76761771  0.75402043  0.11678742  1
  O  O281  1  0.75949328  0.73775312  0.59224361  1
  O  O282  1  0.23997446  0.23016990  0.36895768  1
  O  O283  1  0.24171042  0.24211157  0.88494245  1
  O  O284  1  0.24254875  0.74956406  0.37822388  1
  O  O285  1  0.26990654  0.76023645  0.89034821  1
  O  O286  1  0.73367167  0.23277634  0.36713504  1
  O  O287  1  0.72501459  0.25993727  0.89180372  1
  O  O288  1  0.75133180  0.75530743  0.38347309  1
  O  O289  1  0.74014417  0.73693920  0.89309869  1
  O  O290  1  -0.00032327  0.11878523  0.00013671  1
  O  O291  1  0.01554373  0.12485798  0.50393418  1
  O  O292  1  0.02166665  0.70393906  -0.02254892  1
  O  O293  1  0.01772270  0.63636139  0.49458949  1
  O  O294  1  0.51150779  0.13213514  0.01499337  1
  O  O295  1  0.50740610  0.11590654  0.48932153  1
  O  O296  1  0.51035099  0.62925579  0.01668258  1
  O  O297  1  0.49907328  0.60715673  0.46528707  1
  O  O298  1  0.48360292  0.38388153  0.50506944  1
  O  O299  1  0.48237338  0.37016069  0.99153690  1
  O  O300  1  0.49134022  0.87563564  0.49078383  1
  O  O301  1  0.49624180  0.87286583  1.00321328  1
  O  O302  1  1.01635674  0.38699618  0.49161512  1
  O  O303  1  0.98766001  0.36710620  1.00228333  1
  O  O304  1  1.01378829  0.88013451  0.48185791  1
  O  O305  1  0.99523072  0.89391018  0.99158016  1
  O  O306  1  0.51098901  0.47798444  0.38108147  1
  O  O307  1  0.49798696  0.48896433  0.88045563  1
  O  O308  1  0.49967493  0.97750559  0.37291771  1
  O  O309  1  0.51524450  1.00711451  0.88686499  1
  O  O310  1  0.98862100  0.51766944  0.37076362  1
  O  O311  1  0.97830029  0.50287192  0.88569094  1
  O  O312  1  0.99039521  0.99461940  0.36990186  1
  O  O313  1  0.99267255  1.01199934  0.87790709  1
  O  O314  1  -0.00618251  0.01242989  0.10689067  1
  O  O315  1  -0.00682034  -0.00842512  0.63764237  1
  O  O316  1  0.00565504  0.49728884  0.14815652  1
  O  O317  1  -0.01718179  0.44625499  0.52202172  1
  O  O318  1  0.51281786  0.01317020  0.12855316  1
  O  O319  1  0.51231100  -0.01324866  0.63231408  1
  O  O320  1  0.49099472  0.51429984  0.12581845  1
  O  O321  1  0.49768673  0.50795017  0.59980780  1
  O  O322  1  0.24949849  0.38222643  0.25039073  1
  O  O323  1  0.24059649  0.37466810  0.74210778  1
  O  O324  1  0.24312695  0.88311696  0.24422293  1
  O  O325  1  0.25081956  0.88717543  0.74148849  1
  O  O326  1  0.83565445  0.39693737  0.27009218  1
  O  O327  1  0.73717456  0.38168376  0.77017881  1
  O  O328  1  0.74100143  0.88338837  0.25863443  1
  O  O329  1  0.74084126  0.88303189  0.75334167  1
  O  O330  1  0.25643394  0.11954996  0.25268875  1
  O  O331  1  0.25616753  0.12367541  0.75577977  1
  O  O332  1  0.24999927  0.61873108  0.25203047  1
  O  O333  1  0.27248057  0.62087520  0.74656527  1
  O  O334  1  0.75670903  0.11143514  0.26144318  1
  O  O335  1  0.73370437  0.11417046  0.75551721  1
  O  O336  1  0.76857660  0.60649203  0.21311785  1
  O  O337  1  0.74732753  0.60184333  0.77054015  1
  O  O338  1  0.36232313  0.12901643  0.37220668  1
  O  O339  1  0.36533341  0.13233038  0.86029593  1
  O  O340  1  0.35886462  0.63941593  0.36099848  1
  O  O341  1  0.37639261  0.62901257  0.86194446  1
  O  O342  1  0.87050682  0.11376205  0.37005856  1
  O  O343  1  0.85441244  0.17103874  0.85525770  1
  O  O344  1  0.86366196  0.65472902  0.36362733  1
  O  O345  1  0.85803090  0.60821331  0.88481225  1
  O  O346  1  0.12464152  0.37334985  0.14380005  1
  O  O347  1  0.14160438  0.37968071  0.63589597  1
  O  O348  1  0.13898425  0.86933743  0.12955195  1
  O  O349  1  0.14238549  0.87803676  0.63462646  1
  O  O350  1  0.59745823  0.40077218  0.13100428  1
  O  O351  1  0.61624857  0.36774538  0.64685581  1
  O  O352  1  0.62105200  0.88386903  0.13991988  1
  O  O353  1  0.63247675  0.88254534  0.62261623  1
  O  O354  1  0.13111028  0.25859993  0.25932611  1
  O  O355  1  0.11914291  0.25031974  0.76146152  1
  O  O356  1  0.11919763  0.76278561  0.25324914  1
  O  O357  1  0.13836126  0.76498863  0.74440099  1
  O  O358  1  0.61365076  0.24582953  0.26359617  1
  O  O359  1  0.61327214  0.25743893  0.76385542  1
  O  O360  1  0.64212032  0.75770848  0.24307649  1
  O  O361  1  0.64138357  0.74817297  0.77005955  1
  O  O362  1  0.38884595  0.23774759  0.26067381  1
  O  O363  1  0.37629119  0.24710633  0.74559420  1
  O  O364  1  0.35702850  0.73910945  0.23204258  1
  O  O365  1  0.37543102  0.74120517  0.73020919  1
  O  O366  1  0.86823002  0.23085822  0.24650371  1
  O  O367  1  0.89880537  0.28254553  0.74362264  1
  O  O368  1  0.88839027  0.76473721  0.23252022  1
  O  O369  1  0.83754748  0.71796853  0.74825157  1
  O  O370  1  0.37325117  0.49005147  0.49120118  1
  O  O371  1  0.36640704  0.49243639  1.00269022  1
  O  O372  1  0.37423740  0.98621224  0.50714387  1
  O  O373  1  0.37256705  1.01121214  1.00272559  1
  O  O374  1  0.82510883  0.50180632  0.47410923  1
  O  O375  1  0.86755714  0.48501382  1.00363307  1
  O  O376  1  0.87883425  1.00778375  0.48845802  1
  O  O377  1  0.87843665  0.99438832  0.99546471  1
  O  O378  1  0.10959135  0.01370688  -0.01315938  1
  O  O379  1  0.12734918  0.01156804  0.50151421  1
  O  O380  1  0.11430452  0.48388335  0.02494873  1
  O  O381  1  0.13169155  0.52189823  0.49074117  1
  O  O382  1  0.63636831  0.01250277  0.01555994  1
  O  O383  1  0.62006494  0.00087594  0.50925656  1
  O  O384  1  0.62945328  0.51515915  0.01135911  1
  O  O385  1  0.61633678  0.49140783  0.49394427  1
  O  O386  1  0.37266715  0.37615254  0.10913718  1
  O  O387  1  0.36620548  0.37166138  0.62526792  1
  O  O388  1  0.36171067  0.86513299  0.12937958  1
  O  O389  1  0.36881221  0.86489297  0.61717455  1
  O  O390  1  0.88088182  0.36397564  0.11883355  1
  O  O391  1  0.87981858  0.39001397  0.61720335  1
  O  O392  1  0.88435359  0.86661785  0.10136524  1
  O  O393  1  0.91469490  0.82768083  0.63615005  1
  O  O394  1  0.13307057  0.13098321  0.38206603  1
  O  O395  1  0.13189384  0.13771886  0.88123609  1
  O  O396  1  0.13528617  0.63994084  0.36925591  1
  O  O397  1  0.14389001  0.63587416  0.83777682  1
  O  O398  1  0.62845177  0.12061826  0.38226273  1
  O  O399  1  0.62065923  0.13854958  0.88848932  1
  O  O400  1  0.63308775  0.58452046  0.32942502  1
  O  O401  1  0.62610601  0.62809500  0.89651943  1
