# generated using pymatgen
data_V73Zn73O256
_symmetry_space_group_name_H-M   'P 1'
_cell_length_a   16.88198165
_cell_length_b   16.96574530
_cell_length_c   16.87248875
_cell_angle_alpha   89.81043408
_cell_angle_beta   90.12326037
_cell_angle_gamma   89.61955068
_symmetry_Int_Tables_number   1
_chemical_formula_structural   V73Zn73O256
_chemical_formula_sum   'V73 Zn73 O256'
_cell_volume   4832.39623036
_cell_formula_units_Z   1
loop_
 _symmetry_equiv_pos_site_id
 _symmetry_equiv_pos_as_xyz
  1  'x, y, z'
loop_
 _atom_site_type_symbol
 _atom_site_label
 _atom_site_symmetry_multiplicity
 _atom_site_fract_x
 _atom_site_fract_y
 _atom_site_fract_z
 _atom_site_occupancy
  V  V0  1  0.86577461  0.76059397  0.61851585  1
  V  V1  1  0.49892620  0.25018413  0.24685703  1
  V  V2  1  0.51198755  0.75434370  0.75578897  1
  V  V3  1  0.74800870  0.36758010  0.62435321  1
  V  V4  1  0.10625111  0.62357326  -0.01968970  1
  V  V5  1  0.25706062  0.12319859  0.37003345  1
  V  V6  1  0.85850576  0.36553583  -0.00339500  1
  V  V7  1  0.75632741  0.12729160  0.88209566  1
  V  V8  1  0.63099008  0.62471054  0.49418466  1
  V  V9  1  0.13266053  0.00001288  0.63044169  1
  V  V10  1  0.63252176  -0.02000374  0.12948551  1
  V  V11  1  0.50433951  0.11148904  0.62040000  1
  V  V12  1  0.26609491  0.50664798  0.76415771  1
  V  V13  1  0.88685209  0.24634957  0.63640321  1
  V  V14  1  0.88190483  -0.00068089  0.86372779  1
  V  V15  1  0.51680381  0.12724757  0.12014838  1
  V  V16  1  0.36680800  0.24802128  0.62485189  1
  V  V17  1  0.00099340  -0.01007481  0.49669798  1
  V  V18  1  0.12611446  0.38434701  0.23657034  1
  V  V19  1  0.25451290  -0.00069052  0.24924246  1
  V  V20  1  0.23554078  0.74041240  -0.01376353  1
  V  V21  1  0.61800287  0.76240750  0.36184949  1
  V  V22  1  -0.00168890  0.12998988  0.13061274  1
  V  V23  1  0.62357572  0.25277830  0.37513347  1
  V  V24  1  0.49660976  0.62220688  0.63701026  1
  V  V25  1  0.37896568  0.74768832  0.63095639  1
  V  V26  1  0.38195504  0.88910728  0.49757424  1
  V  V27  1  0.50088580  0.24872746  0.74708883  1
  V  V28  1  0.13079967  0.25232246  0.37384595  1
  V  V29  1  0.38430028  0.11542369  0.24295018  1
  V  V30  1  0.25573896  0.88270492  0.63469663  1
  V  V31  1  0.75937142  0.75800323  0.01651448  1
  V  V32  1  0.44554981  0.55165227  0.44860066  1
  V  V33  1  0.47699341  0.75231742  0.23936237  1
  V  V34  1  -0.00239725  0.25109849  0.25161336  1
  V  V35  1  0.12810242  0.12839177  0.49653700  1
  V  V36  1  0.24078707  0.74098721  0.50919995  1
  V  V37  1  0.24880846  0.87386592  0.12629579  1
  V  V38  1  0.37444631  0.36391146  0.49127496  1
  V  V39  1  0.62187286  0.24082107  0.88625675  1
  V  V40  1  0.73811707  0.77238589  0.50292235  1
  V  V41  1  -0.00722046  -0.00418657  0.00558366  1
  V  V42  1  0.64114210  0.61740941  0.00327067  1
  V  V43  1  -0.00067959  0.38731301  0.37661044  1
  V  V44  1  0.73382320  -0.00713580  0.73845632  1
  V  V45  1  0.11173751  0.51753033  0.11962642  1
  V  V46  1  0.88037676  -0.01214571  0.37641330  1
  V  V47  1  0.49731332  0.37567717  0.37209331  1
  V  V48  1  0.12223236  0.38151604  0.75483138  1
  V  V49  1  0.47427508  0.49851700  -0.03227242  1
  V  V50  1  0.86762427  0.62387770  0.74169128  1
  V  V51  1  0.75417333  -0.01670537  0.24921727  1
  V  V52  1  0.36193003  0.11196811  0.75652991  1
  V  V53  1  0.61867187  0.49643896  0.61999099  1
  V  V54  1  0.51642219  0.00134280  -0.00395750  1
  V  V55  1  0.52885727  0.87578148  0.87736163  1
  V  V56  1  0.37009474  0.72380813  0.11470118  1
  V  V57  1  0.87973344  0.50123227  0.87496667  1
  V  V58  1  0.00550497  0.62349442  0.61622875  1
  V  V59  1  0.33458156  0.31510324  0.00980900  1
  V  V60  1  0.62012759  0.37038120  0.75498240  1
  V  V61  1  0.62423101  0.11298152  0.50174915  1
  V  V62  1  0.86216342  0.25131468  0.12443088  1
  V  V63  1  0.33830457  0.91523650  -0.02073847  1
  V  V64  1  0.13080989  0.13295571  -0.00527673  1
  V  V65  1  0.76069298  0.12964981  0.36951349  1
  V  V66  1  0.74739154  0.49906745  0.75591241  1
  V  V67  1  0.00248094  0.35859274  0.88090713  1
  V  V68  1  0.87378867  0.38109649  0.49934548  1
  V  V69  1  0.24755831  0.38032503  0.62419940  1
  V  V70  1  0.02380980  0.49374818  0.51058374  1
  V  V71  1  0.12644252  -0.00517295  0.13230583  1
  V  V72  1  0.25523943  0.51205393  0.24786143  1
  Zn  Zn73  1  0.65763780  0.73457152  0.86866640  1
  Zn  Zn74  1  -0.00387969  0.12269874  0.64083505  1
  Zn  Zn75  1  0.75305064  0.24547745  0.50238592  1
  Zn  Zn76  1  0.12782255  0.86274798  0.76513097  1
  Zn  Zn77  1  0.87774955  0.86844041  0.01548335  1
  Zn  Zn78  1  0.81218646  0.55022202  0.30050109  1
  Zn  Zn79  1  0.00775537  0.74738997  0.76498228  1
  Zn  Zn80  1  0.48971565  0.89670804  0.35342826  1
  Zn  Zn81  1  0.10138186  0.77176494  0.36951599  1
  Zn  Zn82  1  0.20860646  0.17729050  0.14829073  1
  Zn  Zn83  1  0.15939890  0.16710931  0.71756952  1
  Zn  Zn84  1  0.18002572  0.68765668  0.18423634  1
  Zn  Zn85  1  0.18874461  0.68839945  0.69854920  1
  Zn  Zn86  1  0.68437183  0.18450608  0.19164979  1
  Zn  Zn87  1  0.69320575  0.17758186  0.69351532  1
  Zn  Zn88  1  0.67919819  0.68633617  0.18304299  1
  Zn  Zn89  1  0.68482943  0.68736501  0.68248605  1
  Zn  Zn90  1  0.28873879  0.28781527  0.25506312  1
  Zn  Zn91  1  0.31453793  0.31353018  0.81572414  1
  Zn  Zn92  1  0.27412063  0.82960737  0.33467086  1
  Zn  Zn93  1  0.34642112  0.76237247  0.84228729  1
  Zn  Zn94  1  0.81392844  0.31683317  0.31257635  1
  Zn  Zn95  1  0.80769535  0.30961964  0.81390053  1
  Zn  Zn96  1  0.90082403  0.78037656  0.40543373  1
  Zn  Zn97  1  0.82437768  0.81673156  0.82087902  1
  Zn  Zn98  1  0.19682169  0.43539069  0.42833433  1
  Zn  Zn99  1  0.18921669  0.43578221  0.94123814  1
  Zn  Zn100  1  0.18893313  0.93317740  0.44518690  1
  Zn  Zn101  1  0.17121715  0.97125100  0.92209989  1
  Zn  Zn102  1  0.68381189  0.43554453  0.43744625  1
  Zn  Zn103  1  0.65085330  0.41354967  0.96225454  1
  Zn  Zn104  1  0.68177100  0.93904981  0.42866658  1
  Zn  Zn105  1  0.70115871  0.93947047  0.93802348  1
  Zn  Zn106  1  0.33675758  0.09520864  0.03541414  1
  Zn  Zn107  1  0.31248525  0.06899339  0.56131299  1
  Zn  Zn108  1  0.29662309  0.55296896  0.05647067  1
  Zn  Zn109  1  0.30963155  0.56252526  0.57614389  1
  Zn  Zn110  1  0.80794996  0.06832669  0.06742202  1
  Zn  Zn111  1  0.81543748  0.06297985  0.56267077  1
  Zn  Zn112  1  0.78440683  0.53902623  0.04363188  1
  Zn  Zn113  1  0.80803800  0.56027936  0.56269466  1
  Zn  Zn114  1  0.41420962  0.41502427  0.17686847  1
  Zn  Zn115  1  0.43583781  0.43312370  0.68768265  1
  Zn  Zn116  1  0.43377944  0.93465461  0.17031061  1
  Zn  Zn117  1  0.44214211  0.93458611  0.69504517  1
  Zn  Zn118  1  0.93709068  0.43446186  0.17739525  1
  Zn  Zn119  1  0.93832494  0.43397218  0.68681895  1
  Zn  Zn120  1  0.93794999  0.93539598  0.19216791  1
  Zn  Zn121  1  0.94853050  0.92961352  0.68590206  1
  Zn  Zn122  1  0.06394754  0.06391838  0.31240570  1
  Zn  Zn123  1  0.05992961  0.06520388  0.81703939  1
  Zn  Zn124  1  0.22939641  0.62402719  0.37592250  1
  Zn  Zn125  1  0.05750556  0.55568115  0.80106680  1
  Zn  Zn126  1  0.56974487  0.05944079  0.31144808  1
  Zn  Zn127  1  0.56707212  0.06323888  0.80758821  1
  Zn  Zn128  1  0.55560083  0.57419305  0.30423159  1
  Zn  Zn129  1  0.56325028  0.56210901  0.81749342  1
  Zn  Zn130  1  0.43741491  0.18218182  0.43440701  1
  Zn  Zn131  1  0.44107071  0.18224661  0.93145165  1
  Zn  Zn132  1  0.39967592  0.73368279  0.40881651  1
  Zn  Zn133  1  0.45587455  0.67486209  0.94121134  1
  Zn  Zn134  1  0.94217398  0.19226654  0.44647153  1
  Zn  Zn135  1  0.93894585  0.18386661  0.93933728  1
  Zn  Zn136  1  1.01682154  0.62518116  0.38831838  1
  Zn  Zn137  1  0.92167882  0.68807332  0.93627860  1
  Zn  Zn138  1  0.06208674  0.31042404  0.05853705  1
  Zn  Zn139  1  0.06824169  0.30974365  0.56250619  1
  Zn  Zn140  1  0.05754266  0.81622976  -0.07097584  1
  Zn  Zn141  1  0.05672742  0.81386743  0.58644478  1
  Zn  Zn142  1  0.51746950  0.31846199  0.05203659  1
  Zn  Zn143  1  0.55801347  0.30667998  0.55912042  1
  Zn  Zn144  1  0.56627098  0.80186791  0.05878853  1
  Zn  Zn145  1  0.56105887  0.81834418  0.56952463  1
  O  O146  1  0.11143043  0.11969780  0.12419165  1
  O  O147  1  0.14120515  0.10954639  0.60884120  1
  O  O148  1  0.11142601  0.62007722  0.11992986  1
  O  O149  1  0.10220147  0.63611224  0.62825439  1
  O  O150  1  0.62094655  0.11327877  0.12981742  1
  O  O151  1  0.61593371  0.13160274  0.61260512  1
  O  O152  1  0.61751390  0.63389312  0.10178332  1
  O  O153  1  0.61633847  0.61497817  0.61613773  1
  O  O154  1  0.37856269  0.37124902  0.38936586  1
  O  O155  1  0.36990855  0.33670532  0.91477334  1
  O  O156  1  0.37500730  0.86091419  0.39259886  1
  O  O157  1  0.37618659  0.86724051  0.89920299  1
  O  O158  1  0.89249432  0.36554207  0.38608984  1
  O  O159  1  0.88089271  0.37327344  0.88055239  1
  O  O160  1  0.87476738  0.88995534  0.38318599  1
  O  O161  1  0.87719441  0.90101481  0.89127130  1
  O  O162  1  0.24367112  0.01234916  0.35927041  1
  O  O163  1  0.27871488  -0.01011996  0.94334383  1
  O  O164  1  0.24305401  0.51024468  0.35865616  1
  O  O165  1  0.25065475  0.49230713  0.86353087  1
  O  O166  1  0.76018478  0.00842873  0.37135807  1
  O  O167  1  0.76500165  0.00969464  0.86941452  1
  O  O168  1  0.76219174  0.46170525  0.35482256  1
  O  O169  1  0.76473823  0.48602402  0.85744950  1
  O  O170  1  0.22824624  0.50427205  0.13715973  1
  O  O171  1  0.25114358  0.48260752  0.63126077  1
  O  O172  1  0.24160672  0.99527683  0.13298526  1
  O  O173  1  0.24552120  0.99254441  0.62030090  1
  O  O174  1  0.78645667  0.50019894  0.15105688  1
  O  O175  1  0.73838184  0.48723893  0.63212742  1
  O  O176  1  0.74520404  1.00257014  0.13829541  1
  O  O177  1  0.75814972  1.00842362  0.64074932  1
  O  O178  1  0.00418562  0.37706099  0.25858275  1
  O  O179  1  0.01840731  0.37230677  0.74896587  1
  O  O180  1  0.01336369  0.85970204  0.25174799  1
  O  O181  1  0.02495294  0.84752269  0.70033713  1
  O  O182  1  0.48279869  0.36282730  0.26181535  1
  O  O183  1  0.51003647  0.36126140  0.74160471  1
  O  O184  1  0.48867521  0.86181582  0.24035446  1
  O  O185  1  0.50102675  0.86974108  0.76901781  1
  O  O186  1  0.50195597  0.12997756  0.24321009  1
  O  O187  1  0.49972192  0.13060903  0.73423844  1
  O  O188  1  0.50510045  0.65386030  0.24374730  1
  O  O189  1  0.50853365  0.63445100  0.74218097  1
  O  O190  1  1.00268323  0.14016497  0.24453417  1
  O  O191  1  1.05004177  0.14251903  0.73854583  1
  O  O192  1  0.94318061  0.67227923  0.17326244  1
  O  O193  1  0.98629347  0.62252695  0.73321704  1
  O  O194  1  0.35649234  0.21140140  0.00520996  1
  O  O195  1  0.37745458  0.25806594  0.50617162  1
  O  O196  1  0.35836274  0.73638835  0.01012708  1
  O  O197  1  0.37107065  0.75716655  0.52210215  1
  O  O198  1  0.87431753  0.25714561  0.00829570  1
  O  O199  1  0.87331795  0.26300799  0.51103966  1
  O  O200  1  0.86621508  0.74862340  0.01413675  1
  O  O201  1  0.84610907  0.75305804  0.50438796  1
  O  O202  1  0.12324519  0.24279909  0.48558717  1
  O  O203  1  0.11386676  0.23208995  0.99334016  1
  O  O204  1  0.14236917  0.76117513  0.51391320  1
  O  O205  1  0.12544755  0.73786571  0.99269851  1
  O  O206  1  0.62787367  0.24344815  0.48870619  1
  O  O207  1  0.60675281  0.26396520  0.98275884  1
  O  O208  1  0.62691155  0.73514822  0.51184690  1
  O  O209  1  0.63972764  0.74153143  0.99327812  1
  O  O210  1  0.51902427  0.24150274  0.13599684  1
  O  O211  1  0.49090606  0.24327033  0.63110558  1
  O  O212  1  0.47721054  0.75587551  0.12296908  1
  O  O213  1  0.49847685  0.74129396  0.63497857  1
  O  O214  1  0.99483008  0.24633683  0.13292815  1
  O  O215  1  0.98941910  0.25336609  0.62259230  1
  O  O216  1  1.04691722  0.80832933  0.20083559  1
  O  O217  1  0.97439566  0.72841608  0.59975978  1
  O  O218  1  0.00772737  0.25730729  0.36874217  1
  O  O219  1  -0.00642217  0.26002662  0.87028823  1
  O  O220  1  0.00095353  0.73854013  0.40163452  1
  O  O221  1  -0.02750717  0.76565892  0.87154661  1
  O  O222  1  0.50526263  0.25516209  0.36930559  1
  O  O223  1  0.51322626  0.23857873  0.85940151  1
  O  O224  1  0.50119233  0.76028367  0.35660728  1
  O  O225  1  0.50668431  0.76593380  0.87324292  1
  O  O226  1  0.24215900  0.11929550  0.48208890  1
  O  O227  1  0.22681992  0.12509529  1.03257685  1
  O  O228  1  0.24619739  0.63821500  0.51837019  1
  O  O229  1  0.23115463  0.63644935  1.00481309  1
  O  O230  1  0.73974246  0.12578624  0.49254645  1
  O  O231  1  0.74740382  0.11800393  0.98287927  1
  O  O232  1  0.73344427  0.62132225  0.49715413  1
  O  O233  1  0.74865585  0.64036460  1.00327855  1
  O  O234  1  0.24133026  0.35574986  0.00583432  1
  O  O235  1  0.26286492  0.37975762  0.51044395  1
  O  O236  1  0.24649702  0.85477922  0.00759751  1
  O  O237  1  0.26550319  0.86463484  0.51089388  1
  O  O238  1  0.75951446  0.36927883  -0.00748440  1
  O  O239  1  0.75404850  0.37188531  0.50977639  1
  O  O240  1  0.75402317  0.86329541  0.00322745  1
  O  O241  1  0.73453570  0.87100876  0.50710606  1
  O  O242  1  0.12285099  0.49099771  0.23674063  1
  O  O243  1  0.13564344  0.48379993  0.74918239  1
  O  O244  1  0.13568187  1.00831529  0.24065915  1
  O  O245  1  0.12187120  0.99465539  0.72985152  1
  O  O246  1  0.65624338  0.54170733  0.25517627  1
  O  O247  1  0.62958680  0.48947338  0.74453943  1
  O  O248  1  0.64173616  0.99887645  0.24206964  1
  O  O249  1  0.63247926  0.99261935  0.74694565  1
  O  O250  1  0.36960570  0.00659609  0.24247586  1
  O  O251  1  0.37702643  0.01361822  0.74318187  1
  O  O252  1  0.35333988  0.48904676  0.23412052  1
  O  O253  1  0.36593240  0.49391933  0.74907443  1
  O  O254  1  0.86995320  0.00040770  0.26736236  1
  O  O255  1  0.90116187  -0.00076702  0.76419855  1
  O  O256  1  0.85527125  0.51739928  0.19610310  1
  O  O257  1  0.86663931  0.50200502  0.75038383  1
  O  O258  1  0.11499622  0.36941613  0.37285585  1
  O  O259  1  0.10931440  0.38224773  0.86893748  1
  O  O260  1  0.16598096  0.86074591  0.36398488  1
  O  O261  1  0.11080825  0.89735862  0.87079142  1
  O  O262  1  0.60718950  0.36646167  0.38442357  1
  O  O263  1  0.63297561  0.35842544  0.86037475  1
  O  O264  1  0.60986998  0.86432380  0.38206667  1
  O  O265  1  0.62860055  0.87050241  0.87420684  1
  O  O266  1  0.39994531  0.11665867  0.13507269  1
  O  O267  1  0.38679333  0.13127019  0.62570491  1
  O  O268  1  0.36847274  0.62649343  0.12155454  1
  O  O269  1  0.38847987  0.63246827  0.62474838  1
  O  O270  1  0.88363816  0.14305951  0.11968875  1
  O  O271  1  0.87939028  0.14250483  0.61990890  1
  O  O272  1  0.89419811  0.72213210  0.19280130  1
  O  O273  1  0.87657547  0.62322745  0.62915632  1
  O  O274  1  0.26663066  0.26796338  0.14611904  1
  O  O275  1  0.26465410  0.26063351  0.63049167  1
  O  O276  1  0.25767557  0.75585206  0.12497905  1
  O  O277  1  0.25798908  0.76007844  0.62533616  1
  O  O278  1  0.76318103  0.24773808  0.13589945  1
  O  O279  1  0.75483023  0.25752395  0.62694792  1
  O  O280  1  0.74509905  0.74949311  0.11748492  1
  O  O281  1  0.75589796  0.74503650  0.61463900  1
  O  O282  1  0.23707099  0.23892102  0.35373880  1
  O  O283  1  0.21140611  0.26061059  0.83887993  1
  O  O284  1  0.27337944  0.73267723  0.40110670  1
  O  O285  1  0.24206979  0.75304335  0.88824969  1
  O  O286  1  0.74541394  0.24104949  0.37359753  1
  O  O287  1  0.73741064  0.23683641  0.86943850  1
  O  O288  1  0.72182115  0.75511318  0.39737455  1
  O  O289  1  0.76712834  0.75014555  0.89065401  1
  O  O290  1  0.00730366  0.12142266  0.01305839  1
  O  O291  1  0.01617419  0.12053445  0.50298449  1
  O  O292  1  0.00707387  0.62776139  -0.00726595  1
  O  O293  1  -0.00125346  0.59921317  0.50657972  1
  O  O294  1  0.50500975  0.11619495  0.00840504  1
  O  O295  1  0.51071597  0.12976334  0.50932710  1
  O  O296  1  0.51246790  0.59167466  -0.00102402  1
  O  O297  1  0.50551786  0.61042736  0.51223691  1
  O  O298  1  0.48574214  0.37223456  0.49171428  1
  O  O299  1  0.53765296  0.41822699  1.00249203  1
  O  O300  1  0.48239459  0.87068981  0.50741568  1
  O  O301  1  0.51305509  0.88252613  0.98660460  1
  O  O302  1  0.99698600  0.38329302  0.50004640  1
  O  O303  1  0.99281153  0.37039464  0.98424944  1
  O  O304  1  1.00820734  0.89157792  0.50319435  1
  O  O305  1  1.00040950  0.89485856  1.00625293  1
  O  O306  1  0.50075091  0.49600473  0.37549427  1
  O  O307  1  0.48487380  0.49542684  0.86716028  1
  O  O308  1  0.50121797  1.00399404  0.37569742  1
  O  O309  1  0.51767035  0.98833376  0.88270641  1
  O  O310  1  1.00387642  0.49370354  0.39507796  1
  O  O311  1  0.98158564  0.48115111  0.85887439  1
  O  O312  1  0.99062719  1.00513369  0.38173983  1
  O  O313  1  0.98883623  1.01791856  0.89575759  1
  O  O314  1  0.00382648  0.01026187  0.12637654  1
  O  O315  1  0.01312391  0.00431731  0.61159180  1
  O  O316  1  0.01322060  0.49682240  0.12160994  1
  O  O317  1  -0.00044896  0.50493268  0.61717178  1
  O  O318  1  0.52029688  0.00309128  0.12077799  1
  O  O319  1  0.50047313  0.01371854  0.62636652  1
  O  O320  1  0.52748260  0.48939674  0.16479378  1
  O  O321  1  0.51197450  0.50509426  0.63632970  1
  O  O322  1  0.22868038  0.38852906  0.26092556  1
  O  O323  1  0.25085313  0.38489264  0.74069564  1
  O  O324  1  0.26752849  0.88673165  0.23514218  1
  O  O325  1  0.24694453  0.87406526  0.73294110  1
  O  O326  1  0.74653854  0.40714643  0.29037673  1
  O  O327  1  0.74025213  0.37783393  0.74022544  1
  O  O328  1  0.75431038  0.88896502  0.25937068  1
  O  O329  1  0.76856624  0.89865768  0.75976767  1
  O  O330  1  0.26420588  0.11655151  0.24671830  1
  O  O331  1  0.26328198  0.12664083  0.74011627  1
  O  O332  1  0.24678600  0.61628356  0.24844402  1
  O  O333  1  0.24938717  0.60338612  0.73767237  1
  O  O334  1  0.74874803  0.11977830  0.26762399  1
  O  O335  1  0.74545789  0.10711260  0.76589231  1
  O  O336  1  0.71155158  0.60192607  0.26152157  1
  O  O337  1  0.75585643  0.61109685  0.74015695  1
  O  O338  1  0.36513598  0.12853796  0.36350663  1
  O  O339  1  0.37921115  0.12459388  0.85555730  1
  O  O340  1  0.39021387  0.61668934  0.39686056  1
  O  O341  1  0.38057440  0.65608353  0.86268835  1
  O  O342  1  0.86263613  0.12575433  0.38519312  1
  O  O343  1  0.86497440  0.11937549  0.87766031  1
  O  O344  1  0.89458600  0.62146320  0.34329495  1
  O  O345  1  0.88036359  0.60533657  0.86090157  1
  O  O346  1  0.11812638  0.37692264  0.13475782  1
  O  O347  1  0.14121166  0.35952048  0.63838287  1
  O  O348  1  0.13945279  0.88949611  0.12065886  1
  O  O349  1  0.14530726  0.89232479  0.60837582  1
  O  O350  1  0.58859546  0.44780073  0.15590814  1
  O  O351  1  0.62864878  0.37749306  0.62849984  1
  O  O352  1  0.62403252  0.88219191  0.12819310  1
  O  O353  1  0.63831649  0.86861042  0.62939849  1
  O  O354  1  0.11041049  0.26785055  0.25678704  1
  O  O355  1  0.15859527  0.27116668  0.77709748  1
  O  O356  1  0.09869784  0.75839120  0.24001050  1
  O  O357  1  0.12360555  0.74739216  0.76460678  1
  O  O358  1  0.61620324  0.24511802  0.26588282  1
  O  O359  1  0.61855174  0.25336841  0.75065910  1
  O  O360  1  0.62751625  0.75528604  0.26199681  1
  O  O361  1  0.61744892  0.74524024  0.75504966  1
  O  O362  1  0.39276454  0.23290741  0.25203875  1
  O  O363  1  0.38477383  0.24397657  0.74319450  1
  O  O364  1  0.37419765  0.74727224  0.23419234  1
  O  O365  1  0.39228317  0.76166064  0.73698323  1
  O  O366  1  0.88567758  0.26784198  0.23512487  1
  O  O367  1  0.87368627  0.25786066  0.73551455  1
  O  O368  1  0.85771627  0.69260283  0.33092251  1
  O  O369  1  0.86920387  0.73845811  0.73170782  1
  O  O370  1  0.38088957  0.49271952  0.50481114  1
  O  O371  1  0.37721545  0.49794094  0.99805256  1
  O  O372  1  0.36968606  0.98794774  0.50151508  1
  O  O373  1  0.40549245  1.00040373  1.00838290  1
  O  O374  1  0.87167530  0.48332533  0.50505351  1
  O  O375  1  0.86893585  0.48515727  0.98111523  1
  O  O376  1  0.89163492  1.00795379  0.49185985  1
  O  O377  1  0.88770320  1.00783886  1.00755841  1
  O  O378  1  0.10842904  0.01039627  0.01779615  1
  O  O379  1  0.11674519  0.00819721  0.49676689  1
  O  O380  1  0.13076649  0.51330120  0.01022974  1
  O  O381  1  0.12228405  0.48761880  0.50697232  1
  O  O382  1  0.62802907  -0.00517060  0.01589278  1
  O  O383  1  0.62793691  0.01521492  0.49727631  1
  O  O384  1  0.67105220  0.51485952  0.00678763  1
  O  O385  1  0.62871582  0.50858683  0.50873961  1
  O  O386  1  0.40470687  0.35530974  0.08166391  1
  O  O387  1  0.36915597  0.36690077  0.61643812  1
  O  O388  1  0.35753128  0.88593715  0.09443094  1
  O  O389  1  0.36892515  0.87411015  0.62197108  1
  O  O390  1  0.87941603  0.36379898  0.10525493  1
  O  O391  1  0.86633478  0.36755872  0.62076934  1
  O  O392  1  0.87003407  0.88050488  0.12768366  1
  O  O393  1  0.87633221  0.85782959  0.62450053  1
  O  O394  1  0.13178242  0.13397965  0.37679628  1
  O  O395  1  0.13947850  0.09752502  0.89735377  1
  O  O396  1  0.12161211  0.65520991  0.35638524  1
  O  O397  1  0.11604560  0.61145787  0.88142044  1
  O  O398  1  0.63444965  0.13196107  0.38576668  1
  O  O399  1  0.63102162  0.13544962  0.87641146  1
  O  O400  1  0.60801825  0.64119905  0.39271434  1
  O  O401  1  0.61976661  0.62560715  0.89216385  1
