# generated using pymatgen
data_V73Zn73O256
_symmetry_space_group_name_H-M   'P 1'
_cell_length_a   16.90041483
_cell_length_b   16.91836262
_cell_length_c   16.90648683
_cell_angle_alpha   90.06342099
_cell_angle_beta   89.92101536
_cell_angle_gamma   90.03098920
_symmetry_Int_Tables_number   1
_chemical_formula_structural   V73Zn73O256
_chemical_formula_sum   'V73 Zn73 O256'
_cell_volume   4834.01865904
_cell_formula_units_Z   1
loop_
 _symmetry_equiv_pos_site_id
 _symmetry_equiv_pos_as_xyz
  1  'x, y, z'
loop_
 _atom_site_type_symbol
 _atom_site_label
 _atom_site_symmetry_multiplicity
 _atom_site_fract_x
 _atom_site_fract_y
 _atom_site_fract_z
 _atom_site_occupancy
  V  V0  1  0.37866937  0.12086671  0.24994371  1
  V  V1  1  0.74854433  0.12186722  0.37472561  1
  V  V2  1  0.87764299  0.50780999  0.87148383  1
  V  V3  1  0.37351356  -0.00380586  0.37762057  1
  V  V4  1  0.37631555  0.86111796  0.50545923  1
  V  V5  1  0.90898439  0.35563787  0.48087612  1
  V  V6  1  0.61502890  0.25463662  0.37463368  1
  V  V7  1  0.62703569  0.63434836  0.49829106  1
  V  V8  1  0.74363463  0.14229373  0.88021014  1
  V  V9  1  0.51097512  0.63321424  0.12249157  1
  V  V10  1  0.24026480  0.12789119  0.37864313  1
  V  V11  1  0.37520679  0.49539100  0.86833377  1
  V  V12  1  0.24334409  0.50602748  0.23820850  1
  V  V13  1  0.00394934  0.62957885  0.62224814  1
  V  V14  1  0.24939510  0.62618246  0.88810333  1
  V  V15  1  0.24122686  0.75245413  0.50671670  1
  V  V16  1  0.87743168  0.74168161  0.14511945  1
  V  V17  1  0.86540918  0.87572620  0.49692144  1
  V  V18  1  0.24029752  0.37727312  0.12556297  1
  V  V19  1  0.00175068  0.87144829  0.36747224  1
  V  V20  1  0.51205812  0.00091920  0.01091154  1
  V  V21  1  0.00132544  0.25146817  0.74552165  1
  V  V22  1  0.86755048  0.36831073  0.00152604  1
  V  V23  1  0.13456223  0.75758645  0.87526655  1
  V  V24  1  0.37415004  0.37860548  0.01206400  1
  V  V25  1  0.00444972  0.87226059  0.85961870  1
  V  V26  1  0.87087420  0.86446246  0.00512103  1
  V  V27  1  0.86646376  -0.00170348  0.87330101  1
  V  V28  1  0.11475305  0.73868964  0.36860479  1
  V  V29  1  0.01306962  0.12598725  0.61878733  1
  V  V30  1  0.23990936  0.24200506  0.50793445  1
  V  V31  1  0.36290801  0.87771021  -0.00422935  1
  V  V32  1  0.53488423  0.37813595  0.88461017  1
  V  V33  1  0.74465691  0.51555094  0.24215221  1
  V  V34  1  0.01184719  0.00215832  0.49795072  1
  V  V35  1  0.49662726  0.64765184  0.62948386  1
  V  V36  1  0.49810212  -0.00346851  0.50114276  1
  V  V37  1  0.87223910  0.11882589  0.74862881  1
  V  V38  1  0.88015853  0.62872957  0.74476917  1
  V  V39  1  0.00083455  0.37717808  0.87225687  1
  V  V40  1  0.49245151  0.25248039  0.24153542  1
  V  V41  1  0.74655104  0.87696455  0.63977154  1
  V  V42  1  0.74794382  0.50219309  0.74606638  1
  V  V43  1  0.26166013  0.38301829  0.62197345  1
  V  V44  1  0.87948524  0.14012733  0.24279884  1
  V  V45  1  0.26012514  0.01601979  0.76147109  1
  V  V46  1  0.74993726  0.37459708  0.62517033  1
  V  V47  1  0.12595647  0.50614069  0.62690434  1
  V  V48  1  0.50587072  0.51320352  0.01329798  1
  V  V49  1  0.87846348  0.75227570  0.61865426  1
  V  V50  1  0.36114844  0.75983948  0.12572833  1
  V  V51  1  0.01140400  0.00367739  0.00202916  1
  V  V52  1  0.84751139  0.50188532  0.37643803  1
  V  V53  1  0.50840219  0.86751445  0.86497505  1
  V  V54  1  0.62383590  0.37747675  0.23934522  1
  V  V55  1  0.74537551  0.25317656  0.49993676  1
  V  V56  1  0.39103064  0.22806632  0.63115698  1
  V  V57  1  0.13546852  0.38091719  0.74380500  1
  V  V58  1  0.00904790  0.50643800  0.49151912  1
  V  V59  1  0.00968432  0.62471414  0.13906430  1
  V  V60  1  0.61105539  0.49151899  0.62152987  1
  V  V61  1  0.87506821  0.24718439  0.62477416  1
  V  V62  1  0.62484587  -0.00227338  0.63877844  1
  V  V63  1  0.25557411  0.62460207  0.38231197  1
  V  V64  1  0.37701930  0.62211865  0.25193644  1
  V  V65  1  0.13748216  0.88217066  0.23841578  1
  V  V66  1  0.01007792  0.50918782  0.00182908  1
  V  V67  1  0.87529844  -0.00006564  0.36813583  1
  V  V68  1  0.61583983  0.12040844  0.50169170  1
  V  V69  1  0.13625367  0.24547120  0.88343852  1
  V  V70  1  0.50581501  0.75649992  0.27200181  1
  V  V71  1  0.62693923  0.88919043  0.25679990  1
  V  V72  1  0.37461583  0.64638988  0.75129129  1
  Zn  Zn73  1  0.38981023  0.38306358  0.48463130  1
  Zn  Zn74  1  0.68684588  0.68006169  -0.02355057  1
  Zn  Zn75  1  0.12018896  -0.02090084  0.64772304  1
  Zn  Zn76  1  0.69433140  0.69835275  0.33336728  1
  Zn  Zn77  1  0.24492275  0.87472076  0.63811401  1
  Zn  Zn78  1  0.74593876  0.37824545  0.11568243  1
  Zn  Zn79  1  -0.00234990  0.12128409  0.12254043  1
  Zn  Zn80  1  0.74770298  0.00275337  0.23098740  1
  Zn  Zn81  1  0.37399060  0.24196128  0.11496663  1
  Zn  Zn82  1  0.20024201  0.18998951  0.18851311  1
  Zn  Zn83  1  0.19356316  0.19209540  0.69335208  1
  Zn  Zn84  1  0.17964307  0.68983401  0.18814912  1
  Zn  Zn85  1  0.18717083  0.69061116  0.69989018  1
  Zn  Zn86  1  0.68419536  0.18242537  0.18949613  1
  Zn  Zn87  1  0.69154129  0.17581952  0.68642647  1
  Zn  Zn88  1  0.66734261  0.75190904  0.14257178  1
  Zn  Zn89  1  0.70982439  0.66822491  0.64438685  1
  Zn  Zn90  1  0.26268077  0.33560759  0.33566954  1
  Zn  Zn91  1  0.32069458  0.30714032  0.81252403  1
  Zn  Zn92  1  0.31091422  0.80955725  0.31353342  1
  Zn  Zn93  1  0.31096385  0.82365280  0.81487054  1
  Zn  Zn94  1  0.80841351  0.31664468  0.31242041  1
  Zn  Zn95  1  0.81017857  0.31628534  0.81457928  1
  Zn  Zn96  1  0.80664664  0.82410314  0.30185360  1
  Zn  Zn97  1  0.81205528  0.80892478  0.81204866  1
  Zn  Zn98  1  0.19619735  0.44796865  0.44407622  1
  Zn  Zn99  1  0.19251202  0.43733891  0.93451765  1
  Zn  Zn100  1  0.19069122  0.93255690  0.42890677  1
  Zn  Zn101  1  0.19060401  0.94147938  0.92850679  1
  Zn  Zn102  1  0.57170454  0.43622558  0.43556585  1
  Zn  Zn103  1  0.70359923  0.48362974  0.95268941  1
  Zn  Zn104  1  0.68300847  0.93202252  0.43245550  1
  Zn  Zn105  1  0.66322182  0.87404849  0.97437860  1
  Zn  Zn106  1  0.32227128  0.05743754  0.06121548  1
  Zn  Zn107  1  0.30570591  0.05681749  0.57059359  1
  Zn  Zn108  1  0.32156581  0.56536755  0.06426144  1
  Zn  Zn109  1  0.31763479  0.56434002  0.57091271  1
  Zn  Zn110  1  0.81705212  0.06603923  0.05182498  1
  Zn  Zn111  1  0.81094758  0.05867364  0.55961445  1
  Zn  Zn112  1  0.81664616  0.57214707  0.06701885  1
  Zn  Zn113  1  0.81800676  0.55539643  0.55369258  1
  Zn  Zn114  1  0.43041563  0.43175105  0.31073398  1
  Zn  Zn115  1  0.44546324  0.41728666  0.70725730  1
  Zn  Zn116  1  0.44350648  0.93436994  0.18991403  1
  Zn  Zn117  1  0.43385831  0.93785538  0.68888536  1
  Zn  Zn118  1  0.92830292  0.43289275  0.18324314  1
  Zn  Zn119  1  0.93852780  0.43599077  0.67894028  1
  Zn  Zn120  1  0.94337896  0.93445462  0.18258766  1
  Zn  Zn121  1  0.93832623  0.94047100  0.68210489  1
  Zn  Zn122  1  0.06328468  0.05997867  0.30595890  1
  Zn  Zn123  1  0.06586504  0.06115316  0.81760956  1
  Zn  Zn124  1  0.03918839  0.50301881  0.28030013  1
  Zn  Zn125  1  0.06591193  0.56954266  0.81021033  1
  Zn  Zn126  1  0.55435063  0.06548444  0.31707355  1
  Zn  Zn127  1  0.61026359  0.00303915  0.86252520  1
  Zn  Zn128  1  0.56846789  0.56884277  0.30676749  1
  Zn  Zn129  1  0.55979244  0.56528861  0.80935798  1
  Zn  Zn130  1  0.42650522  0.19771274  0.43891640  1
  Zn  Zn131  1  0.46675391  0.19695508  0.94973917  1
  Zn  Zn132  1  0.43973741  0.56729309  0.44506064  1
  Zn  Zn133  1  0.43471607  0.69685948  0.93770435  1
  Zn  Zn134  1  0.93822468  0.17947791  0.43514425  1
  Zn  Zn135  1  0.94067863  0.18598038  0.93519722  1
  Zn  Zn136  1  0.89235660  0.70647717  0.40102317  1
  Zn  Zn137  1  0.94289933  0.69061622  0.93453623  1
  Zn  Zn138  1  0.06164304  0.32014521  0.06147958  1
  Zn  Zn139  1  0.07773048  0.31504103  0.41359477  1
  Zn  Zn140  1  0.05945837  0.80710170  0.05605608  1
  Zn  Zn141  1  0.05940777  0.81309965  0.55677069  1
  Zn  Zn142  1  0.56015427  0.31203036  0.05264983  1
  Zn  Zn143  1  0.55884841  0.30923849  0.56794226  1
  Zn  Zn144  1  0.54234553  0.82024699  0.07116801  1
  Zn  Zn145  1  0.56291453  0.81780159  0.55755579  1
  O  O146  1  0.16779378  0.10423568  0.10992169  1
  O  O147  1  0.11138039  0.13624210  0.62767398  1
  O  O148  1  0.10999864  0.63107534  0.12161383  1
  O  O149  1  0.11867203  0.61498844  0.63877993  1
  O  O150  1  0.66274848  0.09147058  0.11671806  1
  O  O151  1  0.63503455  0.10664137  0.61316452  1
  O  O152  1  0.60891641  0.63966124  0.12611573  1
  O  O153  1  0.60747318  0.61344535  0.63085269  1
  O  O154  1  0.36335937  0.36872807  0.37292684  1
  O  O155  1  0.37147447  0.38875319  0.88484435  1
  O  O156  1  0.36439382  0.89123730  0.38390770  1
  O  O157  1  0.38225263  0.86478280  0.89355001  1
  O  O158  1  0.86079357  0.38568893  0.38801449  1
  O  O159  1  0.88543644  0.38589837  0.87293642  1
  O  O160  1  0.88143295  0.88373906  0.37894266  1
  O  O161  1  0.88113657  0.88407930  0.87475564  1
  O  O162  1  0.26300787  0.01633261  0.38767740  1
  O  O163  1  0.25470412  0.00470158  0.86413748  1
  O  O164  1  0.24776270  0.52163883  0.36614989  1
  O  O165  1  0.26645913  0.51174936  0.87953512  1
  O  O166  1  0.75894475  0.01167202  0.38024917  1
  O  O167  1  0.76864537  0.00480231  0.87171169  1
  O  O168  1  0.74861003  0.50629752  0.37385528  1
  O  O169  1  0.76456456  0.49524547  0.85003465  1
  O  O170  1  0.25547213  0.50027578  0.13253590  1
  O  O171  1  0.24089529  0.49078498  0.62182196  1
  O  O172  1  0.21145250  1.04026940  0.10380427  1
  O  O173  1  0.23755491  0.99690084  0.63455920  1
  O  O174  1  0.75608157  0.49890428  0.14048573  1
  O  O175  1  0.74919825  0.48933700  0.62808925  1
  O  O176  1  0.71968260  1.03431029  0.11788871  1
  O  O177  1  0.74065235  0.98816184  0.62094558  1
  O  O178  1  0.00107521  0.40163229  0.25801638  1
  O  O179  1  0.00482291  0.36870432  0.75151835  1
  O  O180  1  0.00315563  0.87872050  0.26487433  1
  O  O181  1  -0.00143178  0.88418371  0.76066919  1
  O  O182  1  0.51121825  0.36106879  0.25515404  1
  O  O183  1  0.50729328  0.36793513  0.78732244  1
  O  O184  1  0.50572955  0.86341453  0.25987064  1
  O  O185  1  0.48886986  0.87567458  0.76553437  1
  O  O186  1  0.48803809  0.13433731  0.25135127  1
  O  O187  1  0.54662243  0.18957835  0.77498087  1
  O  O188  1  0.49234754  0.63346529  0.24346909  1
  O  O189  1  0.48873931  0.62341280  0.74000543  1
  O  O190  1  0.98273676  0.11993752  0.24919879  1
  O  O191  1  0.99219869  0.13515585  0.74009738  1
  O  O192  1  1.00478054  0.60834233  0.23764269  1
  O  O193  1  0.98954691  0.61711754  0.73581113  1
  O  O194  1  0.38922943  0.27336197  0.00132031  1
  O  O195  1  0.36817460  0.25695792  0.51913890  1
  O  O196  1  0.37536397  0.76013208  0.01877222  1
  O  O197  1  0.36267737  0.76169848  0.49472978  1
  O  O198  1  0.87872384  0.26993492  -0.01595950  1
  O  O199  1  0.86224607  0.24740180  0.50873796  1
  O  O200  1  0.87188968  0.76352044  -0.01322606  1
  O  O201  1  0.88082598  0.76279602  0.51040397  1
  O  O202  1  0.14240449  0.25553585  0.50102447  1
  O  O203  1  0.11931010  0.26252399  0.98147752  1
  O  O204  1  0.13608106  0.75441354  0.48462911  1
  O  O205  1  0.10686224  0.74104201  0.97283048  1
  O  O206  1  0.62851471  0.23885343  0.49518230  1
  O  O207  1  0.66067742  0.24621762  1.04168506  1
  O  O208  1  0.62183276  0.73407866  0.50848534  1
  O  O209  1  0.63975652  0.76937261  1.02254866  1
  O  O210  1  0.49679768  0.25193145  0.13694822  1
  O  O211  1  0.49226935  0.24109410  0.62580418  1
  O  O212  1  0.48558578  0.74081921  0.13569236  1
  O  O213  1  0.50583822  0.74558496  0.63139238  1
  O  O214  1  1.04908762  0.22762368  0.13602520  1
  O  O215  1  0.98611900  0.24258295  0.62992877  1
  O  O216  1  0.99095173  0.73265841  0.11720463  1
  O  O217  1  0.99161366  0.74131086  0.61970045  1
  O  O218  1  -0.02701956  0.28264816  0.41539531  1
  O  O219  1  0.00248662  0.26144290  0.86201612  1
  O  O220  1  0.00688937  0.75567738  0.38298740  1
  O  O221  1  -0.00440468  0.77027425  0.86940430  1
  O  O222  1  0.50970464  0.23960873  0.36543808  1
  O  O223  1  0.53961702  0.27986585  0.92577384  1
  O  O224  1  0.49513146  0.74209260  0.36579941  1
  O  O225  1  0.50512652  0.76563054  0.88505440  1
  O  O226  1  0.25069211  0.13431464  0.49690388  1
  O  O227  1  0.29943103  0.13329575  0.96040401  1
  O  O228  1  0.25890363  0.63791568  0.48885705  1
  O  O229  1  0.26393919  0.62842004  0.98652432  1
  O  O230  1  0.74274356  0.13180826  0.49315925  1
  O  O231  1  0.76897469  0.13447850  0.97750943  1
  O  O232  1  0.72861512  0.62392346  0.52973560  1
  O  O233  1  0.74700051  0.58871670  0.98300939  1
  O  O234  1  0.26269448  0.38767850  0.01314255  1
  O  O235  1  0.25368958  0.36821521  0.51660575  1
  O  O236  1  0.26216513  0.88113352  -0.00285781  1
  O  O237  1  0.25732968  0.86290252  0.49599648  1
  O  O238  1  0.76478805  0.39095771  -0.00458996  1
  O  O239  1  0.74635017  0.35644710  0.51040384  1
  O  O240  1  0.77343771  0.88646459  0.00229173  1
  O  O241  1  0.76299625  0.88294615  0.50220923  1
  O  O242  1  0.14633672  0.51403619  0.24477549  1
  O  O243  1  0.11948654  0.48716639  0.74421622  1
  O  O244  1  0.12267237  0.98292415  0.24901191  1
  O  O245  1  0.13945116  1.00687543  0.75524808  1
  O  O246  1  0.63515503  0.48498469  0.25658453  1
  O  O247  1  0.64233271  0.50662735  0.73974855  1
  O  O248  1  0.61993593  0.99291479  0.25839061  1
  O  O249  1  0.62095574  1.00375002  0.73549442  1
  O  O250  1  0.38358619  0.01031381  0.26449866  1
  O  O251  1  0.36102371  0.00546589  0.73873559  1
  O  O252  1  0.37153277  0.51918360  0.25108795  1
  O  O253  1  0.38329102  0.49928344  0.76756899  1
  O  O254  1  0.87040200  -0.00040313  0.25912353  1
  O  O255  1  0.88501722  0.00946470  0.76003650  1
  O  O256  1  0.85018455  0.48707998  0.26536152  1
  O  O257  1  0.87292282  0.50645541  0.74923475  1
  O  O258  1  0.15822803  0.37263872  0.36830692  1
  O  O259  1  0.11805057  0.37425222  0.86150997  1
  O  O260  1  0.11750575  0.86513018  0.36757566  1
  O  O261  1  0.11623148  0.86581897  0.87459014  1
  O  O262  1  0.62977648  0.35940113  0.36388424  1
  O  O263  1  0.62872242  0.40760612  0.88674346  1
  O  O264  1  0.63275682  0.86371689  0.35863549  1
  O  O265  1  0.61592028  0.88263102  0.86814826  1
  O  O266  1  0.35987468  0.12600520  0.14534286  1
  O  O267  1  0.37824896  0.12935521  0.62186089  1
  O  O268  1  0.37709675  0.63749952  0.13962030  1
  O  O269  1  0.38539918  0.62930861  0.63859120  1
  O  O270  1  0.87104359  0.12077306  0.14016383  1
  O  O271  1  0.87610127  0.13045719  0.62961318  1
  O  O272  1  0.88965724  0.63335799  0.12613766  1
  O  O273  1  0.88255347  0.63260104  0.62421182  1
  O  O274  1  0.26079553  0.27327281  0.13537781  1
  O  O275  1  0.25583290  0.26084073  0.61965569  1
  O  O276  1  0.26299575  0.74672455  0.13502367  1
  O  O277  1  0.24020083  0.74417152  0.60845224  1
  O  O278  1  0.71580931  0.25529540  0.09856324  1
  O  O279  1  0.75482638  0.25244893  0.62271273  1
  O  O280  1  0.77788504  0.73949099  0.12739567  1
  O  O281  1  0.76047365  0.76848868  0.62447647  1
  O  O282  1  0.26072667  0.23526230  0.39599075  1
  O  O283  1  0.23539627  0.26074760  0.86996993  1
  O  O284  1  0.24168178  0.74216792  0.38100510  1
  O  O285  1  0.24226992  0.74195426  0.87490340  1
  O  O286  1  0.74184390  0.23941271  0.38228664  1
  O  O287  1  0.74154720  0.24284181  0.86199680  1
  O  O288  1  0.78511533  0.74396045  0.37678675  1
  O  O289  1  0.72941406  0.73918729  0.86615927  1
  O  O290  1  -0.00596483  0.11169653  0.00241142  1
  O  O291  1  -0.00636506  0.11401021  0.50798169  1
  O  O292  1  -0.00001240  0.60993344  -0.01016197  1
  O  O293  1  -0.00211197  0.61153095  0.51547600  1
  O  O294  1  0.49632345  0.10246489  -0.00319289  1
  O  O295  1  0.51072389  0.11642884  0.49565484  1
  O  O296  1  0.48991250  0.62505869  0.01258330  1
  O  O297  1  0.50800383  0.62309743  0.52284369  1
  O  O298  1  0.50301598  0.37217677  0.49657331  1
  O  O299  1  0.49239208  0.39824423  1.00085596  1
  O  O300  1  0.48572743  0.88055009  0.49916885  1
  O  O301  1  0.48813381  0.88076875  0.99584842  1
  O  O302  1  1.00446081  0.39449246  0.50685268  1
  O  O303  1  0.99048713  0.38380826  0.99038194  1
  O  O304  1  0.98899228  0.88417568  0.48956422  1
  O  O305  1  0.99057697  0.88541792  0.98858548  1
  O  O306  1  0.50140703  0.50298255  0.37060524  1
  O  O307  1  0.49374826  0.50103394  0.88647197  1
  O  O308  1  0.48456211  1.00359532  0.38809745  1
  O  O309  1  0.49650374  0.97990466  0.89177372  1
  O  O310  1  1.02002822  0.50939204  0.39372359  1
  O  O311  1  0.99672454  0.49306103  0.87445212  1
  O  O312  1  0.99123606  0.99560658  0.37917416  1
  O  O313  1  0.99374008  0.99247996  0.88175159  1
  O  O314  1  -0.00170504  0.00106645  0.10839247  1
  O  O315  1  0.00458700  0.00864156  0.61563189  1
  O  O316  1  -0.00928134  0.51191355  0.10773001  1
  O  O317  1  0.00861106  0.50701573  0.61974201  1
  O  O318  1  0.50258393  -0.00824835  0.11377519  1
  O  O319  1  0.51626605  -0.01156338  0.61379297  1
  O  O320  1  0.49366944  0.52317567  0.11856464  1
  O  O321  1  0.51322733  0.48504860  0.64029132  1
  O  O322  1  0.26004369  0.39778208  0.23550270  1
  O  O323  1  0.23983893  0.37249037  0.74147082  1
  O  O324  1  0.23756542  0.87323513  0.25322518  1
  O  O325  1  0.25299078  0.89080619  0.75085268  1
  O  O326  1  0.73316346  0.36697727  0.23983403  1
  O  O327  1  0.76330164  0.38633856  0.73335825  1
  O  O328  1  0.73722716  0.88839615  0.24257561  1
  O  O329  1  0.75368746  0.87866625  0.73851855  1
  O  O330  1  0.26571081  0.13809280  0.26952935  1
  O  O331  1  0.25272455  0.11916135  0.74930183  1
  O  O332  1  0.26120962  0.62442766  0.25496732  1
  O  O333  1  0.26979759  0.62861194  0.75797204  1
  O  O334  1  0.75760402  0.12215894  0.25988637  1
  O  O335  1  0.76686695  0.12744253  0.75711161  1
  O  O336  1  0.73427951  0.61272401  0.25105177  1
  O  O337  1  0.76517083  0.60889876  0.73023870  1
  O  O338  1  0.37076994  0.11652446  0.36986619  1
  O  O339  1  0.35096167  0.13842603  0.90635097  1
  O  O340  1  0.36516140  0.63265316  0.36333796  1
  O  O341  1  0.37367360  0.62063777  0.86657687  1
  O  O342  1  0.86819914  0.11865456  0.36521025  1
  O  O343  1  0.87583155  0.11621651  0.86491884  1
  O  O344  1  0.88161966  0.59644187  0.38033592  1
  O  O345  1  0.88569856  0.61651104  0.85912725  1
  O  O346  1  0.14154259  0.37918154  0.12076602  1
  O  O347  1  0.13460550  0.38489108  0.63725937  1
  O  O348  1  0.11604034  0.85903577  0.14175768  1
  O  O349  1  0.12976304  0.87009547  0.61980488  1
  O  O350  1  0.61870841  0.37662000  0.13706488  1
  O  O351  1  0.63581368  0.38359445  0.62338874  1
  O  O352  1  0.61653637  0.85979209  0.15367209  1
  O  O353  1  0.63845386  0.88302572  0.62060066  1
  O  O354  1  0.09361955  0.23358230  0.20568363  1
  O  O355  1  0.11598930  0.26450059  0.75123871  1
  O  O356  1  0.12549883  0.75806004  0.26600681  1
  O  O357  1  0.11423603  0.73161079  0.77640184  1
  O  O358  1  0.61498943  0.25195017  0.25335657  1
  O  O359  1  0.60251096  0.23192125  0.75141835  1
  O  O360  1  0.61452139  0.74316806  0.25764948  1
  O  O361  1  0.67036472  0.70511717  0.81861328  1
  O  O362  1  0.38888920  0.24099301  0.25241101  1
  O  O363  1  0.37427281  0.25487766  0.73017327  1
  O  O364  1  0.38467974  0.74639311  0.24687255  1
  O  O365  1  0.37826162  0.74409504  0.75790082  1
  O  O366  1  0.86954461  0.23913670  0.25244935  1
  O  O367  1  0.88271782  0.24623418  0.74208680  1
  O  O368  1  0.88637584  0.75689787  0.24327314  1
  O  O369  1  0.86922442  0.73854436  0.73595957  1
  O  O370  1  0.36783409  0.49837898  0.49662124  1
  O  O371  1  0.38474601  0.49750652  0.99219726  1
  O  O372  1  0.38119684  0.99642605  0.49465779  1
  O  O373  1  0.38351519  0.98188605  1.00983639  1
  O  O374  1  0.88848419  0.48715535  0.49036389  1
  O  O375  1  0.88730012  0.49229335  0.98342244  1
  O  O376  1  0.88197995  0.99538390  0.48856889  1
  O  O377  1  0.88378502  0.99293105  0.98623016  1
  O  O378  1  0.10972931  -0.00447617  -0.01059937  1
  O  O379  1  0.11113719  -0.00557880  0.48829956  1
  O  O380  1  0.10812050  0.49000192  -0.00811092  1
  O  O381  1  0.11927320  0.49996138  0.51504227  1
  O  O382  1  0.61373260  -0.01847402  -0.00417171  1
  O  O383  1  0.61541144  0.00354094  0.49627202  1
  O  O384  1  0.60416581  0.50986373  0.00593926  1
  O  O385  1  0.61972932  0.50869172  0.51857550  1
  O  O386  1  0.37335818  0.38376944  0.11234823  1
  O  O387  1  0.36247330  0.38345280  0.63459859  1
  O  O388  1  0.37468272  0.86419600  0.12622274  1
  O  O389  1  0.36769303  0.87725645  0.60721199  1
  O  O390  1  0.87154016  0.37341580  0.10629938  1
  O  O391  1  0.87257515  0.36239482  0.60984167  1
  O  O392  1  0.89005188  0.85708329  0.11212710  1
  O  O393  1  0.86753790  0.87359776  0.61837228  1
  O  O394  1  0.14108554  0.12474309  0.36519031  1
  O  O395  1  0.11637176  0.14786761  0.87074584  1
  O  O396  1  0.13834346  0.63906213  0.37088794  1
  O  O397  1  0.14716141  0.61843154  0.87459782  1
  O  O398  1  0.63187632  0.12976755  0.38169972  1
  O  O399  1  0.64813965  0.11053154  0.87066978  1
  O  O400  1  0.62687132  0.62265810  0.39441824  1
  O  O401  1  0.63114062  0.64855558  0.86406997  1
