# generated using pymatgen
data_V73Zn73O256
_symmetry_space_group_name_H-M   'P 1'
_cell_length_a   16.82393448
_cell_length_b   16.93059559
_cell_length_c   16.92149728
_cell_angle_alpha   90.04321539
_cell_angle_beta   90.19543678
_cell_angle_gamma   90.04789387
_symmetry_Int_Tables_number   1
_chemical_formula_structural   V73Zn73O256
_chemical_formula_sum   'V73 Zn73 O256'
_cell_volume   4819.87516391
_cell_formula_units_Z   1
loop_
 _symmetry_equiv_pos_site_id
 _symmetry_equiv_pos_as_xyz
  1  'x, y, z'
loop_
 _atom_site_type_symbol
 _atom_site_label
 _atom_site_symmetry_multiplicity
 _atom_site_fract_x
 _atom_site_fract_y
 _atom_site_fract_z
 _atom_site_occupancy
  V  V0  1  0.51285004  0.38177221  0.34574098  1
  V  V1  1  0.49331756  -0.00597152  -0.00121677  1
  V  V2  1  0.12640495  0.74807225  0.87327415  1
  V  V3  1  0.62351926  0.87279633  0.24977990  1
  V  V4  1  0.26247494  0.49710020  0.25735346  1
  V  V5  1  0.00292028  0.49848020  -0.00606934  1
  V  V6  1  0.88203228  0.22727248  0.63826173  1
  V  V7  1  0.50583027  0.74632508  0.25319741  1
  V  V8  1  0.87492559  0.25128989  0.11370594  1
  V  V9  1  0.50632424  0.13150838  0.64328049  1
  V  V10  1  0.25872450  0.75244349  0.00877300  1
  V  V11  1  0.37225098  0.13760822  0.25001661  1
  V  V12  1  0.63613167  0.50498798  0.14040657  1
  V  V13  1  0.26226901  0.38759062  0.62664969  1
  V  V14  1  0.75517557  0.01080901  0.75954875  1
  V  V15  1  0.75089429  0.75871503  0.00239936  1
  V  V16  1  0.39971418  0.36951447  0.00304653  1
  V  V17  1  0.24668867  0.49760871  0.76701791  1
  V  V18  1  0.88135032  0.00161941  0.38536759  1
  V  V19  1  0.11523784  0.12569848  0.51571084  1
  V  V20  1  0.25153601  0.36403468  0.11257137  1
  V  V21  1  0.09600166  0.37307747  0.75436300  1
  V  V22  1  0.51960135  0.62515730  0.63129315  1
  V  V23  1  0.87907376  0.49955398  0.86832759  1
  V  V24  1  0.88010368  0.88352484  -0.00766401  1
  V  V25  1  0.39667251  0.49590152  0.88382824  1
  V  V26  1  0.37453681  0.62496586  0.75295759  1
  V  V27  1  0.75123492  0.37880822  0.63740846  1
  V  V28  1  0.37168841  0.74924589  0.62109810  1
  V  V29  1  0.09808223  0.50483843  0.62247596  1
  V  V30  1  -0.00065673  0.87014919  0.38458354  1
  V  V31  1  0.50134207  0.86556759  0.38717275  1
  V  V32  1  -0.00209831  0.75272863  0.73336100  1
  V  V33  1  0.13103902  0.62348819  -0.00736656  1
  V  V34  1  0.12768420  0.50509901  0.12265738  1
  V  V35  1  0.62872777  0.88523467  0.74198403  1
  V  V36  1  0.87954807  0.62925985  0.73252789  1
  V  V37  1  0.74953073  0.37793657  0.13272386  1
  V  V38  1  -0.00254683  0.25306047  0.24758255  1
  V  V39  1  0.36790588  0.01135794  0.86984830  1
  V  V40  1  0.12004304  0.25730812  0.37716093  1
  V  V41  1  0.25775411  0.00963817  0.73395888  1
  V  V42  1  0.37230524  0.24691081  0.64421591  1
  V  V43  1  0.75939695  0.62567258  0.86826640  1
  V  V44  1  -0.00705019  0.50172951  0.47726909  1
  V  V45  1  0.48649093  0.12483437  0.12926805  1
  V  V46  1  0.61663176  0.13767489  -0.00236313  1
  V  V47  1  0.49709204  0.62491954  0.11622919  1
  V  V48  1  0.50013050  0.48835049  0.50574141  1
  V  V49  1  0.25316163  0.26528154  0.50280132  1
  V  V50  1  0.25166170  0.12945673  0.37529551  1
  V  V51  1  0.85124422  0.48753766  0.36522243  1
  V  V52  1  0.86615831  0.35945654  0.49452591  1
  V  V53  1  0.37916465  0.62399030  0.25726792  1
  V  V54  1  0.75787236  0.14055538  0.88501879  1
  V  V55  1  0.37043895  -0.00685578  0.37113481  1
  V  V56  1  0.62021254  -0.00969813  0.12036310  1
  V  V57  1  0.01356907  0.01205711  0.00270695  1
  V  V58  1  0.73852157  0.12942306  0.37581125  1
  V  V59  1  0.63069744  0.61978942  -0.00450749  1
  V  V60  1  0.49661601  0.02679877  0.50358058  1
  V  V61  1  0.14463223  0.86630561  0.73734485  1
  V  V62  1  0.75214004  -0.00457941  0.23787394  1
  V  V63  1  0.13464129  -0.00915908  0.13777944  1
  V  V64  1  0.86723685  0.62023685  0.24690913  1
  V  V65  1  0.49253436  0.86718520  0.87364130  1
  V  V66  1  0.87106461  0.37670816  -0.00826206  1
  V  V67  1  0.87653958  0.76105263  0.12899238  1
  V  V68  1  0.12382416  0.37744881  0.25622477  1
  V  V69  1  0.62918867  0.75553869  0.86897399  1
  V  V70  1  0.87904120  0.12292565  0.23456101  1
  V  V71  1  0.75113616  0.64547781  0.37539218  1
  V  V72  1  0.62556878  0.63033924  0.48792158  1
  Zn  Zn73  1  0.21770884  0.65112640  0.39600290  1
  Zn  Zn74  1  0.01100669  0.74671938  0.25964197  1
  Zn  Zn75  1  0.18505009  0.18010595  -0.05931670  1
  Zn  Zn76  1  0.32089794  0.91992016  0.05265604  1
  Zn  Zn77  1  0.91792541  0.11865892  0.78915234  1
  Zn  Zn78  1  -0.00097513  0.62595206  0.12675016  1
  Zn  Zn79  1  0.00149227  0.87803506  0.87134759  1
  Zn  Zn80  1  0.31989773  0.90798763  0.55636326  1
  Zn  Zn81  1  0.13589113  0.86175409  0.25629790  1
  Zn  Zn82  1  0.18077103  0.18624725  0.18858763  1
  Zn  Zn83  1  0.18187004  0.19709993  0.70034542  1
  Zn  Zn84  1  0.19384911  0.69063184  0.19009299  1
  Zn  Zn85  1  0.18945788  0.67627139  0.56728781  1
  Zn  Zn86  1  0.68513473  0.18389315  0.18878777  1
  Zn  Zn87  1  0.71527258  0.16223248  0.66462395  1
  Zn  Zn88  1  0.68910578  0.69297970  0.18535543  1
  Zn  Zn89  1  0.70068691  0.70042905  0.68151389  1
  Zn  Zn90  1  0.32458520  0.31495101  0.31506495  1
  Zn  Zn91  1  0.31431543  0.31584132  0.82410116  1
  Zn  Zn92  1  0.27506068  0.82304754  0.38235942  1
  Zn  Zn93  1  0.30932430  0.79937054  0.81607333  1
  Zn  Zn94  1  0.80422996  0.30623647  0.30766060  1
  Zn  Zn95  1  0.82100059  0.30059723  0.80840799  1
  Zn  Zn96  1  0.81752954  0.81979729  0.31270773  1
  Zn  Zn97  1  0.81229788  0.81634453  0.81003667  1
  Zn  Zn98  1  0.20510986  0.48520180  0.46174971  1
  Zn  Zn99  1  0.16900473  0.33753852  0.92645456  1
  Zn  Zn100  1  0.17260490  0.94393255  0.44553676  1
  Zn  Zn101  1  0.18526611  0.93468740  0.93048421  1
  Zn  Zn102  1  0.67637897  0.42943560  0.44313972  1
  Zn  Zn103  1  0.69331020  0.43742166  0.92834736  1
  Zn  Zn104  1  0.68021865  0.95330713  0.43507156  1
  Zn  Zn105  1  0.68777289  0.94159657  0.93626928  1
  Zn  Zn106  1  0.26741815  0.08408022  0.08788348  1
  Zn  Zn107  1  0.31280134  0.07741445  0.55607258  1
  Zn  Zn108  1  0.30917708  0.55754606  0.05875340  1
  Zn  Zn109  1  0.32971152  0.56395039  0.56276039  1
  Zn  Zn110  1  0.80857487  0.06276255  0.05541801  1
  Zn  Zn111  1  0.79529250  0.04261351  0.55624435  1
  Zn  Zn112  1  0.81337664  0.56472000  0.05713913  1
  Zn  Zn113  1  0.80953696  0.55753674  0.55386153  1
  Zn  Zn114  1  0.44189603  0.44377605  0.16916468  1
  Zn  Zn115  1  0.44460986  0.44595866  0.69158803  1
  Zn  Zn116  1  0.32685738  0.88165936  0.21254399  1
  Zn  Zn117  1  0.44609569  0.93921419  0.68965142  1
  Zn  Zn118  1  0.93827171  0.43784628  0.18526493  1
  Zn  Zn119  1  0.91420295  0.43560139  0.68241988  1
  Zn  Zn120  1  0.95277745  0.93674538  0.18822407  1
  Zn  Zn121  1  0.92557689  0.93336061  0.69540852  1
  Zn  Zn122  1  0.06428068  0.06743729  0.31188810  1
  Zn  Zn123  1  0.07774320  0.03746706  0.81478979  1
  Zn  Zn124  1  0.05856703  0.56076972  0.30447746  1
  Zn  Zn125  1  0.06161710  0.56574515  0.80731426  1
  Zn  Zn126  1  0.55528267  0.05347678  0.30858756  1
  Zn  Zn127  1  0.56290270  0.05982633  0.81831140  1
  Zn  Zn128  1  0.56108518  0.55888642  0.31694392  1
  Zn  Zn129  1  0.55793119  0.57149940  0.82330121  1
  Zn  Zn130  1  0.43436229  0.21421707  0.43386235  1
  Zn  Zn131  1  0.37931826  0.16325631  0.96884563  1
  Zn  Zn132  1  0.40774314  0.69207649  0.42602100  1
  Zn  Zn133  1  0.43978484  0.68730098  0.93485806  1
  Zn  Zn134  1  0.93405982  0.17959316  0.42867680  1
  Zn  Zn135  1  0.99365486  0.21430333  0.95438043  1
  Zn  Zn136  1  1.04599346  0.68330433  0.44137218  1
  Zn  Zn137  1  0.94319879  0.69001452  0.93855443  1
  Zn  Zn138  1  0.06345744  0.31771666  0.06982461  1
  Zn  Zn139  1  0.05468634  0.32232458  0.56439036  1
  Zn  Zn140  1  0.06654191  0.81255616  0.06612343  1
  Zn  Zn141  1  0.06563647  0.82082834  0.55553677  1
  Zn  Zn142  1  0.56690789  0.30549395  0.10330872  1
  Zn  Zn143  1  0.56108182  0.31571022  0.58735123  1
  Zn  Zn144  1  0.49477226  0.83912794  0.09523639  1
  Zn  Zn145  1  0.55978836  0.80459858  0.56623236  1
  O  O146  1  0.15181603  0.10111525  0.12182365  1
  O  O147  1  0.12735614  0.14546332  0.61335678  1
  O  O148  1  0.12577599  0.61596062  0.11880558  1
  O  O149  1  0.12464162  0.60056868  0.62678612  1
  O  O150  1  0.60619531  0.11056152  0.11780737  1
  O  O151  1  0.60476743  0.14546838  0.62782606  1
  O  O152  1  0.63137442  0.61714222  0.11479275  1
  O  O153  1  0.62461529  0.62821884  0.62853470  1
  O  O154  1  0.43102433  0.31532293  0.37387587  1
  O  O155  1  0.38336511  0.38706693  0.88806297  1
  O  O156  1  0.38992528  0.88793913  0.37334008  1
  O  O157  1  0.39078738  0.86654700  0.86666005  1
  O  O158  1  0.86356368  0.38164106  0.37490168  1
  O  O159  1  0.87172893  0.38919216  0.87881039  1
  O  O160  1  0.88081134  0.89365354  0.37195547  1
  O  O161  1  0.87765496  0.87348175  0.88960238  1
  O  O162  1  0.26343011  0.02148555  0.39089315  1
  O  O163  1  0.26322294  -0.00535362  0.86386908  1
  O  O164  1  0.25361100  0.49209430  0.35642821  1
  O  O165  1  0.25336461  0.49766604  0.86422637  1
  O  O166  1  0.76414688  0.00642858  0.35353682  1
  O  O167  1  0.74049353  0.01724613  0.86995146  1
  O  O168  1  0.75093237  0.49484049  0.36981942  1
  O  O169  1  0.76353310  0.51668989  0.87356604  1
  O  O170  1  0.24143833  0.49269808  0.13106897  1
  O  O171  1  0.25891924  0.49082113  0.63295653  1
  O  O172  1  0.24458957  0.97695726  0.12267969  1
  O  O173  1  0.27288953  0.99428424  0.63198985  1
  O  O174  1  0.74641290  0.49467799  0.12104635  1
  O  O175  1  0.76245703  0.47987435  0.62103443  1
  O  O176  1  0.73364728  1.00271761  0.12706357  1
  O  O177  1  0.74073709  1.04137388  0.65881091  1
  O  O178  1  0.01243006  0.36874938  0.24438227  1
  O  O179  1  -0.00390403  0.38189106  0.74216354  1
  O  O180  1  -0.00091880  0.86529460  0.26155141  1
  O  O181  1  -0.00163806  0.86446561  0.75199230  1
  O  O182  1  0.50492383  0.38793244  0.24532837  1
  O  O183  1  0.53479160  0.38962297  0.74837509  1
  O  O184  1  0.50748205  0.85921680  0.26148992  1
  O  O185  1  0.51508245  0.88149783  0.76655928  1
  O  O186  1  0.48628530  0.11581446  0.23928028  1
  O  O187  1  0.50000403  0.11834458  0.74125085  1
  O  O188  1  0.50228385  0.62523832  0.23804154  1
  O  O189  1  0.49501688  0.60604525  0.73824955  1
  O  O190  1  0.98847330  0.13732404  0.24862095  1
  O  O191  1  1.00851953  0.07508845  0.71794113  1
  O  O192  1  0.98073544  0.62926648  0.24968873  1
  O  O193  1  0.99075174  0.64012095  0.74844868  1
  O  O194  1  0.38152607  0.27271775  -0.00844529  1
  O  O195  1  0.35644384  0.25475466  0.51336478  1
  O  O196  1  0.35803855  0.73914970  -0.00885953  1
  O  O197  1  0.39080878  0.74228630  0.52328559  1
  O  O198  1  0.89775637  0.26628872  0.00364309  1
  O  O199  1  0.87379616  0.26050719  0.48209231  1
  O  O200  1  0.87057515  0.75776610  0.00837058  1
  O  O201  1  0.83328804  0.80146217  0.61891169  1
  O  O202  1  0.13162260  0.25771021  0.49112170  1
  O  O203  1  0.10065018  0.25550218  0.98348761  1
  O  O204  1  0.12263333  0.74022406  0.50356650  1
  O  O205  1  0.12925485  0.74102493  0.99486292  1
  O  O206  1  0.62019344  0.24323499  0.49406886  1
  O  O207  1  0.61047186  0.23458840  1.01284230  1
  O  O208  1  0.62416647  0.72984112  0.50580818  1
  O  O209  1  0.63957199  0.73971305  0.98557977  1
  O  O210  1  0.48284634  0.22178591  0.11792157  1
  O  O211  1  0.48220865  0.24438331  0.62684050  1
  O  O212  1  0.51011020  0.73163059  0.13702523  1
  O  O213  1  0.49882069  0.72869765  0.63340730  1
  O  O214  1  0.98875433  0.25775273  0.13617833  1
  O  O215  1  0.97890033  0.25208028  0.61394645  1
  O  O216  1  0.98375694  0.74537364  0.12312992  1
  O  O217  1  0.99741802  0.75768513  0.63553415  1
  O  O218  1  0.00980645  0.24926185  0.36026508  1
  O  O219  1  0.02058469  0.17868377  0.84603483  1
  O  O220  1  -0.01123864  0.76514064  0.37955797  1
  O  O221  1  0.01258430  0.75369263  0.87271678  1
  O  O222  1  0.57937286  0.22951985  0.43374596  1
  O  O223  1  0.50203522  0.26897345  0.86403400  1
  O  O224  1  0.49458963  0.76021021  0.37226377  1
  O  O225  1  0.51324361  0.75945741  0.87884385  1
  O  O226  1  0.24012803  0.14523953  0.49300043  1
  O  O227  1  0.27212962  0.12913370  0.98814195  1
  O  O228  1  0.24157254  0.59236267  0.49856932  1
  O  O229  1  0.23818742  0.63109194  1.00297098  1
  O  O230  1  0.74983648  0.11726234  0.47481368  1
  O  O231  1  0.72831344  0.12255054  0.99465405  1
  O  O232  1  0.73958630  0.61884598  0.48431556  1
  O  O233  1  0.74988657  0.63603932  0.98772881  1
  O  O234  1  0.23906834  0.37526115  0.01321863  1
  O  O235  1  0.24348683  0.38031990  0.51887534  1
  O  O236  1  0.24843575  0.85683216  -0.01020663  1
  O  O237  1  0.24749934  0.86961123  0.48200097  1
  O  O238  1  0.76500273  0.38178237  0.00091845  1
  O  O239  1  0.76066707  0.37491233  0.50232059  1
  O  O240  1  0.76247515  0.86854580  -0.00473943  1
  O  O241  1  0.75399366  0.94193279  0.51617750  1
  O  O242  1  0.13583115  0.49512285  0.24192438  1
  O  O243  1  0.13228788  0.49828055  0.74100074  1
  O  O244  1  0.12265461  1.00026494  0.23906370  1
  O  O245  1  0.15135750  0.97885513  0.75171631  1
  O  O246  1  0.63483765  0.50922178  0.23833211  1
  O  O247  1  0.59546317  0.43186601  0.78282574  1
  O  O248  1  0.62926158  0.99178361  0.23855605  1
  O  O249  1  0.62891133  0.98933543  0.75545798  1
  O  O250  1  0.37016515  0.00963529  0.27254459  1
  O  O251  1  0.36685992  -0.00987638  0.76012874  1
  O  O252  1  0.36697708  0.50301841  0.23884250  1
  O  O253  1  0.37136535  0.49681605  0.76713333  1
  O  O254  1  0.86721685  0.00857854  0.22978233  1
  O  O255  1  0.86107471  0.00887562  0.75964591  1
  O  O256  1  0.87504814  0.50488736  0.25829458  1
  O  O257  1  0.88454581  0.52178941  0.75709973  1
  O  O258  1  0.13453388  0.36726782  0.36095750  1
  O  O259  1  0.10866795  0.39584425  0.85334491  1
  O  O260  1  0.10290971  0.89200822  0.37089360  1
  O  O261  1  0.12468072  0.86501387  0.85886420  1
  O  O262  1  0.60944999  0.36249408  0.37296273  1
  O  O263  1  0.63412849  0.38683369  0.83827309  1
  O  O264  1  0.60794683  0.89125043  0.36498754  1
  O  O265  1  0.61992877  0.86920041  0.87132940  1
  O  O266  1  0.37424962  0.10817200  0.14212421  1
  O  O267  1  0.37427057  0.14376432  0.62992280  1
  O  O268  1  0.39466073  0.61206352  0.12571169  1
  O  O269  1  0.38963942  0.62731174  0.63853301  1
  O  O270  1  0.86614752  0.13887015  0.12436684  1
  O  O271  1  0.86874041  0.13205121  0.60879519  1
  O  O272  1  0.87108077  0.62990733  0.13373362  1
  O  O273  1  0.86591596  0.62477038  0.63477978  1
  O  O274  1  0.24499981  0.26598848  0.13044379  1
  O  O275  1  0.25624952  0.26696498  0.62530129  1
  O  O276  1  0.25102438  0.74852770  0.10920324  1
  O  O277  1  0.27152816  0.73634656  0.62446136  1
  O  O278  1  0.76503229  0.26703848  0.11857289  1
  O  O279  1  0.77223514  0.25502856  0.62956339  1
  O  O280  1  0.76163256  0.74641723  0.11195503  1
  O  O281  1  0.75688735  0.77822369  0.60780305  1
  O  O282  1  0.24641332  0.25249816  0.38274214  1
  O  O283  1  0.23338265  0.25962830  0.87237060  1
  O  O284  1  0.30266610  0.71654416  0.38037411  1
  O  O285  1  0.23370568  0.74457005  0.88267771  1
  O  O286  1  0.74497367  0.22970229  0.36014569  1
  O  O287  1  0.75019012  0.24165306  0.87798859  1
  O  O288  1  0.76191702  0.74321789  0.38043437  1
  O  O289  1  0.74975845  0.74564853  0.88228099  1
  O  O290  1  0.00011846  0.10935174  0.00435524  1
  O  O291  1  0.01751328  0.13820521  0.49123688  1
  O  O292  1  0.00862428  0.61588576  0.00505330  1
  O  O293  1  -0.01647095  0.59999011  0.49608591  1
  O  O294  1  0.49362110  0.11259877  0.00837015  1
  O  O295  1  0.48387983  0.12832475  0.50037456  1
  O  O296  1  0.51350394  0.63502236  0.01058706  1
  O  O297  1  0.51563897  0.61807935  0.51363921  1
  O  O298  1  0.51073765  0.38753587  0.51303360  1
  O  O299  1  0.49619195  0.37248693  1.02910760  1
  O  O300  1  0.50555114  0.87281137  0.48812262  1
  O  O301  1  0.50282410  0.88218806  0.98560291  1
  O  O302  1  0.97688976  0.38825475  0.50085068  1
  O  O303  1  0.99145338  0.39336278  1.00667838  1
  O  O304  1  0.99867185  0.88186250  0.48595173  1
  O  O305  1  0.98764715  0.87471301  1.00120446  1
  O  O306  1  0.50319167  0.48167916  0.38029420  1
  O  O307  1  0.49714338  0.49716412  0.88380906  1
  O  O308  1  0.48429228  1.00033665  0.38656965  1
  O  O309  1  0.48987810  0.98756004  0.87932171  1
  O  O310  1  0.98810938  0.49471669  0.37499525  1
  O  O311  1  0.98985901  0.51055441  0.88284573  1
  O  O312  1  0.98382262  1.00050417  0.35973654  1
  O  O313  1  1.00778974  0.99359752  0.89375611  1
  O  O314  1  0.01790650  -0.00409011  0.11351491  1
  O  O315  1  -0.00518560  0.02425043  0.65858028  1
  O  O316  1  0.01181532  0.50190139  0.11951737  1
  O  O317  1  -0.00312668  0.50213918  0.62460936  1
  O  O318  1  0.50294543  0.00245610  0.10956056  1
  O  O319  1  0.48644096  0.02194016  0.61489063  1
  O  O320  1  0.52310449  0.51601726  0.12336191  1
  O  O321  1  0.50279685  0.51087900  0.61571112  1
  O  O322  1  0.25192916  0.38376682  0.24245912  1
  O  O323  1  0.24879722  0.38850341  0.74266122  1
  O  O324  1  0.24843752  0.87397475  0.28526922  1
  O  O325  1  0.24695443  0.86343413  0.74261213  1
  O  O326  1  0.75494505  0.37811363  0.23118459  1
  O  O327  1  0.77987459  0.37766531  0.73663510  1
  O  O328  1  0.73708372  0.88350536  0.25369617  1
  O  O329  1  0.74194614  0.89480735  0.75867509  1
  O  O330  1  0.25983321  0.13291642  0.26363848  1
  O  O331  1  0.24398128  0.10752956  0.74125122  1
  O  O332  1  0.26800537  0.61127167  0.24353998  1
  O  O333  1  0.27132310  0.60405797  0.74594683  1
  O  O334  1  0.75842292  0.11485192  0.24354396  1
  O  O335  1  0.73415223  0.12378328  0.77767871  1
  O  O336  1  0.75399066  0.63348312  0.26255169  1
  O  O337  1  0.76783393  0.64129408  0.75815362  1
  O  O338  1  0.37245724  0.13052679  0.36688812  1
  O  O339  1  0.38459574  0.10873953  0.86552549  1
  O  O340  1  0.40402989  0.60379215  0.35170162  1
  O  O341  1  0.39001676  0.61044870  0.86238099  1
  O  O342  1  0.86699397  0.11596873  0.35433783  1
  O  O343  1  0.85828394  0.12769332  0.89019264  1
  O  O344  1  0.85475451  0.60930526  0.36610646  1
  O  O345  1  0.87217595  0.62141091  0.87286840  1
  O  O346  1  0.13544932  0.38353101  0.13589705  1
  O  O347  1  0.12930700  0.39149598  0.63638455  1
  O  O348  1  0.12337440  0.88242061  0.13544286  1
  O  O349  1  0.12340333  0.87183646  0.64013735  1
  O  O350  1  0.64141462  0.39771262  0.11165506  1
  O  O351  1  0.65092538  0.35936548  0.63303904  1
  O  O352  1  0.60397788  0.88297131  0.13607277  1
  O  O353  1  0.61351954  0.87021228  0.64444407  1
  O  O354  1  0.11814874  0.25758294  0.25454961  1
  O  O355  1  0.11640643  0.27535892  0.74381267  1
  O  O356  1  0.12593838  0.74407562  0.25830653  1
  O  O357  1  0.11165003  0.75781096  0.75505048  1
  O  O358  1  0.61576946  0.26685488  0.19896312  1
  O  O359  1  0.55808790  0.25119572  0.82205845  1
  O  O360  1  0.61983906  0.75885675  0.24955293  1
  O  O361  1  0.64299327  0.76564286  0.76210399  1
  O  O362  1  0.37464826  0.23584469  0.24341014  1
  O  O363  1  0.37000192  0.25663574  0.74286030  1
  O  O364  1  0.39303014  0.72744286  0.24637919  1
  O  O365  1  0.37575954  0.72834229  0.75062483  1
  O  O366  1  0.87978720  0.24460531  0.23815631  1
  O  O367  1  0.88488822  0.22307345  0.74580069  1
  O  O368  1  0.86820794  0.74500630  0.23575754  1
  O  O369  1  0.88710765  0.74344974  0.75487496  1
  O  O370  1  0.39995404  0.50496467  0.49512598  1
  O  O371  1  0.37421691  0.49443435  0.98786118  1
  O  O372  1  0.38046369  0.99980404  0.49493276  1
  O  O373  1  0.37964009  0.99304786  0.98069207  1
  O  O374  1  0.87414806  0.49181985  0.47816280  1
  O  O375  1  0.88272448  0.49775557  0.98992393  1
  O  O376  1  0.88710859  1.01599344  0.48197481  1
  O  O377  1  0.88535698  0.98680996  1.01225502  1
  O  O378  1  0.11959550  -0.00671421  0.00625042  1
  O  O379  1  0.12981425  0.02665534  0.50576009  1
  O  O380  1  0.11864833  0.50815083  0.00813943  1
  O  O381  1  0.10000023  0.48481213  0.51213616  1
  O  O382  1  0.61308377  0.00287010  0.00452321  1
  O  O383  1  0.59436871  0.01030641  0.49443532  1
  O  O384  1  0.63503210  0.51814471  -0.00951107  1
  O  O385  1  0.61422257  0.51466214  0.49210326  1
  O  O386  1  0.36114875  0.38590529  0.10835711  1
  O  O387  1  0.36752638  0.37150881  0.63338896  1
  O  O388  1  0.39109725  0.87262834  0.12636165  1
  O  O389  1  0.38851875  0.85559403  0.63372326  1
  O  O390  1  0.86686952  0.37549902  0.11496972  1
  O  O391  1  0.86800716  0.36021601  0.60697560  1
  O  O392  1  0.87630043  0.86316512  0.11959858  1
  O  O393  1  0.84302487  0.88055998  0.62396823  1
  O  O394  1  0.13516642  0.14094435  0.37473063  1
  O  O395  1  0.09933513  0.14440652  0.85049298  1
  O  O396  1  0.11651567  0.61103477  0.38439559  1
  O  O397  1  0.11885486  0.63075250  0.88500596  1
  O  O398  1  0.63945078  0.10880683  0.35824446  1
  O  O399  1  0.61170271  0.12797492  0.89537569  1
  O  O400  1  0.63449913  0.62918832  0.37852147  1
  O  O401  1  0.63682443  0.63377999  0.87372071  1
