# generated using pymatgen
data_V73Zn73O256
_symmetry_space_group_name_H-M   'P 1'
_cell_length_a   16.86945251
_cell_length_b   16.88298373
_cell_length_c   16.87790550
_cell_angle_alpha   90.06590660
_cell_angle_beta   89.92866880
_cell_angle_gamma   90.05555576
_symmetry_Int_Tables_number   1
_chemical_formula_structural   V73Zn73O256
_chemical_formula_sum   'V73 Zn73 O256'
_cell_volume   4806.93127710
_cell_formula_units_Z   1
loop_
 _symmetry_equiv_pos_site_id
 _symmetry_equiv_pos_as_xyz
  1  'x, y, z'
loop_
 _atom_site_type_symbol
 _atom_site_label
 _atom_site_symmetry_multiplicity
 _atom_site_fract_x
 _atom_site_fract_y
 _atom_site_fract_z
 _atom_site_occupancy
  V  V0  1  0.01203145  0.25396290  0.74891460  1
  V  V1  1  0.00494316  0.75192089  0.25974394  1
  V  V2  1  -0.00301077  0.25403541  0.24923258  1
  V  V3  1  0.86828731  0.37617961  0.00676489  1
  V  V4  1  0.24323657  0.62280474  0.88413467  1
  V  V5  1  0.38149541  0.50642419  0.87264041  1
  V  V6  1  0.87601910  0.87219385  0.00348608  1
  V  V7  1  0.47906017  0.73408537  0.23866779  1
  V  V8  1  0.11952224  0.50144461  0.63055741  1
  V  V9  1  0.87676981  0.12529825  0.74709977  1
  V  V10  1  0.00036970  0.00622332  0.01228533  1
  V  V11  1  0.60585784  0.74896046  0.37270861  1
  V  V12  1  0.74584839  0.12841473  0.87472266  1
  V  V13  1  0.87899320  0.73914639  0.12115097  1
  V  V14  1  0.60749227  0.11718871  0.49092794  1
  V  V15  1  0.25371986  0.26118784  0.48767876  1
  V  V16  1  0.01117255  0.73942175  0.74754956  1
  V  V17  1  0.00020056  -0.00266992  0.48704533  1
  V  V18  1  0.25580090  0.10931352  0.37015553  1
  V  V19  1  0.87915362  0.74032523  0.63485381  1
  V  V20  1  0.87466100  0.49988688  0.36992789  1
  V  V21  1  0.74989829  0.25190045  0.01079953  1
  V  V22  1  0.23602578  0.38004423  0.12986588  1
  V  V23  1  0.00836363  0.50603073  0.00132522  1
  V  V24  1  0.12808463  0.12906818  0.49145418  1
  V  V25  1  0.49668311  0.37331982  0.86995509  1
  V  V26  1  0.25751170  0.00560820  0.74775619  1
  V  V27  1  0.00749690  0.87749231  0.86399618  1
  V  V28  1  0.86985104  0.50322952  0.86084305  1
  V  V29  1  0.48996775  0.88932937  0.36695591  1
  V  V30  1  0.24378704  0.49813761  0.25172442  1
  V  V31  1  0.74255003  0.23958907  0.47032630  1
  V  V32  1  0.37570905  0.23886505  0.62573398  1
  V  V33  1  0.74789281  0.74781586  0.50106088  1
  V  V34  1  0.25204197  0.50396901  0.75063713  1
  V  V35  1  0.86361270  0.25539902  0.62113735  1
  V  V36  1  0.73905028  0.49382046  0.23584806  1
  V  V37  1  0.51001012  0.26545455  0.25796828  1
  V  V38  1  0.13421351  0.87405780  0.25842243  1
  V  V39  1  0.12443500  -0.00192004  0.63025183  1
  V  V40  1  0.24102849  0.24950205  0.00977532  1
  V  V41  1  0.49338276  0.12722955  0.11690583  1
  V  V42  1  0.25443511  0.74945056  0.50031343  1
  V  V43  1  0.88176488  0.87299695  0.49372383  1
  V  V44  1  0.25551053  0.37833842  0.62848514  1
  V  V45  1  0.87790004  -0.00079353  0.87164980  1
  V  V46  1  0.25606124  0.63088771  0.37165858  1
  V  V47  1  0.75333442  0.62829946  0.36894454  1
  V  V48  1  0.62422331  0.50065865  0.61569376  1
  V  V49  1  -0.00006008  0.48867483  0.49520175  1
  V  V50  1  0.63756399  0.37997196  0.74406835  1
  V  V51  1  0.74295078  -0.00259504  0.74866198  1
  V  V52  1  0.14621643  -0.00364805  0.12976894  1
  V  V53  1  0.38129963  0.48750239  0.38649309  1
  V  V54  1  0.02036322  0.62446917  0.12434186  1
  V  V55  1  0.00725055  0.37091746  0.86838121  1
  V  V56  1  0.12923906  0.74980132  0.87902572  1
  V  V57  1  0.25500065  0.76095494  0.01209289  1
  V  V58  1  0.24734846  0.86632468  0.63028055  1
  V  V59  1  0.37860559  0.12769142  0.25299149  1
  V  V60  1  0.49556053  0.23511144  0.74725071  1
  V  V61  1  0.00060392  0.12805372  0.62097852  1
  V  V62  1  0.74863784  0.87918840  0.62955713  1
  V  V63  1  0.85326530  -0.00087683  0.36359758  1
  V  V64  1  0.74712066  0.62308719  0.86526621  1
  V  V65  1  0.37926261  0.88964407  0.50323818  1
  V  V66  1  0.62512111  0.61168287  0.01945945  1
  V  V67  1  0.24259888  0.13728893  0.86630279  1
  V  V68  1  0.37767248  0.00149266  0.89271730  1
  V  V69  1  0.37915876  0.37087252  0.00544773  1
  V  V70  1  0.74301877  0.75079132  -0.00525554  1
  V  V71  1  0.11752259  0.63172534  0.49750111  1
  V  V72  1  0.64027441  -0.00258729  0.12268951  1
  Zn  Zn73  1  0.62738452  0.25222717  0.87133287  1
  Zn  Zn74  1  0.61071325  0.61869260  0.50086636  1
  Zn  Zn75  1  0.11497921  0.13255793  0.00665344  1
  Zn  Zn76  1  0.48622860  0.62303185  0.64061129  1
  Zn  Zn77  1  0.50380310  0.73616177  0.78573939  1
  Zn  Zn78  1  0.60265034  0.00697662  0.62052215  1
  Zn  Zn79  1  0.65960364  0.89736391  0.25699000  1
  Zn  Zn80  1  0.86632821  0.37490590  0.50103058  1
  Zn  Zn81  1  0.60861985  0.12027012  -0.00739101  1
  Zn  Zn82  1  0.18788538  0.18288935  0.18655510  1
  Zn  Zn83  1  0.18841674  0.18879620  0.67952941  1
  Zn  Zn84  1  0.18961623  0.68975219  0.19119806  1
  Zn  Zn85  1  0.32425106  0.69395559  0.70929531  1
  Zn  Zn86  1  0.67078140  0.19598435  0.18211277  1
  Zn  Zn87  1  0.67959152  0.17991011  0.68577157  1
  Zn  Zn88  1  0.68954696  0.71594953  0.19044399  1
  Zn  Zn89  1  0.67903064  0.69170963  0.68966801  1
  Zn  Zn90  1  0.32534037  0.31404160  0.30586639  1
  Zn  Zn91  1  0.30923726  0.31552602  0.80819163  1
  Zn  Zn92  1  0.31328681  0.81538093  0.31422497  1
  Zn  Zn93  1  0.36584113  0.78890979  0.88446883  1
  Zn  Zn94  1  0.80527148  0.32143073  0.31083369  1
  Zn  Zn95  1  0.82187866  0.31211424  0.81369888  1
  Zn  Zn96  1  0.81860749  0.81282928  0.30646092  1
  Zn  Zn97  1  0.81485168  0.81103650  0.81411873  1
  Zn  Zn98  1  0.18503615  0.43721550  0.43002748  1
  Zn  Zn99  1  0.18859521  0.43315158  0.93599449  1
  Zn  Zn100  1  0.18613943  0.93572258  0.43937439  1
  Zn  Zn101  1  0.19057528  0.93892251  0.93605356  1
  Zn  Zn102  1  0.70759153  0.44970006  0.47452231  1
  Zn  Zn103  1  0.68341090  0.43846035  0.93858420  1
  Zn  Zn104  1  0.67980945  0.93389717  0.44337166  1
  Zn  Zn105  1  0.68399422  0.93678914  0.94181925  1
  Zn  Zn106  1  0.31449701  0.06840725  0.06507513  1
  Zn  Zn107  1  0.31222018  0.06408979  0.56077712  1
  Zn  Zn108  1  0.30454303  0.55209156  0.05558570  1
  Zn  Zn109  1  0.31330115  0.56496942  0.56301536  1
  Zn  Zn110  1  0.80659178  0.05841765  0.05752248  1
  Zn  Zn111  1  0.81061870  0.06266306  0.55514494  1
  Zn  Zn112  1  0.81573725  0.56476221  0.05439266  1
  Zn  Zn113  1  0.80821576  0.56226342  0.56842175  1
  Zn  Zn114  1  0.42923480  0.44708833  0.19414768  1
  Zn  Zn115  1  0.44029919  0.43539559  0.68490765  1
  Zn  Zn116  1  0.41109181  0.95065628  0.17784536  1
  Zn  Zn117  1  0.39030720  0.88060390  0.73755790  1
  Zn  Zn118  1  0.92880474  0.44931157  0.18464700  1
  Zn  Zn119  1  0.93697268  0.43790885  0.68392154  1
  Zn  Zn120  1  0.93969969  0.92742031  0.19008849  1
  Zn  Zn121  1  0.93573080  0.93481629  0.68203526  1
  Zn  Zn122  1  0.06662641  0.06035095  0.30832327  1
  Zn  Zn123  1  0.06631097  0.06805896  0.81465497  1
  Zn  Zn124  1  0.06479572  0.56656789  0.31396019  1
  Zn  Zn125  1  0.06183533  0.56307693  0.81411251  1
  Zn  Zn126  1  0.56754039  0.06874050  0.30455289  1
  Zn  Zn127  1  0.53293886  0.02761904  0.78577687  1
  Zn  Zn128  1  0.55902685  0.56040133  0.30827165  1
  Zn  Zn129  1  0.56976907  0.55930167  0.81427871  1
  Zn  Zn130  1  0.43653344  0.19368515  0.43504877  1
  Zn  Zn131  1  0.42535127  0.18892263  0.93140278  1
  Zn  Zn132  1  0.43106795  0.67545349  0.45668724  1
  Zn  Zn133  1  0.44489701  0.68959944  1.04743018  1
  Zn  Zn134  1  0.92353079  0.17542741  0.43597911  1
  Zn  Zn135  1  0.93231817  0.18993559  0.93644147  1
  Zn  Zn136  1  0.93470775  0.68437041  0.44302414  1
  Zn  Zn137  1  0.93929331  0.68455880  0.93196118  1
  Zn  Zn138  1  0.06062256  0.32235681  0.05710112  1
  Zn  Zn139  1  0.06937548  0.31580003  0.56039703  1
  Zn  Zn140  1  0.06686321  0.81769448  0.06051706  1
  Zn  Zn141  1  0.06334891  0.81180927  0.56425809  1
  Zn  Zn142  1  0.56438487  0.31190754  0.06795914  1
  Zn  Zn143  1  0.57788113  0.29273284  0.57343540  1
  Zn  Zn144  1  0.51566270  0.85697810  0.09874658  1
  Zn  Zn145  1  0.55887461  0.81965002  0.56099373  1
  O  O146  1  0.12946759  0.10543117  0.12328317  1
  O  O147  1  0.11804964  0.11860251  0.61361139  1
  O  O148  1  0.11890686  0.62481665  0.11869524  1
  O  O149  1  0.13375522  0.60304778  0.60334224  1
  O  O150  1  0.61924395  0.11548236  0.11904024  1
  O  O151  1  0.62384344  0.12079379  0.60902583  1
  O  O152  1  0.64066625  0.63920428  0.11616100  1
  O  O153  1  0.63799208  0.60442666  0.62743907  1
  O  O154  1  0.37177722  0.38650241  0.37826330  1
  O  O155  1  0.38037050  0.37810230  0.87805068  1
  O  O156  1  0.38011734  0.87424728  0.38900903  1
  O  O157  1  0.37445188  0.90195415  0.85913932  1
  O  O158  1  0.86772437  0.39600396  0.38147694  1
  O  O159  1  0.88252296  0.38762420  0.87917293  1
  O  O160  1  0.87303968  0.87460950  0.38817832  1
  O  O161  1  0.88447070  0.88347813  0.88010318  1
  O  O162  1  0.25176620  0.01075727  0.37629060  1
  O  O163  1  0.25151788  0.00874596  0.86552362  1
  O  O164  1  0.25480071  0.50846001  0.37084777  1
  O  O165  1  0.25028631  0.50273681  0.86861529  1
  O  O166  1  0.75319025  -0.01912780  0.36846561  1
  O  O167  1  0.75997489  0.00305941  0.86862187  1
  O  O168  1  0.75619032  0.51338442  0.38215656  1
  O  O169  1  0.76250010  0.50699642  0.87642240  1
  O  O170  1  0.25110108  0.49191297  0.13817566  1
  O  O171  1  0.24407779  0.49548562  0.63218389  1
  O  O172  1  0.24551199  0.99498899  0.12346240  1
  O  O173  1  0.24020533  1.00113626  0.62820122  1
  O  O174  1  0.76399228  0.51255338  0.14041071  1
  O  O175  1  0.73391551  0.48235477  0.59574163  1
  O  O176  1  0.74231854  0.99371854  0.12291956  1
  O  O177  1  0.76518565  0.98844933  0.63337249  1
  O  O178  1  -0.00183275  0.35868157  0.24625210  1
  O  O179  1  -0.00456069  0.36996729  0.76046919  1
  O  O180  1  0.00946353  0.85737623  0.24784884  1
  O  O181  1  -0.00622534  0.86975432  0.75928702  1
  O  O182  1  0.49325122  0.36412444  0.23545936  1
  O  O183  1  0.50525659  0.36642734  0.75879604  1
  O  O184  1  0.48697491  0.85976666  0.26745344  1
  O  O185  1  0.49781277  0.92981607  0.72332616  1
  O  O186  1  0.49001851  0.13614544  0.24786892  1
  O  O187  1  0.50361066  0.13683638  0.74798674  1
  O  O188  1  0.49259782  0.63622578  0.25346947  1
  O  O189  1  0.50708486  0.62845530  0.75525706  1
  O  O190  1  0.99937719  0.14833630  0.25026731  1
  O  O191  1  0.99753748  0.13201507  0.74109834  1
  O  O192  1  1.01105198  0.63384638  0.23318412  1
  O  O193  1  0.99978449  0.64037751  0.75471866  1
  O  O194  1  0.35494648  0.26449617  -0.00798318  1
  O  O195  1  0.36218321  0.24807143  0.51262388  1
  O  O196  1  0.36014087  0.74285041  -0.00886569  1
  O  O197  1  0.35759551  0.75862839  0.50081557  1
  O  O198  1  0.86672770  0.26485983  -0.00497256  1
  O  O199  1  0.86676136  0.24582181  0.50884255  1
  O  O200  1  0.88206169  0.75646575  0.00337698  1
  O  O201  1  0.87107969  0.75481300  0.51086748  1
  O  O202  1  0.14139233  0.23854492  0.50900114  1
  O  O203  1  0.13442372  0.25194643  1.00298538  1
  O  O204  1  0.13154386  0.73787653  0.50729580  1
  O  O205  1  0.13404694  0.75385589  0.98752133  1
  O  O206  1  0.63588025  0.23613860  0.49417566  1
  O  O207  1  0.64009698  0.24783226  0.99230413  1
  O  O208  1  0.63808611  0.76180033  0.48703406  1
  O  O209  1  0.64594158  0.75134853  1.00038331  1
  O  O210  1  0.51325223  0.23475805  0.13801293  1
  O  O211  1  0.48534194  0.25622227  0.63373417  1
  O  O212  1  0.49739685  0.74572721  0.13567128  1
  O  O213  1  0.54012454  0.75350492  0.65202524  1
  O  O214  1  1.00076769  0.25344656  0.14337446  1
  O  O215  1  0.99728528  0.24170736  0.62509511  1
  O  O216  1  1.00012133  0.73747242  0.11890209  1
  O  O217  1  0.99166392  0.75498218  0.63679047  1
  O  O218  1  -0.00989230  0.25248841  0.35394974  1
  O  O219  1  -0.00852604  0.26253876  0.86545052  1
  O  O220  1  -0.00838978  0.73737100  0.35727258  1
  O  O221  1  0.00505128  0.75645647  0.86675712  1
  O  O222  1  0.49068586  0.25578556  0.35852311  1
  O  O223  1  0.49618872  0.25290202  0.86060458  1
  O  O224  1  0.50361973  0.74674434  0.38190430  1
  O  O225  1  0.50585133  0.78480571  0.89626709  1
  O  O226  1  0.24688470  0.13243431  0.48714927  1
  O  O227  1  0.24873388  0.14320596  1.00046123  1
  O  O228  1  0.24139753  0.63246123  0.49188792  1
  O  O229  1  0.24765337  0.62528823  0.98950346  1
  O  O230  1  0.74954357  0.13789098  0.49940224  1
  O  O231  1  0.76431854  0.14062528  0.99044132  1
  O  O232  1  0.74343699  0.63810545  0.49765855  1
  O  O233  1  0.74750661  0.63477673  0.99111177  1
  O  O234  1  0.25130284  0.36812854  0.00905080  1
  O  O235  1  0.24486605  0.36370052  0.50672805  1
  O  O236  1  0.24920810  0.86038946  -0.00260059  1
  O  O237  1  0.25530020  0.86992391  0.50459761  1
  O  O238  1  0.75937077  0.36464647  -0.00971333  1
  O  O239  1  0.75045678  0.34634216  0.48943658  1
  O  O240  1  0.76419622  0.86147139  -0.01476044  1
  O  O241  1  0.76199600  0.86735778  0.50929062  1
  O  O242  1  0.14227135  0.49862029  0.26186975  1
  O  O243  1  0.12891730  0.50780177  0.73562559  1
  O  O244  1  0.12062878  0.99005057  0.23745537  1
  O  O245  1  0.12817938  1.00652408  0.73525269  1
  O  O246  1  0.64018762  0.50879489  0.25182203  1
  O  O247  1  0.63204141  0.48425836  0.74476933  1
  O  O248  1  0.62841818  1.00306865  0.23413643  1
  O  O249  1  0.64085281  1.00623786  0.74419655  1
  O  O250  1  0.37459364  0.02443347  0.25011214  1
  O  O251  1  0.35713785  0.01071169  0.74623657  1
  O  O252  1  0.35481681  0.49863132  0.26659550  1
  O  O253  1  0.36557954  0.49129792  0.76423058  1
  O  O254  1  0.87776369  -0.02056314  0.26699313  1
  O  O255  1  0.87062296  0.00381790  0.75654004  1
  O  O256  1  0.86832631  0.50445220  0.26608272  1
  O  O257  1  0.87935687  0.49888688  0.76100018  1
  O  O258  1  0.11856606  0.36463885  0.38076960  1
  O  O259  1  0.10614739  0.37742482  0.87676559  1
  O  O260  1  0.12354411  0.88497790  0.35891900  1
  O  O261  1  0.11494111  0.86889799  0.87771571  1
  O  O262  1  0.54894225  0.38258162  0.42900775  1
  O  O263  1  0.61414336  0.37513651  0.86619800  1
  O  O264  1  0.60855702  0.86463076  0.37435541  1
  O  O265  1  0.60537862  0.87508294  0.87309375  1
  O  O266  1  0.38362044  0.12861909  0.13483450  1
  O  O267  1  0.36825240  0.13961898  0.62643640  1
  O  O268  1  0.40018473  0.59330477  0.11331214  1
  O  O269  1  0.37128924  0.63194509  0.62964726  1
  O  O270  1  0.83959529  0.11973765  0.16546591  1
  O  O271  1  0.88539573  0.13207973  0.62549248  1
  O  O272  1  0.89025185  0.63654510  0.11494224  1
  O  O273  1  0.87020588  0.64159144  0.62293427  1
  O  O274  1  0.24511388  0.26153891  0.11741295  1
  O  O275  1  0.25998782  0.25821997  0.62342163  1
  O  O276  1  0.24831003  0.74216033  0.11023899  1
  O  O277  1  0.24591394  0.76358681  0.62320735  1
  O  O278  1  0.74572771  0.25067179  0.10953967  1
  O  O279  1  0.76523566  0.24494946  0.63319320  1
  O  O280  1  0.77289048  0.74217364  0.10436791  1
  O  O281  1  0.75957599  0.76000457  0.62340252  1
  O  O282  1  0.25682934  0.25186291  0.38748090  1
  O  O283  1  0.24703772  0.24211471  0.87815417  1
  O  O284  1  0.24943719  0.73809197  0.38257856  1
  O  O285  1  0.24430402  0.73910433  0.88223209  1
  O  O286  1  0.75947392  0.23800631  0.37110913  1
  O  O287  1  0.75382141  0.23907126  0.87484548  1
  O  O288  1  0.75256282  0.73994879  0.38384722  1
  O  O289  1  0.76341035  0.73576382  0.88487514  1
  O  O290  1  -0.00363234  0.11075238  -0.00714011  1
  O  O291  1  0.00673695  0.12052235  0.50302902  1
  O  O292  1  0.00098612  0.61227638  0.00210620  1
  O  O293  1  0.01320529  0.62005441  0.49820364  1
  O  O294  1  0.49261512  0.14045754  0.01199989  1
  O  O295  1  0.50715541  0.13068301  0.49803921  1
  O  O296  1  0.52827544  0.63276595  -0.00395939  1
  O  O297  1  0.50967083  0.65815750  0.53155677  1
  O  O298  1  0.50790579  0.36346747  0.48705082  1
  O  O299  1  0.48427418  0.35943306  0.98782643  1
  O  O300  1  0.48487152  0.87139513  0.49062396  1
  O  O301  1  0.54399870  0.85238915  0.92070153  1
  O  O302  1  0.99732426  0.38613423  0.49866780  1
  O  O303  1  0.98821628  0.38098537  0.98890165  1
  O  O304  1  0.99340552  0.88529297  0.50797589  1
  O  O305  1  0.99382603  0.88787473  0.98844209  1
  O  O306  1  0.48047396  0.51042875  0.37169931  1
  O  O307  1  0.48790595  0.48934685  0.87119156  1
  O  O308  1  0.50151168  0.98665637  0.36391393  1
  O  O309  1  0.47712216  1.02487096  0.88212176  1
  O  O310  1  0.98607607  0.51071099  0.38410744  1
  O  O311  1  0.99169522  0.49373999  0.88104125  1
  O  O312  1  0.99957415  1.00520441  0.38569437  1
  O  O313  1  0.99309459  0.99613161  0.87602261  1
  O  O314  1  -0.01266252  0.00123844  0.11149199  1
  O  O315  1  0.00339588  0.01069082  0.61746794  1
  O  O316  1  -0.00490162  0.51270390  0.11344208  1
  O  O317  1  0.01165845  0.49565530  0.61414865  1
  O  O318  1  0.50445639  0.02427093  0.12991420  1
  O  O319  1  0.50574080  -0.05413445  0.64187772  1
  O  O320  1  0.45792555  0.53710783  0.12119651  1
  O  O321  1  0.51727604  0.50154635  0.63501433  1
  O  O322  1  0.25261343  0.38001752  0.23686519  1
  O  O323  1  0.24673162  0.38866371  0.74265346  1
  O  O324  1  0.23435329  0.86465471  0.24890801  1
  O  O325  1  0.25390277  0.88728239  0.73133998  1
  O  O326  1  0.75163134  0.39359726  0.24682137  1
  O  O327  1  0.73484508  0.36168280  0.75639776  1
  O  O328  1  0.73340646  0.81856842  0.23645504  1
  O  O329  1  0.75685517  0.88080267  0.73963686  1
  O  O330  1  0.25669287  0.13570475  0.26477246  1
  O  O331  1  0.23878801  0.12380545  0.76083278  1
  O  O332  1  0.24350229  0.61740471  0.26391305  1
  O  O333  1  0.25558339  0.61268293  0.76530740  1
  O  O334  1  0.78651660  0.13260982  0.21666691  1
  O  O335  1  0.75742688  0.11732245  0.75546903  1
  O  O336  1  0.74829691  0.62502576  0.26793549  1
  O  O337  1  0.74392822  0.63599699  0.76604540  1
  O  O338  1  0.36362296  0.12841660  0.36841529  1
  O  O339  1  0.34961364  0.11696428  0.88101094  1
  O  O340  1  0.35835826  0.62128317  0.38347282  1
  O  O341  1  0.36580923  0.60538948  0.88160502  1
  O  O342  1  0.86783959  0.09948402  0.37459242  1
  O  O343  1  0.87061400  0.11561487  0.86755989  1
  O  O344  1  0.86009516  0.61738105  0.38506513  1
  O  O345  1  0.86792191  0.61028642  0.87888616  1
  O  O346  1  0.13658526  0.38011563  0.12245255  1
  O  O347  1  0.13733373  0.39159613  0.61678410  1
  O  O348  1  0.11849432  0.89003884  0.13271775  1
  O  O349  1  0.13727284  0.88733414  0.61376202  1
  O  O350  1  0.60989968  0.40469910  0.10917900  1
  O  O351  1  0.62074939  0.37852011  0.63732737  1
  O  O352  1  0.61649442  0.89389876  0.12135415  1
  O  O353  1  0.64937057  0.88261403  0.61268796  1
  O  O354  1  0.10241415  0.25113330  0.25082963  1
  O  O355  1  0.11146149  0.24916686  0.74069083  1
  O  O356  1  0.11518489  0.75942066  0.24596971  1
  O  O357  1  0.11134007  0.75439414  0.76091657  1
  O  O358  1  0.61337807  0.25159809  0.25864024  1
  O  O359  1  0.60970546  0.25669645  0.74669860  1
  O  O360  1  0.60137641  0.74628728  0.26793071  1
  O  O361  1  0.59684431  0.76996798  0.71735847  1
  O  O362  1  0.38249481  0.23773622  0.24583460  1
  O  O363  1  0.38379184  0.25264870  0.73962562  1
  O  O364  1  0.37960903  0.74660826  0.25226596  1
  O  O365  1  0.38952393  0.76690131  0.77046367  1
  O  O366  1  0.89257630  0.25341795  0.24459940  1
  O  O367  1  0.88712013  0.24518765  0.73685805  1
  O  O368  1  0.89264387  0.75412987  0.22851084  1
  O  O369  1  0.88323631  0.75349759  0.73897164  1
  O  O370  1  0.36637270  0.50087481  0.48730593  1
  O  O371  1  0.36230070  0.47977689  0.98092906  1
  O  O372  1  0.37312313  0.98901679  0.50105181  1
  O  O373  1  0.36337540  0.99720524  0.99136148  1
  O  O374  1  0.88891772  0.50195467  0.50000007  1
  O  O375  1  0.88216724  0.48999819  0.98948811  1
  O  O376  1  0.88073041  0.99125826  0.48994004  1
  O  O377  1  0.88135685  0.99468968  0.99111578  1
  O  O378  1  0.11130643  -0.00456084  0.01272745  1
  O  O379  1  0.11866483  0.00924120  0.50640974  1
  O  O380  1  0.10662153  0.49114586  -0.00366719  1
  O  O381  1  0.11106517  0.50352042  0.49886093  1
  O  O382  1  0.62985933  0.00736970  0.01100234  1
  O  O383  1  0.62270442  0.00876654  0.50505862  1
  O  O384  1  0.63486963  0.50918549  0.01191081  1
  O  O385  1  0.60996836  0.49959505  0.50813879  1
  O  O386  1  0.36724298  0.38281778  0.10725412  1
  O  O387  1  0.36182073  0.37045902  0.62700651  1
  O  O388  1  0.40964051  0.88165555  0.09478794  1
  O  O389  1  0.35714405  0.87788381  0.61270194  1
  O  O390  1  0.87756498  0.38253197  0.10606579  1
  O  O391  1  0.88124996  0.35855288  0.62086877  1
  O  O392  1  0.88669993  0.86163675  0.10890066  1
  O  O393  1  0.86976862  0.86566703  0.61483807  1
  O  O394  1  0.13738686  0.12139107  0.38230455  1
  O  O395  1  0.13900580  0.11730482  0.88890636  1
  O  O396  1  0.13646174  0.61891215  0.39063037  1
  O  O397  1  0.13231324  0.63506377  0.87176983  1
  O  O398  1  0.62487053  0.11585892  0.39014022  1
  O  O399  1  0.64149405  0.12411898  0.87685029  1
  O  O400  1  0.63262319  0.63822005  0.38214897  1
  O  O401  1  0.64481090  0.61241785  0.88805637  1
