# generated using pymatgen
data_V73Zn73O256
_symmetry_space_group_name_H-M   'P 1'
_cell_length_a   16.90556611
_cell_length_b   16.88619655
_cell_length_c   16.90401150
_cell_angle_alpha   90.07381052
_cell_angle_beta   89.83794263
_cell_angle_gamma   90.02696514
_symmetry_Int_Tables_number   1
_chemical_formula_structural   V73Zn73O256
_chemical_formula_sum   'V73 Zn73 O256'
_cell_volume   4825.57636702
_cell_formula_units_Z   1
loop_
 _symmetry_equiv_pos_site_id
 _symmetry_equiv_pos_as_xyz
  1  'x, y, z'
loop_
 _atom_site_type_symbol
 _atom_site_label
 _atom_site_symmetry_multiplicity
 _atom_site_fract_x
 _atom_site_fract_y
 _atom_site_fract_z
 _atom_site_occupancy
  V  V0  1  0.01417479  0.50800353  0.01494102  1
  V  V1  1  0.64543115  0.48986518  0.13050232  1
  V  V2  1  0.63189706  0.26346569  0.87267943  1
  V  V3  1  0.74443379  0.11804726  0.38675979  1
  V  V4  1  0.50310266  0.11693299  0.61582640  1
  V  V5  1  0.12012112  0.86597291  0.25339024  1
  V  V6  1  0.38270954  0.11943767  0.23596742  1
  V  V7  1  0.38566845  0.74425878  0.13134000  1
  V  V8  1  0.87389055  0.12361227  0.74964734  1
  V  V9  1  0.74255801  0.25348889  0.50483604  1
  V  V10  1  0.12869459  0.12691468  -0.00030023  1
  V  V11  1  0.00083373  0.87516014  0.87933231  1
  V  V12  1  0.75837391  0.60866844  0.37848267  1
  V  V13  1  0.25447304  0.73616735  -0.00716862  1
  V  V14  1  0.28960339  0.50176599  0.25957677  1
  V  V15  1  0.36857574  0.12886944  0.75514773  1
  V  V16  1  0.11153585  0.39667402  0.24765044  1
  V  V17  1  0.50233675  0.00311733  -0.00480739  1
  V  V18  1  0.35998028  0.25142420  0.61967878  1
  V  V19  1  -0.01879715  0.75582662  0.24079132  1
  V  V20  1  0.75549675  0.86734277  0.12590313  1
  V  V21  1  0.64667897  -0.00672840  0.63167094  1
  V  V22  1  0.88139185  0.38401705  0.48637161  1
  V  V23  1  0.87241061  0.00325643  0.87497136  1
  V  V24  1  0.62527306  0.13090813  -0.00155910  1
  V  V25  1  -0.03928187  0.61273599  0.63871151  1
  V  V26  1  0.61026912  0.76131451  0.88977770  1
  V  V27  1  0.87275448  0.60591922  0.24338709  1
  V  V28  1  0.76048467  0.01154447  0.24858432  1
  V  V29  1  0.11891103  0.00671993  0.61187600  1
  V  V30  1  0.61120023  0.25077281  0.37189323  1
  V  V31  1  0.37775040  0.87816581  -0.00563300  1
  V  V32  1  0.48162961  0.37517102  0.88580961  1
  V  V33  1  0.12832934  0.74336442  0.87645525  1
  V  V34  1  0.12839745  0.60371930  0.50086342  1
  V  V35  1  0.37610236  0.00209146  0.87317258  1
  V  V36  1  0.50154623  0.51346404  0.48359245  1
  V  V37  1  0.49963519  0.25892268  0.74936394  1
  V  V38  1  0.87351519  0.86524314  0.00338902  1
  V  V39  1  0.00263505  0.25509188  0.75545150  1
  V  V40  1  0.38752956  0.74277915  0.63081136  1
  V  V41  1  0.25092052  0.86868587  0.12758600  1
  V  V42  1  0.00408939  0.12906439  0.61395287  1
  V  V43  1  0.24561520  0.01104307  0.75887934  1
  V  V44  1  0.75841267  0.76599181  0.50607458  1
  V  V45  1  0.50821723  0.51141257  0.00239132  1
  V  V46  1  -0.00226095  0.00817607  0.00688653  1
  V  V47  1  0.90099069  -0.00123129  0.41213493  1
  V  V48  1  0.61350832  0.47251733  0.62334727  1
  V  V49  1  0.12910657  0.38863281  0.75336332  1
  V  V50  1  0.37088544  0.51945191  0.87654496  1
  V  V51  1  0.10520430  0.76223146  0.39308676  1
  V  V52  1  0.89595066  0.25240110  0.12313884  1
  V  V53  1  0.38233939  0.37581172  0.48705111  1
  V  V54  1  0.74785775  0.12606461  0.87339969  1
  V  V55  1  0.62773919  0.74131335  0.38190146  1
  V  V56  1  0.25252865  0.75817329  0.50421742  1
  V  V57  1  0.24784515  0.13078245  0.38125205  1
  V  V58  1  0.12034941  0.87967460  0.75537717  1
  V  V59  1  0.62146352  0.01065790  0.12597245  1
  V  V60  1  0.87975180  0.37152254  -0.00937021  1
  V  V61  1  0.24915998  0.87825812  0.62523913  1
  V  V62  1  0.49938916  0.87532183  0.38787109  1
  V  V63  1  0.87202332  0.25791706  0.62552468  1
  V  V64  1  0.13645031  0.24358782  0.86545627  1
  V  V65  1  0.12312446  0.00097023  0.12628010  1
  V  V66  1  0.00452474  0.21471499  0.25290185  1
  V  V67  1  0.38093020  -0.00402202  0.38885716  1
  V  V68  1  0.61942987  0.87288962  0.25036004  1
  V  V69  1  0.49767491  0.25273089  0.23062926  1
  V  V70  1  0.25845986  0.25326036  0.01051359  1
  V  V71  1  0.88642994  0.50557080  0.86745601  1
  V  V72  1  0.25003643  0.39268796  0.61910970  1
  Zn  Zn73  1  0.50946288  0.63146174  0.15258648  1
  Zn  Zn74  1  0.25332889  -0.00449926  0.25242052  1
  Zn  Zn75  1  0.26600260  0.52118746  0.74685705  1
  Zn  Zn76  1  0.75676041  0.48875297  0.74451646  1
  Zn  Zn77  1  0.59651149  -0.10938749  0.76374680  1
  Zn  Zn78  1  0.11493751  0.25920957  0.38240844  1
  Zn  Zn79  1  0.25719744  0.38095098  0.12386127  1
  Zn  Zn80  1  0.25495534  0.62774904  0.36254278  1
  Zn  Zn81  1  0.64653024  0.63647049  0.00920798  1
  Zn  Zn82  1  0.19114527  0.18400272  0.19375403  1
  Zn  Zn83  1  0.18400527  0.18875522  0.55251883  1
  Zn  Zn84  1  0.16997630  0.57066898  0.15655854  1
  Zn  Zn85  1  0.17251923  0.68665290  0.68351809  1
  Zn  Zn86  1  0.68796839  0.18717246  0.19284742  1
  Zn  Zn87  1  0.68320876  0.18604653  0.68928253  1
  Zn  Zn88  1  0.69119915  0.67756439  0.19217547  1
  Zn  Zn89  1  0.77459322  0.67697797  0.69124615  1
  Zn  Zn90  1  0.31400605  0.30857876  0.30045540  1
  Zn  Zn91  1  0.30733152  0.31637469  0.80814530  1
  Zn  Zn92  1  0.31708271  0.79712046  0.32364578  1
  Zn  Zn93  1  0.31575782  0.81334166  0.80853881  1
  Zn  Zn94  1  0.82761477  0.29779311  0.31582821  1
  Zn  Zn95  1  0.81319069  0.32198255  0.81132756  1
  Zn  Zn96  1  0.81001491  0.82829044  0.32714411  1
  Zn  Zn97  1  0.75729669  0.62474664  0.87623743  1
  Zn  Zn98  1  0.20256873  0.42956600  0.42249610  1
  Zn  Zn99  1  0.18765136  0.43702759  0.93731123  1
  Zn  Zn100  1  0.18918580  0.93982646  0.43395962  1
  Zn  Zn101  1  0.19064290  0.93735886  0.94108215  1
  Zn  Zn102  1  0.67686491  0.43226127  0.43816265  1
  Zn  Zn103  1  0.70134381  0.43846306  0.94876264  1
  Zn  Zn104  1  0.68112924  0.94314398  0.44500849  1
  Zn  Zn105  1  0.69137039  0.93727244  0.93597277  1
  Zn  Zn106  1  0.30601060  0.06160005  0.05963512  1
  Zn  Zn107  1  0.31645603  0.05921800  0.56604807  1
  Zn  Zn108  1  0.32594572  0.55704283  0.06616395  1
  Zn  Zn109  1  0.32392216  0.56879637  0.55045777  1
  Zn  Zn110  1  0.80927293  0.07239124  0.06344391  1
  Zn  Zn111  1  0.81311156  0.06352032  0.56688498  1
  Zn  Zn112  1  0.82246163  0.56756592  0.05195063  1
  Zn  Zn113  1  0.78831078  0.55803056  0.55716363  1
  Zn  Zn114  1  0.44326006  0.43080125  0.17807335  1
  Zn  Zn115  1  0.46873201  0.47181376  0.70830099  1
  Zn  Zn116  1  0.43733180  0.93972777  0.18446402  1
  Zn  Zn117  1  0.43735872  0.93384094  0.68765834  1
  Zn  Zn118  1  0.93586036  0.43449221  0.17995158  1
  Zn  Zn119  1  0.94425788  0.43673876  0.68011938  1
  Zn  Zn120  1  0.93921106  0.93672268  0.18916185  1
  Zn  Zn121  1  0.93790992  0.93815052  0.68276000  1
  Zn  Zn122  1  0.06587202  0.05153871  0.31813699  1
  Zn  Zn123  1  0.05793220  0.06706190  0.81287058  1
  Zn  Zn124  1  0.06292828  0.58327311  0.30925191  1
  Zn  Zn125  1  0.05099538  0.57025851  0.80762043  1
  Zn  Zn126  1  0.56327600  0.06388194  0.31537175  1
  Zn  Zn127  1  0.55797092  0.06933171  0.80784901  1
  Zn  Zn128  1  0.56794679  0.53794406  0.30667577  1
  Zn  Zn129  1  0.61569945  0.58648133  0.79137367  1
  Zn  Zn130  1  0.42948937  0.18408411  0.43757923  1
  Zn  Zn131  1  0.44023167  0.18700712  0.93899353  1
  Zn  Zn132  1  0.45041398  0.66537153  0.34952662  1
  Zn  Zn133  1  0.44314855  0.68953745  0.93596151  1
  Zn  Zn134  1  0.92734209  0.18520530  0.43430474  1
  Zn  Zn135  1  0.94426659  0.18929596  0.93549478  1
  Zn  Zn136  1  0.92967724  0.67863522  0.44868597  1
  Zn  Zn137  1  0.94110831  0.68327552  0.93668826  1
  Zn  Zn138  1  0.06790952  0.32025839  0.06546822  1
  Zn  Zn139  1  0.06170650  0.32448188  0.56276383  1
  Zn  Zn140  1  0.08867094  0.75202965  0.08912959  1
  Zn  Zn141  1  0.01597469  0.79437964  0.56716437  1
  Zn  Zn142  1  0.56435848  0.31484508  0.06015022  1
  Zn  Zn143  1  0.55593413  0.30109174  0.55884012  1
  Zn  Zn144  1  0.56311853  0.82208073  0.06517041  1
  Zn  Zn145  1  0.57596757  0.82029824  0.56832098  1
  O  O146  1  0.13274604  0.10701485  0.11974730  1
  O  O147  1  0.12123717  0.11563265  0.62114965  1
  O  O148  1  0.10637045  0.65084956  0.12940171  1
  O  O149  1  0.11638237  0.63017967  0.59767507  1
  O  O150  1  0.63882759  0.12157117  0.11151089  1
  O  O151  1  0.60843368  0.11619013  0.63436825  1
  O  O152  1  0.62408503  0.61557736  0.12320193  1
  O  O153  1  0.57727127  0.65368390  0.63657723  1
  O  O154  1  0.36834780  0.35956568  0.39062815  1
  O  O155  1  0.38146550  0.36906737  0.88138860  1
  O  O156  1  0.39047096  0.88290503  0.36847580  1
  O  O157  1  0.36827862  0.88736128  0.88503883  1
  O  O158  1  0.87455505  0.37068796  0.38613268  1
  O  O159  1  0.88651534  0.37283470  0.88527699  1
  O  O160  1  0.86956029  0.91098736  0.37327657  1
  O  O161  1  0.88030336  0.89058855  0.89262781  1
  O  O162  1  0.26647693  -0.00118647  0.37250616  1
  O  O163  1  0.25995507  -0.00031255  0.86856936  1
  O  O164  1  0.26803428  0.50620958  0.36492585  1
  O  O165  1  0.26987239  0.49633678  0.88121485  1
  O  O166  1  0.73865218  0.00905119  0.36377241  1
  O  O167  1  0.76340649  0.00994357  0.87705727  1
  O  O168  1  0.73872085  0.51090100  0.38010628  1
  O  O169  1  0.77375862  0.49462312  0.87868962  1
  O  O170  1  0.25757064  0.50054401  0.13629803  1
  O  O171  1  0.26443782  0.49391859  0.62665078  1
  O  O172  1  0.24049178  0.98508278  0.12523275  1
  O  O173  1  0.23821954  0.99710588  0.63342597  1
  O  O174  1  0.74287433  0.50358676  0.10949773  1
  O  O175  1  0.71188626  0.50947017  0.62896124  1
  O  O176  1  0.74240234  1.00186635  0.13450960  1
  O  O177  1  0.74601308  1.00897263  0.63944478  1
  O  O178  1  0.01278170  0.37906097  0.24896107  1
  O  O179  1  0.02126045  0.36444785  0.73442588  1
  O  O180  1  0.01150915  0.87162247  0.24944405  1
  O  O181  1  0.00780123  0.88776610  0.77114442  1
  O  O182  1  0.49277613  0.35155330  0.24696360  1
  O  O183  1  0.49295616  0.36363333  0.76473771  1
  O  O184  1  0.51797751  0.88085867  0.24458555  1
  O  O185  1  0.48696783  0.86853962  0.75865159  1
  O  O186  1  0.48798382  0.12590092  0.25232246  1
  O  O187  1  0.48482862  0.13776935  0.74544026  1
  O  O188  1  0.50851590  0.62291792  0.26523746  1
  O  O189  1  0.55551816  0.66741550  0.70574137  1
  O  O190  1  1.00077618  0.11543016  0.24538986  1
  O  O191  1  0.99229204  0.13646645  0.74436596  1
  O  O192  1  0.97994192  0.64622950  0.25903712  1
  O  O193  1  1.00069881  0.63728239  0.72935154  1
  O  O194  1  0.35633736  0.23844626  -0.00626873  1
  O  O195  1  0.37499695  0.25638857  0.51484336  1
  O  O196  1  0.36992624  0.76075334  -0.00300173  1
  O  O197  1  0.35013648  0.76337912  0.51707127  1
  O  O198  1  0.89929222  0.26159225  0.00934749  1
  O  O199  1  0.86460951  0.25532668  0.50729674  1
  O  O200  1  0.87984222  0.76801611  -0.00691123  1
  O  O201  1  0.85683137  0.76168939  0.48289391  1
  O  O202  1  0.12430207  0.26127890  0.49448896  1
  O  O203  1  0.12726403  0.24283236  0.98960094  1
  O  O204  1  0.10674631  0.76685673  0.49755755  1
  O  O205  1  0.14526285  0.75735218  0.98975924  1
  O  O206  1  0.63700973  0.24700378  0.49116008  1
  O  O207  1  0.61698789  0.24073810  0.98329811  1
  O  O208  1  0.62789204  0.75273405  0.48501015  1
  O  O209  1  0.62451257  0.75817979  0.99367666  1
  O  O210  1  0.50884683  0.24412346  0.13144926  1
  O  O211  1  0.49078677  0.24143611  0.63535883  1
  O  O212  1  0.48976288  0.75257456  0.11654263  1
  O  O213  1  0.48125441  0.77307675  0.61406846  1
  O  O214  1  1.00065016  0.23883859  0.13273382  1
  O  O215  1  0.99318333  0.24523174  0.63481092  1
  O  O216  1  0.98648155  0.76349305  0.14103196  1
  O  O217  1  0.97373147  0.68464077  0.56228602  1
  O  O218  1  -0.00173307  0.23114460  0.35806355  1
  O  O219  1  0.01172704  0.24852729  0.86184449  1
  O  O220  1  0.00520733  0.75195619  0.37788862  1
  O  O221  1  0.01668889  0.76553788  0.89069140  1
  O  O222  1  0.51052528  0.24388374  0.38057950  1
  O  O223  1  0.50628570  0.25919435  0.87152458  1
  O  O224  1  0.51909287  0.76815387  0.36878654  1
  O  O225  1  0.51170899  0.75300417  0.87158328  1
  O  O226  1  0.25700710  0.12232783  0.48881583  1
  O  O227  1  0.23566370  0.13164668  1.00015761  1
  O  O228  1  0.23858539  0.64532006  0.50156170  1
  O  O229  1  0.26053720  0.63859582  1.00005700  1
  O  O230  1  0.75045794  0.12934266  0.49181130  1
  O  O231  1  0.73836676  0.12363061  0.98314485  1
  O  O232  1  0.75187124  0.63849456  0.47986484  1
  O  O233  1  0.75994782  0.63716902  0.98845982  1
  O  O234  1  0.24021239  0.35573110  0.00227816  1
  O  O235  1  0.26294061  0.38148376  0.51381369  1
  O  O236  1  0.26149914  0.87534221  0.00864555  1
  O  O237  1  0.23581454  0.87547116  0.51969463  1
  O  O238  1  0.77801199  0.36947997  -0.00060344  1
  O  O239  1  0.75424084  0.35535241  0.49515152  1
  O  O240  1  0.76221663  0.88413334  0.01387598  1
  O  O241  1  0.73957139  0.86613375  0.50324895  1
  O  O242  1  0.11776407  0.50181811  0.24815769  1
  O  O243  1  0.12125070  0.48780039  0.75945007  1
  O  O244  1  0.12763606  0.98475635  0.24193628  1
  O  O245  1  0.13203172  0.99907066  0.75498406  1
  O  O246  1  0.63692013  0.49247974  0.23155099  1
  O  O247  1  0.58477465  0.50154504  0.72594703  1
  O  O248  1  0.63155753  0.99831174  0.24086972  1
  O  O249  1  0.61827574  1.00360295  0.74087553  1
  O  O250  1  0.37632352  0.00669696  0.25634139  1
  O  O251  1  0.36599543  0.00829345  0.75664147  1
  O  O252  1  0.38922056  0.50325084  0.25275356  1
  O  O253  1  0.37926306  0.49720063  0.77014195  1
  O  O254  1  0.85963250  0.00323315  0.23999992  1
  O  O255  1  0.88790597  0.01328278  0.76128002  1
  O  O256  1  0.88248901  0.50710895  0.25142780  1
  O  O257  1  0.88180900  0.48345035  0.76488045  1
  O  O258  1  0.13920940  0.37024939  0.34889309  1
  O  O259  1  0.13288354  0.36281644  0.85846316  1
  O  O260  1  0.12289508  0.87359211  0.36336894  1
  O  O261  1  0.11808566  0.87753942  0.87388178  1
  O  O262  1  0.63561387  0.34802702  0.37111346  1
  O  O263  1  0.62523444  0.36349297  0.88076138  1
  O  O264  1  0.61628526  0.88416490  0.36214882  1
  O  O265  1  0.62388269  0.87017188  0.87622613  1
  O  O266  1  0.37305748  0.11312773  0.13680467  1
  O  O267  1  0.37796395  0.13566159  0.63298489  1
  O  O268  1  0.38595255  0.64094653  0.12156503  1
  O  O269  1  0.38079923  0.64263271  0.61445774  1
  O  O270  1  0.83565551  0.16859241  0.11850639  1
  O  O271  1  0.88287045  0.13413417  0.63483731  1
  O  O272  1  0.86589270  0.62344836  0.14506216  1
  O  O273  1  0.85582609  0.60511507  0.64188270  1
  O  O274  1  0.24650407  0.24496549  0.11293528  1
  O  O275  1  0.25899125  0.24817455  0.62544416  1
  O  O276  1  0.26575178  0.75879468  0.10576503  1
  O  O277  1  0.23173939  0.76780920  0.61900930  1
  O  O278  1  0.74092870  0.29419959  0.17418107  1
  O  O279  1  0.75534764  0.23646457  0.61139788  1
  O  O280  1  0.74699604  0.77015537  0.13413876  1
  O  O281  1  0.74176381  0.73836459  0.60329346  1
  O  O282  1  0.25183643  0.23197959  0.36795754  1
  O  O283  1  0.23906031  0.24918449  0.87953810  1
  O  O284  1  0.22735356  0.77702606  0.40268312  1
  O  O285  1  0.24309486  0.75780016  0.88430249  1
  O  O286  1  0.75322570  0.23177722  0.38333246  1
  O  O287  1  0.73668166  0.24371539  0.86975383  1
  O  O288  1  0.73516103  0.76013150  0.38018152  1
  O  O289  1  0.72527570  0.75731031  0.84433774  1
  O  O290  1  0.01203458  0.11605823  -0.00201262  1
  O  O291  1  -0.00661770  0.13493568  0.51604591  1
  O  O292  1  -0.00393708  0.60981364  0.00026923  1
  O  O293  1  0.01858115  0.58496375  0.46291916  1
  O  O294  1  0.51246242  0.11552881  -0.00449943  1
  O  O295  1  0.49456537  0.13254183  0.51741811  1
  O  O296  1  0.50797349  0.61395039  -0.00293299  1
  O  O297  1  0.48881692  0.60970383  0.46368984  1
  O  O298  1  0.48304484  0.36772494  0.50177222  1
  O  O299  1  0.50190400  0.38048833  0.98790313  1
  O  O300  1  0.50827159  0.87723983  0.48490617  1
  O  O301  1  0.48873022  0.89141542  1.00488371  1
  O  O302  1  0.98053035  0.37905846  0.50757838  1
  O  O303  1  0.99478678  0.38827138  1.00878457  1
  O  O304  1  0.93996536  0.85454572  0.61262849  1
  O  O305  1  0.98477420  0.89075234  0.99602477  1
  O  O306  1  0.52299261  0.47631044  0.39028301  1
  O  O307  1  0.49081825  0.48440273  0.88147046  1
  O  O308  1  0.49152189  0.99029943  0.37177952  1
  O  O309  1  0.48924050  1.00493817  0.88333333  1
  O  O310  1  1.01676412  0.52903516  0.40387186  1
  O  O311  1  0.99205633  0.50141039  0.88089053  1
  O  O312  1  1.00068183  1.00458998  0.39582227  1
  O  O313  1  0.99233694  0.99825923  0.88685137  1
  O  O314  1  0.01153445  -0.00832482  0.11653312  1
  O  O315  1  0.01451471  0.01545122  0.63504180  1
  O  O316  1  0.00218175  0.50311561  0.11608093  1
  O  O317  1  -0.00817048  0.51812054  0.61762036  1
  O  O318  1  0.51478996  -0.00031652  0.11487689  1
  O  O319  1  0.48383374  0.01764850  0.62686523  1
  O  O320  1  0.50939314  0.50176393  0.10952951  1
  O  O321  1  0.50476812  0.49869734  0.60165618  1
  O  O322  1  0.25868094  0.39409318  0.24810493  1
  O  O323  1  0.24268276  0.38417133  0.74018498  1
  O  O324  1  0.24003044  0.86632211  0.24309704  1
  O  O325  1  0.24020475  0.88926715  0.74503893  1
  O  O326  1  0.74627445  0.34091905  0.23498172  1
  O  O327  1  0.74262962  0.37775881  0.74840489  1
  O  O328  1  0.74339734  0.89194225  0.24077562  1
  O  O329  1  0.79952549  0.85267737  0.70858007  1
  O  O330  1  0.26574125  0.11925272  0.25958376  1
  O  O331  1  0.26022165  0.11617263  0.74552154  1
  O  O332  1  0.25153848  0.60036288  0.24626318  1
  O  O333  1  0.22384256  0.62208381  0.75446553  1
  O  O334  1  0.74894212  0.11672198  0.26230660  1
  O  O335  1  0.76389244  0.13358534  0.75999501  1
  O  O336  1  0.76537959  0.63152041  0.26580654  1
  O  O337  1  0.73081018  0.60148128  0.76443012  1
  O  O338  1  0.37027890  0.10957823  0.37092588  1
  O  O339  1  0.37860075  0.11678427  0.86511533  1
  O  O340  1  0.34660313  0.69264973  0.36923123  1
  O  O341  1  0.37792696  0.61910251  0.87400309  1
  O  O342  1  0.86073244  0.10041606  0.38474800  1
  O  O343  1  0.87016059  0.12338243  0.87011215  1
  O  O344  1  0.86434184  0.62098568  0.36985191  1
  O  O345  1  0.88015751  0.61149164  0.86928690  1
  O  O346  1  0.13771264  0.36721999  0.14797600  1
  O  O347  1  0.14420431  0.37340158  0.63485208  1
  O  O348  1  0.13367161  0.86997636  0.13560250  1
  O  O349  1  0.12594548  0.89432094  0.64257629  1
  O  O350  1  0.62952773  0.39067885  0.10896151  1
  O  O351  1  0.61775271  0.37224382  0.62480659  1
  O  O352  1  0.63748269  0.88764017  0.13186557  1
  O  O353  1  0.62777986  0.88709851  0.64483998  1
  O  O354  1  0.10950042  0.24028301  0.25354940  1
  O  O355  1  0.12243113  0.24984995  0.76124987  1
  O  O356  1  0.10808168  0.76164406  0.26508305  1
  O  O357  1  0.13126116  0.76940865  0.76649084  1
  O  O358  1  0.60573255  0.23326153  0.26202392  1
  O  O359  1  0.61252016  0.24282811  0.76482370  1
  O  O360  1  0.63628523  0.77055358  0.25628473  1
  O  O361  1  0.67263822  0.75979657  0.78361531  1
  O  O362  1  0.38751732  0.23171375  0.25206477  1
  O  O363  1  0.37653839  0.24600951  0.74279283  1
  O  O364  1  0.37617632  0.76426372  0.22775572  1
  O  O365  1  0.36429365  0.75239772  0.72965823  1
  O  O366  1  0.89893427  0.25162826  0.23805715  1
  O  O367  1  0.88307840  0.24516102  0.74643480  1
  O  O368  1  0.88326521  0.76957345  0.26052545  1
  O  O369  1  0.86100868  0.74105290  0.74887059  1
  O  O370  1  0.38755385  0.48658649  0.49562106  1
  O  O371  1  0.39416893  0.50615039  0.98813657  1
  O  O372  1  0.37555131  0.99659979  0.48799738  1
  O  O373  1  0.38087306  0.99970321  0.99281825  1
  O  O374  1  0.85342311  0.47917899  0.50611105  1
  O  O375  1  0.88880668  0.48843908  0.99130906  1
  O  O376  1  0.88448154  0.99498150  0.51220987  1
  O  O377  1  0.88208623  1.00997994  0.99590942  1
  O  O378  1  0.11889917  0.00511570  0.00579845  1
  O  O379  1  0.12411634  -0.00558343  0.51444337  1
  O  O380  1  0.11525511  0.49707806  -0.00161450  1
  O  O381  1  0.15192969  0.50810010  0.49574483  1
  O  O382  1  0.62078635  0.00774650  0.00445983  1
  O  O383  1  0.62782876  -0.00245152  0.53038031  1
  O  O384  1  0.61612569  0.50276775  -0.00494291  1
  O  O385  1  0.61280024  0.49492724  0.51171919  1
  O  O386  1  0.37085476  0.37585554  0.11410758  1
  O  O387  1  0.36103955  0.36109261  0.62643014  1
  O  O388  1  0.37005534  0.87299490  0.11383480  1
  O  O389  1  0.35016739  0.87749857  0.62985464  1
  O  O390  1  0.87668609  0.35714192  0.11886015  1
  O  O391  1  0.87403352  0.35970117  0.62471414  1
  O  O392  1  0.86494602  0.88242783  0.11554088  1
  O  O393  1  0.84792913  0.81925523  0.75657715  1
  O  O394  1  0.14817355  0.11283775  0.37041811  1
  O  O395  1  0.12259289  0.13595486  0.88233806  1
  O  O396  1  0.13429148  0.65092293  0.38585584  1
  O  O397  1  0.11693673  0.64609603  0.87042558  1
  O  O398  1  0.63721589  0.13157784  0.37718451  1
  O  O399  1  0.63167277  0.12932134  0.87905663  1
  O  O400  1  0.63993804  0.64097843  0.36426069  1
  O  O401  1  0.62761562  0.64694710  0.88506550  1
