# generated using pymatgen
data_V73Zn73O256
_symmetry_space_group_name_H-M   'P 1'
_cell_length_a   16.88661362
_cell_length_b   16.85316508
_cell_length_c   16.88701086
_cell_angle_alpha   90.24487148
_cell_angle_beta   90.07250089
_cell_angle_gamma   90.07712364
_symmetry_Int_Tables_number   1
_chemical_formula_structural   V73Zn73O256
_chemical_formula_sum   'V73 Zn73 O256'
_cell_volume   4805.87104428
_cell_formula_units_Z   1
loop_
 _symmetry_equiv_pos_site_id
 _symmetry_equiv_pos_as_xyz
  1  'x, y, z'
loop_
 _atom_site_type_symbol
 _atom_site_label
 _atom_site_symmetry_multiplicity
 _atom_site_fract_x
 _atom_site_fract_y
 _atom_site_fract_z
 _atom_site_occupancy
  V  V0  1  0.72881253  0.37385408  0.62225222  1
  V  V1  1  0.48951279  0.87159232  0.87608095  1
  V  V2  1  0.34522976  0.50110367  0.87134006  1
  V  V3  1  0.87156320  0.88006166  -0.01210094  1
  V  V4  1  0.87060653  0.11918167  0.74919595  1
  V  V5  1  -0.00348550  0.37890393  0.88622027  1
  V  V6  1  0.25507900  0.87222395  0.60758495  1
  V  V7  1  0.87566675  0.75139000  0.62796844  1
  V  V8  1  0.74069556  0.74348446  0.48715031  1
  V  V9  1  0.63005888  0.73806191  0.89784777  1
  V  V10  1  0.12281069  0.75918712  0.37038609  1
  V  V11  1  0.48953966  -0.00279254  -0.00702356  1
  V  V12  1  0.25118441  0.37446560  0.63381795  1
  V  V13  1  0.62433733  0.87026371  0.25917280  1
  V  V14  1  0.11333994  0.12538188  0.03220693  1
  V  V15  1  0.74455872  0.24274691  0.49134601  1
  V  V16  1  0.25227639  0.25112849  0.50665426  1
  V  V17  1  0.13144894  0.63599537  0.49769152  1
  V  V18  1  0.12425961  0.27802621  0.37500143  1
  V  V19  1  0.00284508  0.75611126  0.25222450  1
  V  V20  1  0.50073710  0.12687910  0.13234695  1
  V  V21  1  0.49876475  0.36840349  0.36590484  1
  V  V22  1  0.86974034  0.48520633  0.37928674  1
  V  V23  1  0.62990172  0.12564255  -0.00030978  1
  V  V24  1  0.38866345  0.75380371  0.61617511  1
  V  V25  1  0.87199492  0.25901716  0.62169442  1
  V  V26  1  -0.01263621  0.00867100  -0.00631302  1
  V  V27  1  -0.00382957  0.12542519  0.62420423  1
  V  V28  1  0.74820486  0.87075791  0.12089059  1
  V  V29  1  0.24500438  0.37700590  0.12550995  1
  V  V30  1  0.62065728  0.11539964  0.50795942  1
  V  V31  1  0.62595584  -0.00099464  0.12653561  1
  V  V32  1  0.12341378  0.37702628  0.75226045  1
  V  V33  1  0.00085958  0.63056175  0.62469424  1
  V  V34  1  0.37866658  0.76406162  0.11445868  1
  V  V35  1  0.61995681  0.85929497  0.75010108  1
  V  V36  1  0.87338842  0.87605694  0.48820654  1
  V  V37  1  0.73959319  0.00036057  0.74916311  1
  V  V38  1  0.76886892  0.25667090  0.01191163  1
  V  V39  1  0.76165905  0.00612135  0.26398756  1
  V  V40  1  0.64480280  0.37760279  0.23943020  1
  V  V41  1  0.50277814  0.60059473  0.62402863  1
  V  V42  1  0.13693789  0.88402210  0.23389053  1
  V  V43  1  0.86918122  0.62394403  0.26564859  1
  V  V44  1  -0.01005873  -0.00368479  0.48978312  1
  V  V45  1  0.50424541  0.74320831  0.25182908  1
  V  V46  1  0.75407716  0.12176922  0.87530562  1
  V  V47  1  0.62036312  0.60911789  0.49005279  1
  V  V48  1  0.74348298  0.87790260  0.62392260  1
  V  V49  1  0.25132074  0.12096794  0.36912279  1
  V  V50  1  0.24551555  0.24682549  -0.00318867  1
  V  V51  1  0.12612594  -0.00610975  0.62787462  1
  V  V52  1  0.12223347  0.23272190  0.87286763  1
  V  V53  1  0.25372036  0.63550102  0.37208472  1
  V  V54  1  0.23824375  0.49928865  0.25086260  1
  V  V55  1  0.13146565  0.50415116  0.62983271  1
  V  V56  1  0.37616421  0.24880308  0.12771759  1
  V  V57  1  0.12258874  0.12563974  0.49752784  1
  V  V58  1  0.00461311  0.49168234  0.49040248  1
  V  V59  1  0.12096354  0.50393467  0.10999864  1
  V  V60  1  0.38775177  0.24090797  0.63255067  1
  V  V61  1  0.13014870  0.75385527  0.87938296  1
  V  V62  1  0.00008036  0.62144809  0.11484830  1
  V  V63  1  0.61744723  0.26282055  0.87013418  1
  V  V64  1  0.38253383  0.12462252  0.76851114  1
  V  V65  1  0.25307761  0.00432090  0.76054626  1
  V  V66  1  0.87966486  0.50218073  0.87714062  1
  V  V67  1  0.38327295  0.61778803  0.23691360  1
  V  V68  1  0.49154285  0.00067629  0.50901591  1
  V  V69  1  0.87176102  0.74988486  0.11974490  1
  V  V70  1  0.87219879  0.62373791  0.74498083  1
  V  V71  1  0.74509187  0.49403575  0.74353130  1
  V  V72  1  0.48925343  0.87141073  0.37964883  1
  Zn  Zn73  1  -0.00358908  0.24930342  0.74949805  1
  Zn  Zn74  1  0.39189229  0.38504535  0.50734849  1
  Zn  Zn75  1  0.37153272  0.62528577  0.75440502  1
  Zn  Zn76  1  0.00648433  0.24542222  0.25067430  1
  Zn  Zn77  1  0.38120121  0.38498422  -0.00323313  1
  Zn  Zn78  1  0.36602602  -0.00952325  0.36975156  1
  Zn  Zn79  1  0.38556913  0.50245412  0.38334242  1
  Zn  Zn80  1  0.61158991  0.23559695  0.35724991  1
  Zn  Zn81  1  0.37449201  0.12045813  0.24945459  1
  Zn  Zn82  1  0.18832706  0.19770246  0.19534974  1
  Zn  Zn83  1  0.19004571  0.18346364  0.69411128  1
  Zn  Zn84  1  0.20078104  0.68486450  0.16465570  1
  Zn  Zn85  1  0.19677311  0.68953551  0.68424802  1
  Zn  Zn86  1  0.69733214  0.19241811  0.19388568  1
  Zn  Zn87  1  0.67744102  0.19026158  0.68727127  1
  Zn  Zn88  1  0.69268817  0.69010757  0.19841282  1
  Zn  Zn89  1  0.68525872  0.68235195  0.67752105  1
  Zn  Zn90  1  0.31303636  0.31043626  0.31423201  1
  Zn  Zn91  1  0.31482998  0.31068277  0.81594252  1
  Zn  Zn92  1  0.31251101  0.81050566  0.29861199  1
  Zn  Zn93  1  0.31598834  0.82040300  0.78900330  1
  Zn  Zn94  1  0.81661168  0.30879607  0.31693773  1
  Zn  Zn95  1  0.80776610  0.30921237  0.81201427  1
  Zn  Zn96  1  0.81147026  0.81369482  0.30790050  1
  Zn  Zn97  1  0.79969155  0.80231278  0.81374586  1
  Zn  Zn98  1  0.21406478  0.45337266  0.45299607  1
  Zn  Zn99  1  0.18632468  0.43415238  0.93766239  1
  Zn  Zn100  1  0.18248422  0.93783028  0.43638514  1
  Zn  Zn101  1  0.17221280  0.96018719  0.94072282  1
  Zn  Zn102  1  0.68115807  0.42811964  0.43018136  1
  Zn  Zn103  1  0.70577305  0.43390481  0.93576774  1
  Zn  Zn104  1  0.68345776  0.93743317  0.43997990  1
  Zn  Zn105  1  0.68535232  0.93571029  0.93372601  1
  Zn  Zn106  1  0.31239210  0.06704585  0.05318148  1
  Zn  Zn107  1  0.31442189  0.06201862  0.56173209  1
  Zn  Zn108  1  0.31019206  0.57262846  0.04867655  1
  Zn  Zn109  1  0.31889064  0.56663378  0.55963991  1
  Zn  Zn110  1  0.81290318  0.06349213  0.07008517  1
  Zn  Zn111  1  0.80837305  0.06334064  0.56194475  1
  Zn  Zn112  1  0.81665780  0.56362820  0.06353826  1
  Zn  Zn113  1  0.81015465  0.55822000  0.55590639  1
  Zn  Zn114  1  0.43858689  0.42907511  0.18899816  1
  Zn  Zn115  1  0.42875914  0.44007888  0.69530071  1
  Zn  Zn116  1  0.43486827  0.94083087  0.19181361  1
  Zn  Zn117  1  0.43340798  0.93846670  0.69272415  1
  Zn  Zn118  1  0.93240115  0.44544186  0.18871594  1
  Zn  Zn119  1  0.94277461  0.44136536  0.68478605  1
  Zn  Zn120  1  0.93807666  0.93866006  0.18958777  1
  Zn  Zn121  1  0.93139993  0.93402439  0.68352971  1
  Zn  Zn122  1  0.06385436  0.05757660  0.31366962  1
  Zn  Zn123  1  0.04168161  0.02446748  0.79159325  1
  Zn  Zn124  1  0.06023299  0.57121513  0.30877950  1
  Zn  Zn125  1  0.05971266  0.56326906  0.80914114  1
  Zn  Zn126  1  0.56683928  0.05725652  0.32050322  1
  Zn  Zn127  1  0.56391453  0.06406919  0.81137837  1
  Zn  Zn128  1  0.56762834  0.55071640  0.31529037  1
  Zn  Zn129  1  0.56082074  0.56823630  0.80870613  1
  Zn  Zn130  1  0.43835140  0.18910595  0.44286653  1
  Zn  Zn131  1  0.44080824  0.19078134  0.94421534  1
  Zn  Zn132  1  0.43923115  0.68636569  0.43961494  1
  Zn  Zn133  1  0.44574713  0.68276279  0.92917838  1
  Zn  Zn134  1  0.94547092  0.20747462  0.44432114  1
  Zn  Zn135  1  0.94086321  0.18810312  0.93249760  1
  Zn  Zn136  1  0.94082729  0.69123936  0.44241683  1
  Zn  Zn137  1  0.93328889  0.68891655  0.93459930  1
  Zn  Zn138  1  0.06013205  0.31576569  0.06462521  1
  Zn  Zn139  1  0.06530525  0.31328551  0.56406180  1
  Zn  Zn140  1  0.05180736  0.81936541  0.06723359  1
  Zn  Zn141  1  0.06164031  0.81588607  0.56162006  1
  Zn  Zn142  1  0.57441173  0.30745485  0.07131364  1
  Zn  Zn143  1  0.56153724  0.31169722  0.55425912  1
  Zn  Zn144  1  0.55272296  0.81181778  0.06567641  1
  Zn  Zn145  1  0.56330770  0.81270154  0.55902861  1
  O  O146  1  0.10867059  0.13949501  0.13057886  1
  O  O147  1  0.11669053  0.12347998  0.61310835  1
  O  O148  1  0.10654844  0.61774474  0.13323646  1
  O  O149  1  0.12240562  0.62522800  0.61972799  1
  O  O150  1  0.62063979  0.11658511  0.11754913  1
  O  O151  1  0.62227121  0.12798908  0.60961191  1
  O  O152  1  0.63515553  0.59524359  0.14150600  1
  O  O153  1  0.60914967  0.62488012  0.61433490  1
  O  O154  1  0.38427322  0.37478400  0.37327015  1
  O  O155  1  0.36421651  0.39173097  0.87947109  1
  O  O156  1  0.38568728  0.87030938  0.36999885  1
  O  O157  1  0.39077671  0.86877608  0.86386253  1
  O  O158  1  0.88695564  0.38693918  0.36893870  1
  O  O159  1  0.88973318  0.38358232  0.86390651  1
  O  O160  1  0.87370088  0.86854057  0.38914476  1
  O  O161  1  0.86624806  0.86330353  0.88965636  1
  O  O162  1  0.24905044  0.01792638  0.38695261  1
  O  O163  1  0.23940096  -0.00157869  0.85981899  1
  O  O164  1  0.24405940  0.51504787  0.35643271  1
  O  O165  1  0.24480321  0.50895110  0.87453500  1
  O  O166  1  0.74269884  -0.00524997  0.36265267  1
  O  O167  1  0.74538080  0.01179971  0.86581245  1
  O  O168  1  0.77104831  0.49156404  0.39010774  1
  O  O169  1  0.77091914  0.48908195  0.85374758  1
  O  O170  1  0.23885192  0.49737262  0.13137694  1
  O  O171  1  0.23837139  0.49163482  0.62061863  1
  O  O172  1  0.25935255  0.95614545  0.08091472  1
  O  O173  1  0.24232121  0.99417743  0.62090610  1
  O  O174  1  0.78032041  0.47012045  0.12851999  1
  O  O175  1  0.75748389  0.48151333  0.62764395  1
  O  O176  1  0.74203052  0.98971740  0.13295654  1
  O  O177  1  0.75068145  0.98547842  0.63022929  1
  O  O178  1  -0.00658769  0.35317604  0.20601436  1
  O  O179  1  0.01222346  0.37195910  0.75042581  1
  O  O180  1  0.00585124  0.86103782  0.24033531  1
  O  O181  1  0.01936233  0.92173149  0.74633659  1
  O  O182  1  0.50696615  0.37108858  0.25756957  1
  O  O183  1  0.51149755  0.40732697  0.78061647  1
  O  O184  1  0.50645645  0.86668354  0.25992594  1
  O  O185  1  0.51426834  0.88446601  0.76235408  1
  O  O186  1  0.50576825  0.11832757  0.23375910  1
  O  O187  1  0.48287260  0.11618467  0.75300790  1
  O  O188  1  0.48940497  0.62700624  0.26115166  1
  O  O189  1  0.49688923  0.61703071  0.72782221  1
  O  O190  1  0.98087932  0.13100197  0.27379663  1
  O  O191  1  0.98896917  0.12062929  0.73836558  1
  O  O192  1  0.98883937  0.63571679  0.24109839  1
  O  O193  1  0.99144709  0.62126288  0.73261303  1
  O  O194  1  0.35974869  0.24885478  0.00800952  1
  O  O195  1  0.36501786  0.25253622  0.51537131  1
  O  O196  1  0.39810846  0.73285444  0.01858128  1
  O  O197  1  0.37244074  0.74355770  0.51568191  1
  O  O198  1  0.86799620  0.24450419  -0.00438683  1
  O  O199  1  0.85790937  0.23765471  0.50888138  1
  O  O200  1  0.88424157  0.76382535  0.01014197  1
  O  O201  1  0.86534720  0.75540439  0.50834717  1
  O  O202  1  0.13028927  0.24380250  0.49429454  1
  O  O203  1  0.12269764  0.23875237  0.99744231  1
  O  O204  1  0.11677497  0.74382447  0.48816396  1
  O  O205  1  0.12310129  0.75038351  0.98466962  1
  O  O206  1  0.63460521  0.23823638  0.49988389  1
  O  O207  1  0.63789386  0.23671303  0.99885899  1
  O  O208  1  0.63838813  0.74930636  0.49986379  1
  O  O209  1  0.62576195  0.75529689  0.99773387  1
  O  O210  1  0.48781521  0.23818400  0.10985668  1
  O  O211  1  0.48547932  0.25835484  0.62505252  1
  O  O212  1  0.49760188  0.74795908  0.14427270  1
  O  O213  1  0.48997009  0.75597724  0.62473832  1
  O  O214  1  0.97840972  0.29251283  0.14070528  1
  O  O215  1  0.99298723  0.23862310  0.61966438  1
  O  O216  1  0.99143413  0.74000047  0.13065990  1
  O  O217  1  0.98810784  0.74446141  0.61757876  1
  O  O218  1  0.01965715  0.26376729  0.38230520  1
  O  O219  1  0.00598624  0.26325561  0.87065255  1
  O  O220  1  0.01027454  0.74352225  0.36380474  1
  O  O221  1  0.02425492  0.75454294  0.87664411  1
  O  O222  1  0.49438935  0.25821491  0.37346675  1
  O  O223  1  0.51814738  0.25573166  0.89455504  1
  O  O224  1  0.49653403  0.76083229  0.36708755  1
  O  O225  1  0.51075031  0.76829149  0.88216623  1
  O  O226  1  0.24055853  0.13495815  0.49794674  1
  O  O227  1  0.22549082  0.13210460  1.01440269  1
  O  O228  1  0.23872948  0.62299914  0.48797808  1
  O  O229  1  0.22900861  0.64611511  1.05406295  1
  O  O230  1  0.73756865  0.13190794  0.50468134  1
  O  O231  1  0.74707445  0.12315483  0.99314201  1
  O  O232  1  0.73770854  0.63640314  0.50847969  1
  O  O233  1  0.71615572  0.58886543  1.00520109  1
  O  O234  1  0.24367536  0.36318022  0.01044738  1
  O  O235  1  0.24091776  0.35985275  0.51952260  1
  O  O236  1  0.24762682  0.91037012  0.02055463  1
  O  O237  1  0.25416748  0.88332947  0.50760943  1
  O  O238  1  0.75425395  0.35625247  0.00238271  1
  O  O239  1  0.74023223  0.35840258  0.51356179  1
  O  O240  1  0.76072386  0.88367815  0.01009476  1
  O  O241  1  0.75268145  0.86736993  0.50610241  1
  O  O242  1  0.13545834  0.50833665  0.24115356  1
  O  O243  1  0.11909991  0.49351535  0.73893725  1
  O  O244  1  0.11269958  0.98324940  0.24741172  1
  O  O245  1  0.14339238  1.02190472  0.73295982  1
  O  O246  1  0.63037239  0.48029271  0.25597825  1
  O  O247  1  0.64807500  0.50796261  0.75563989  1
  O  O248  1  0.62658864  0.98945171  0.23998576  1
  O  O249  1  0.63509794  0.99092904  0.75252834  1
  O  O250  1  0.37532371  0.00741600  0.25661840  1
  O  O251  1  0.36556228  0.01222465  0.75039232  1
  O  O252  1  0.36884358  0.50968995  0.24642451  1
  O  O253  1  0.36257472  0.50133415  0.76380165  1
  O  O254  1  0.86048225  -0.01374092  0.25654494  1
  O  O255  1  0.85852571  0.01182460  0.73996384  1
  O  O256  1  0.88739695  0.51428320  0.26915029  1
  O  O257  1  0.87283370  0.50789346  0.74937100  1
  O  O258  1  0.14319810  0.37461668  0.38661212  1
  O  O259  1  0.11317063  0.37344610  0.86846679  1
  O  O260  1  0.12761490  0.86371712  0.36746654  1
  O  O261  1  0.13243895  0.85874825  0.88841059  1
  O  O262  1  0.61494662  0.36274681  0.36537733  1
  O  O263  1  0.63666800  0.36159727  0.88277831  1
  O  O264  1  0.61636920  0.87664791  0.36347424  1
  O  O265  1  0.62536056  0.86263353  0.86511852  1
  O  O266  1  0.38226889  0.12963498  0.12192126  1
  O  O267  1  0.37593380  0.13860557  0.62570191  1
  O  O268  1  0.38123363  0.62406181  0.13670071  1
  O  O269  1  0.38903993  0.63109437  0.62089680  1
  O  O270  1  0.91191396  0.08836119  0.12667295  1
  O  O271  1  0.87837108  0.13191872  0.62976216  1
  O  O272  1  0.88142024  0.62971542  0.13189484  1
  O  O273  1  0.88225981  0.63134120  0.62399928  1
  O  O274  1  0.25053934  0.25800380  0.11854042  1
  O  O275  1  0.25267455  0.25506181  0.62288403  1
  O  O276  1  0.27846642  0.76253693  0.13366542  1
  O  O277  1  0.24386935  0.77004703  0.62060364  1
  O  O278  1  0.76114587  0.23325801  0.11035148  1
  O  O279  1  0.75349516  0.26009345  0.62370363  1
  O  O280  1  0.75917916  0.75743832  0.12876339  1
  O  O281  1  0.75671478  0.75911651  0.61712260  1
  O  O282  1  0.23973746  0.24472211  0.38628302  1
  O  O283  1  0.23611667  0.25565808  0.88905892  1
  O  O284  1  0.24130731  0.74067569  0.36310003  1
  O  O285  1  0.23486862  0.75211103  0.88515684  1
  O  O286  1  0.75085979  0.24953537  0.39183678  1
  O  O287  1  0.74377033  0.23814479  0.88411383  1
  O  O288  1  0.75397782  0.75124747  0.38844979  1
  O  O289  1  0.72977400  0.73689249  0.87508641  1
  O  O290  1  0.00684165  0.12371896  0.00241468  1
  O  O291  1  0.00148636  0.11898423  0.50281408  1
  O  O292  1  -0.00804816  0.62933869  0.01538417  1
  O  O293  1  0.01186586  0.62137038  0.50789720  1
  O  O294  1  0.51150518  0.11272731  0.00453888  1
  O  O295  1  0.50595748  0.11141206  0.49984541  1
  O  O296  1  0.57451706  0.60150694  0.09907627  1
  O  O297  1  0.51039236  0.62460066  0.50801117  1
  O  O298  1  0.50194083  0.37194502  0.48204529  1
  O  O299  1  0.50098945  0.40207786  1.03241818  1
  O  O300  1  0.50731320  0.88247572  0.48544346  1
  O  O301  1  0.50384258  0.88794815  0.98959283  1
  O  O302  1  1.00914148  0.39276465  0.50364584  1
  O  O303  1  1.00182845  0.37802462  0.98489328  1
  O  O304  1  0.98968745  0.88930222  0.50763576  1
  O  O305  1  0.98451665  0.89606734  1.01228969  1
  O  O306  1  0.49741492  0.48074357  0.37228907  1
  O  O307  1  0.51323841  0.45749511  0.83894657  1
  O  O308  1  0.49693921  0.98378667  0.37972372  1
  O  O309  1  0.51116729  0.99007059  0.88731297  1
  O  O310  1  1.00432546  0.50601863  0.38720100  1
  O  O311  1  0.99320943  0.49010820  0.86822336  1
  O  O312  1  0.99898162  1.00121961  0.39176713  1
  O  O313  1  0.99909607  1.00844871  0.89535836  1
  O  O314  1  -0.03256044  0.02707813  0.11619721  1
  O  O315  1  0.00479962  0.01382123  0.61408772  1
  O  O316  1  0.00808856  0.50955171  0.12609211  1
  O  O317  1  0.01050127  0.51040467  0.61342320  1
  O  O318  1  0.50872001  0.00419871  0.11250111  1
  O  O319  1  0.49350611  -0.01417910  0.60739889  1
  O  O320  1  0.50055217  0.45993678  0.08801319  1
  O  O321  1  0.49182876  0.50041802  0.61851377  1
  O  O322  1  0.25513133  0.39178017  0.24134845  1
  O  O323  1  0.23609412  0.36724202  0.74305793  1
  O  O324  1  0.23692276  0.87928017  0.25107529  1
  O  O325  1  0.25339106  0.89797516  0.73312960  1
  O  O326  1  0.74621854  0.36981579  0.25645887  1
  O  O327  1  0.75495295  0.38201022  0.73476018  1
  O  O328  1  0.74097788  0.87820084  0.24080796  1
  O  O329  1  0.73987507  0.87888078  0.74511442  1
  O  O330  1  0.24280603  0.12693681  0.26699244  1
  O  O331  1  0.26563999  0.11492690  0.74425183  1
  O  O332  1  0.26200355  0.61806462  0.24981347  1
  O  O333  1  0.25427882  0.64091895  0.76384453  1
  O  O334  1  0.74942453  0.10464221  0.24411561  1
  O  O335  1  0.75052644  0.11938164  0.75395315  1
  O  O336  1  0.76997381  0.62581239  0.24818520  1
  O  O337  1  0.76316441  0.60894226  0.73024718  1
  O  O338  1  0.35619249  0.13508996  0.37656463  1
  O  O339  1  0.37393223  0.13439679  0.86827186  1
  O  O340  1  0.36605500  0.62387597  0.36841428  1
  O  O341  1  0.39877040  0.60110080  0.87078733  1
  O  O342  1  0.90801209  0.15159912  0.31527149  1
  O  O343  1  0.86618284  0.13093385  0.86044424  1
  O  O344  1  0.87801254  0.62676408  0.36795590  1
  O  O345  1  0.88775825  0.61522335  0.85858392  1
  O  O346  1  0.13269475  0.39143447  0.12116492  1
  O  O347  1  0.13018739  0.38240850  0.63346966  1
  O  O348  1  0.12681238  0.86786823  0.13386027  1
  O  O349  1  0.13540096  0.88644502  0.61632406  1
  O  O350  1  0.63501977  0.37394863  0.13702956  1
  O  O351  1  0.63056298  0.37051922  0.62992550  1
  O  O352  1  0.62977261  0.88081852  0.13028169  1
  O  O353  1  0.63158301  0.86703350  0.63930232  1
  O  O354  1  0.12577290  0.25792486  0.27039784  1
  O  O355  1  0.12156545  0.25581926  0.75688671  1
  O  O356  1  0.11955621  0.75536217  0.25266086  1
  O  O357  1  0.13225338  0.76167536  0.77508107  1
  O  O358  1  0.62856158  0.26085780  0.24761235  1
  O  O359  1  0.62457956  0.24522683  0.77015355  1
  O  O360  1  0.61818402  0.75808910  0.24647651  1
  O  O361  1  0.62633340  0.75745078  0.75247899  1
  O  O362  1  0.36210057  0.24224371  0.23176313  1
  O  O363  1  0.36953314  0.23867828  0.74222230  1
  O  O364  1  0.38503463  0.73668732  0.24234425  1
  O  O365  1  0.36547677  0.74056268  0.72757009  1
  O  O366  1  0.88498609  0.22278199  0.27404973  1
  O  O367  1  0.87399388  0.23846105  0.73963518  1
  O  O368  1  0.88133020  0.74353528  0.24274466  1
  O  O369  1  0.86503242  0.74053191  0.73730261  1
  O  O370  1  0.33318666  0.48255998  0.48542250  1
  O  O371  1  0.36451663  0.50242314  0.98356613  1
  O  O372  1  0.38786205  1.00706621  0.49002368  1
  O  O373  1  0.39096736  1.00734331  0.99356143  1
  O  O374  1  0.89380519  0.50847971  0.48955113  1
  O  O375  1  0.86899589  0.50953103  0.97602204  1
  O  O376  1  0.88263296  0.99436108  0.50449677  1
  O  O377  1  0.87601624  0.99249387  0.99419750  1
  O  O378  1  0.10626667  0.01652765  0.01483242  1
  O  O379  1  0.11140737  0.00719718  0.50589093  1
  O  O380  1  0.12678658  0.50526654  0.01137617  1
  O  O381  1  0.12027013  0.51313382  0.50744754  1
  O  O382  1  0.62602941  0.00609055  0.00972314  1
  O  O383  1  0.61421511  0.00758113  0.49999122  1
  O  O384  1  0.66804227  0.52802384  -0.00255603  1
  O  O385  1  0.63474551  0.51046751  0.49755397  1
  O  O386  1  0.36201949  0.36728419  0.11964106  1
  O  O387  1  0.36490796  0.36490287  0.63117746  1
  O  O388  1  0.39779291  0.86403765  0.11713775  1
  O  O389  1  0.36601356  0.86516826  0.62724579  1
  O  O390  1  0.83477302  0.41548369  0.12638506  1
  O  O391  1  0.88153391  0.36045358  0.62599191  1
  O  O392  1  0.86556744  0.86723439  0.12047764  1
  O  O393  1  0.86459307  0.86778805  0.61795755  1
  O  O394  1  0.13143093  0.12687399  0.38661897  1
  O  O395  1  0.11440839  0.13464495  0.87109334  1
  O  O396  1  0.13268997  0.63558732  0.37835199  1
  O  O397  1  0.12630348  0.64880873  0.87297510  1
  O  O398  1  0.61904338  0.12702215  0.39289744  1
  O  O399  1  0.63321924  0.12877109  0.88475885  1
  O  O400  1  0.61658446  0.62482509  0.39037952  1
  O  O401  1  0.59395697  0.64111492  0.88741289  1
