# generated using pymatgen
data_V73Zn73O256
_symmetry_space_group_name_H-M   'P 1'
_cell_length_a   16.92927741
_cell_length_b   16.86203106
_cell_length_c   16.88927739
_cell_angle_alpha   90.04780142
_cell_angle_beta   89.75605193
_cell_angle_gamma   90.33714477
_symmetry_Int_Tables_number   1
_chemical_formula_structural   V73Zn73O256
_chemical_formula_sum   'V73 Zn73 O256'
_cell_volume   4821.11818177
_cell_formula_units_Z   1
loop_
 _symmetry_equiv_pos_site_id
 _symmetry_equiv_pos_as_xyz
  1  'x, y, z'
loop_
 _atom_site_type_symbol
 _atom_site_label
 _atom_site_symmetry_multiplicity
 _atom_site_fract_x
 _atom_site_fract_y
 _atom_site_fract_z
 _atom_site_occupancy
  V  V0  1  0.54454094  0.42539025  0.91880178  1
  V  V1  1  0.87574641  -0.01766488  0.88130451  1
  V  V2  1  0.49675365  0.49673984  0.49820875  1
  V  V3  1  0.86285053  0.01287310  0.36997320  1
  V  V4  1  0.23526260  -0.00144651  0.74101804  1
  V  V5  1  0.63229332  -0.00252703  0.63161494  1
  V  V6  1  0.00891464  0.13490802  0.61911107  1
  V  V7  1  0.64088040  0.24364594  0.87716628  1
  V  V8  1  0.12693431  0.37152810  0.24081652  1
  V  V9  1  0.12735674  0.73844301  0.85193026  1
  V  V10  1  0.50486219  0.61756737  0.11021479  1
  V  V11  1  0.61683987  0.86868671  0.75059277  1
  V  V12  1  0.62948737  0.89419841  0.24978097  1
  V  V13  1  0.00321649  0.00268600  0.50324840  1
  V  V14  1  0.23736398  0.25005664  0.01283410  1
  V  V15  1  0.36724394  0.36991001  0.00573380  1
  V  V16  1  0.49594718  0.24987660  0.23202279  1
  V  V17  1  0.12635417  0.01184847  0.12414638  1
  V  V18  1  0.37443095  0.12205391  0.74673721  1
  V  V19  1  0.50161330  0.25737908  0.75712149  1
  V  V20  1  0.75658726  -0.00076059  0.75130201  1
  V  V21  1  0.37299070  0.75321970  0.12245341  1
  V  V22  1  0.79524465  0.82085993  0.67513254  1
  V  V23  1  0.25024125  0.75105483  -0.00698898  1
  V  V24  1  0.63364643  0.00671424  0.09766554  1
  V  V25  1  0.13021748  0.62304542  0.03441006  1
  V  V26  1  0.62943208  0.13420564  0.48966455  1
  V  V27  1  0.50693692  -0.00634997  0.50612651  1
  V  V28  1  0.11557440  0.87844493  0.26046012  1
  V  V29  1  0.79790138  0.57636032  0.87071509  1
  V  V30  1  0.36718023  0.62288781  0.26320101  1
  V  V31  1  0.01250111  0.24798881  0.76525804  1
  V  V32  1  0.35327568  0.49393483  0.87658769  1
  V  V33  1  0.75143664  0.75468945  0.49985207  1
  V  V34  1  0.23729527  0.36409687  0.61228193  1
  V  V35  1  0.87084647  0.13455303  0.74488303  1
  V  V36  1  0.37695445  0.86424645  0.52112911  1
  V  V37  1  0.49239345  0.74726749  0.74898934  1
  V  V38  1  0.25460058  0.88209585  0.13381137  1
  V  V39  1  0.35727588  0.62102699  0.74966716  1
  V  V40  1  0.62626934  0.61575585  0.51118022  1
  V  V41  1  0.01314128  0.23208876  0.25243429  1
  V  V42  1  0.62280997  0.39181299  0.73711741  1
  V  V43  1  0.49438646  0.87297071  0.37991719  1
  V  V44  1  0.76413956  0.25467398  0.49534745  1
  V  V45  1  0.87949975  0.64071022  0.23861249  1
  V  V46  1  0.62887433  0.37550098  0.23031243  1
  V  V47  1  0.76348193  0.37932742  0.62736959  1
  V  V48  1  0.00727412  0.39332953  0.88010955  1
  V  V49  1  0.87076446  0.87852073  0.48660473  1
  V  V50  1  0.75268296  0.60967386  0.37552553  1
  V  V51  1  0.85251185  0.12161739  0.24129961  1
  V  V52  1  0.11326207  0.50708156  0.61130040  1
  V  V53  1  0.01517284  0.86914708  0.85953436  1
  V  V54  1  0.00595151  0.50357986  0.04477037  1
  V  V55  1  0.74570624  0.49980580  0.22362186  1
  V  V56  1  0.37507767  -0.00364647  0.88257238  1
  V  V57  1  0.50352983  0.36758220  0.37364270  1
  V  V58  1  0.48989472  0.87752036  0.88916248  1
  V  V59  1  0.12247775  0.73742138  0.38150200  1
  V  V60  1  0.22808213  0.87238849  0.62400551  1
  V  V61  1  0.49778560  0.11916787  0.10734326  1
  V  V62  1  0.87005746  0.25731797  0.12423188  1
  V  V63  1  0.62722209  0.74763550  0.89318582  1
  V  V64  1  0.50468123  0.12363282  0.62715687  1
  V  V65  1  -0.00200128  0.38575237  0.37658828  1
  V  V66  1  0.37651563  0.25524245  0.61126075  1
  V  V67  1  0.50471972  0.61483340  0.63389669  1
  V  V68  1  0.49756923  0.74787349  0.25076810  1
  V  V69  1  0.01210602  0.00098006  -0.00139598  1
  V  V70  1  0.62555916  0.74719351  0.37518897  1
  V  V71  1  0.23783090  0.13248296  0.87717416  1
  V  V72  1  0.24420362  0.49486594  0.24450220  1
  Zn  Zn73  1  0.87709000  0.38752899  0.01694178  1
  Zn  Zn74  1  -0.07875277  0.68316807  0.66099983  1
  Zn  Zn75  1  0.36438824  0.00618509  0.37701057  1
  Zn  Zn76  1  0.23209827  0.14581907  0.37054994  1
  Zn  Zn77  1  0.19332042  0.57484713  0.44331974  1
  Zn  Zn78  1  0.36755172  0.10584021  0.24661742  1
  Zn  Zn79  1  0.36293181  0.48953606  0.38777625  1
  Zn  Zn80  1  0.25310178  0.73932590  0.49664120  1
  Zn  Zn81  1  0.22626149  0.47040183  0.75442892  1
  Zn  Zn82  1  0.19539026  0.18579749  0.19066319  1
  Zn  Zn83  1  0.18830138  0.19100045  0.68404740  1
  Zn  Zn84  1  0.19311015  0.69992551  0.20269762  1
  Zn  Zn85  1  0.18293327  0.67528939  0.65268102  1
  Zn  Zn86  1  0.68227067  0.18769276  0.17502962  1
  Zn  Zn87  1  0.69357303  0.19420395  0.68891888  1
  Zn  Zn88  1  0.66897543  0.67053935  0.19735477  1
  Zn  Zn89  1  0.73153280  0.58107571  0.68669389  1
  Zn  Zn90  1  0.31601626  0.31267118  0.30629549  1
  Zn  Zn91  1  0.31023634  0.31119866  0.80766950  1
  Zn  Zn92  1  0.30758167  0.81711629  0.31992166  1
  Zn  Zn93  1  0.30784722  0.81335838  0.80439321  1
  Zn  Zn94  1  0.81518840  0.31131883  0.31250264  1
  Zn  Zn95  1  0.79471565  0.36644120  0.87321498  1
  Zn  Zn96  1  0.80819778  0.81862343  0.30909355  1
  Zn  Zn97  1  0.83710625  0.76771228  0.85346533  1
  Zn  Zn98  1  0.18799311  0.41099726  0.43344277  1
  Zn  Zn99  1  0.17826648  0.43472800  0.95124437  1
  Zn  Zn100  1  0.18420170  0.98857903  0.42420713  1
  Zn  Zn101  1  0.19197315  0.93497476  0.93189255  1
  Zn  Zn102  1  0.68095955  0.42415029  0.43755849  1
  Zn  Zn103  1  0.70472408  0.46778938  1.01826450  1
  Zn  Zn104  1  0.68524192  0.94134481  0.43336118  1
  Zn  Zn105  1  0.68845474  0.92541237  0.93165574  1
  Zn  Zn106  1  0.31252110  0.06989628  0.06245469  1
  Zn  Zn107  1  0.31383873  0.05549278  0.55458814  1
  Zn  Zn108  1  0.31760751  0.56544303  0.06479632  1
  Zn  Zn109  1  0.31262386  0.55150643  0.57475241  1
  Zn  Zn110  1  0.81317816  0.07324057  0.05195437  1
  Zn  Zn111  1  0.81325178  0.06877523  0.56416178  1
  Zn  Zn112  1  0.82260243  0.58418489  0.05616676  1
  Zn  Zn113  1  0.81975113  0.55328878  0.55122380  1
  Zn  Zn114  1  0.43634509  0.44022944  0.18818922  1
  Zn  Zn115  1  0.43005907  0.43931918  0.68920568  1
  Zn  Zn116  1  0.44231824  0.94362878  0.18672047  1
  Zn  Zn117  1  0.43741681  0.94025424  0.69486084  1
  Zn  Zn118  1  0.92405000  0.43141219  0.21945898  1
  Zn  Zn119  1  0.94436594  0.43963579  0.70307981  1
  Zn  Zn120  1  0.94286586  0.93967957  0.18898501  1
  Zn  Zn121  1  0.94840720  0.92794925  0.67599874  1
  Zn  Zn122  1  0.05732311  0.05147086  0.31663247  1
  Zn  Zn123  1  0.05401955  0.06673354  0.81232279  1
  Zn  Zn124  1  0.05816151  0.56266413  0.30123008  1
  Zn  Zn125  1  0.06808867  0.56429515  0.80402022  1
  Zn  Zn126  1  0.53704233  0.07621914  0.32294718  1
  Zn  Zn127  1  0.56459421  0.06344371  0.82060968  1
  Zn  Zn128  1  0.56315820  0.55587489  0.31321913  1
  Zn  Zn129  1  0.56644704  0.57010881  0.82120013  1
  Zn  Zn130  1  0.40191683  0.20260080  0.40827133  1
  Zn  Zn131  1  0.42847788  0.18874422  0.93514234  1
  Zn  Zn132  1  0.43921381  0.68462453  0.44647483  1
  Zn  Zn133  1  0.43199540  0.68377245  0.92888309  1
  Zn  Zn134  1  0.94032363  0.19000840  0.43176135  1
  Zn  Zn135  1  0.91865462  0.17817424  0.93746974  1
  Zn  Zn136  1  0.93055769  0.70081109  0.41141937  1
  Zn  Zn137  1  0.96144412  0.68498889  0.94924961  1
  Zn  Zn138  1  0.05433092  0.30676626  0.06828404  1
  Zn  Zn139  1  0.02418532  0.34008264  0.57899278  1
  Zn  Zn140  1  0.08796197  0.83462455  0.04210554  1
  Zn  Zn141  1  0.05388124  0.80389072  0.55611107  1
  Zn  Zn142  1  0.56551654  0.31306276  0.05630972  1
  Zn  Zn143  1  0.55862929  0.31110750  0.56163655  1
  Zn  Zn144  1  0.55719961  0.82429325  0.07043615  1
  Zn  Zn145  1  0.56604812  0.80369460  0.56888818  1
  O  O146  1  0.13320748  0.11006900  0.12345555  1
  O  O147  1  0.10907419  0.12958365  0.62300674  1
  O  O148  1  0.13021107  0.63228504  0.13314897  1
  O  O149  1  0.09930000  0.60739595  0.61301596  1
  O  O150  1  0.61683111  0.11394986  0.11397904  1
  O  O151  1  0.61874355  0.11665126  0.62939584  1
  O  O152  1  0.60566447  0.64011645  0.11439127  1
  O  O153  1  0.62513901  0.61890673  0.61689384  1
  O  O154  1  0.39911305  0.38150339  0.35723761  1
  O  O155  1  0.36807093  0.38794832  0.87648474  1
  O  O156  1  0.38490546  0.87666705  0.39001741  1
  O  O157  1  0.37473852  0.88836110  0.86561918  1
  O  O158  1  0.89796577  0.38560535  0.33407331  1
  O  O159  1  0.91107510  0.35555998  0.90481540  1
  O  O160  1  0.87234370  0.88778457  0.38183935  1
  O  O161  1  0.89459264  0.87428689  0.86873694  1
  O  O162  1  0.27970054  0.05151676  0.44460485  1
  O  O163  1  0.25794947  0.00416170  0.86163272  1
  O  O164  1  0.24929497  0.49899289  0.36929552  1
  O  O165  1  0.24917411  0.49320624  0.86977267  1
  O  O166  1  0.76298567  0.00194609  0.37584150  1
  O  O167  1  0.76767857  -0.02050846  0.86767962  1
  O  O168  1  0.74379148  0.50977278  0.38017341  1
  O  O169  1  0.82054550  0.48062956  0.84927088  1
  O  O170  1  0.26003453  0.50378911  0.14576632  1
  O  O171  1  0.23278734  0.47924036  0.62563778  1
  O  O172  1  0.24123910  0.98772829  0.11187954  1
  O  O173  1  0.25123244  0.99745645  0.63514597  1
  O  O174  1  0.74283931  0.51141764  0.12287734  1
  O  O175  1  0.74564534  0.48554280  0.61200063  1
  O  O176  1  0.73453950  1.00962770  0.10829104  1
  O  O177  1  0.73800483  1.00446045  0.63364059  1
  O  O178  1  0.02057109  0.36997265  0.25212424  1
  O  O179  1  -0.00550960  0.35807831  0.77152592  1
  O  O180  1  0.01565787  0.88052237  0.25612339  1
  O  O181  1  0.01027064  0.88359450  0.75990698  1
  O  O182  1  0.51190280  0.37094417  0.24510182  1
  O  O183  1  0.49929569  0.36129501  0.74434406  1
  O  O184  1  0.50614974  0.86399296  0.26075230  1
  O  O185  1  0.49990034  0.86641767  0.75719401  1
  O  O186  1  0.51602107  0.14572142  0.23275942  1
  O  O187  1  0.49355677  0.12746738  0.74275748  1
  O  O188  1  0.49297023  0.63630098  0.24652122  1
  O  O189  1  0.49804446  0.62991842  0.74770124  1
  O  O190  1  1.00364646  0.13086689  0.25345121  1
  O  O191  1  0.99311695  0.12835340  0.73624657  1
  O  O192  1  0.97734167  0.62110247  0.24835964  1
  O  O193  1  0.97425875  0.60078324  0.73492469  1
  O  O194  1  0.36367824  0.26525204  -0.01041786  1
  O  O195  1  0.39834158  0.23944997  0.51590602  1
  O  O196  1  0.35705486  0.74290647  0.00601123  1
  O  O197  1  0.37466933  0.76161364  0.50114731  1
  O  O198  1  0.90630721  0.25312557  0.02790967  1
  O  O199  1  0.86246562  0.24238678  0.50148530  1
  O  O200  1  0.89925659  0.76027090  0.02996574  1
  O  O201  1  0.86362759  0.76542252  0.48680404  1
  O  O202  1  0.11293328  0.25022751  0.47552837  1
  O  O203  1  0.13757967  0.25244778  1.00939192  1
  O  O204  1  0.13017221  0.75895450  0.48570944  1
  O  O205  1  0.13429755  0.73554728  1.00321781  1
  O  O206  1  0.62085670  0.23581437  0.50131840  1
  O  O207  1  0.62406578  0.26167340  0.97557891  1
  O  O208  1  0.63059943  0.73983877  0.49376143  1
  O  O209  1  0.61672365  0.77095509  0.99157731  1
  O  O210  1  0.50823012  0.24019772  0.12443563  1
  O  O211  1  0.49508925  0.23924966  0.63596011  1
  O  O212  1  0.48905818  0.75218631  0.13438540  1
  O  O213  1  0.50644767  0.73310028  0.63942319  1
  O  O214  1  0.99202270  0.25141659  0.14950544  1
  O  O215  1  0.99580995  0.24136107  0.63772461  1
  O  O216  1  0.93494429  0.79819894  0.08985957  1
  O  O217  1  0.99135370  0.76243933  0.63539300  1
  O  O218  1  -0.00770650  0.25680527  0.35438938  1
  O  O219  1  -0.00123993  0.22317097  0.86242441  1
  O  O220  1  0.02141562  0.75621400  0.38005607  1
  O  O221  1  0.01635766  0.75784437  0.87205524  1
  O  O222  1  0.50136084  0.26400294  0.35639005  1
  O  O223  1  0.49845577  0.24285971  0.85798297  1
  O  O224  1  0.50618264  0.75380132  0.37234478  1
  O  O225  1  0.49756748  0.76010786  0.86860217  1
  O  O226  1  0.16605402  0.20341937  0.49184575  1
  O  O227  1  0.25696491  0.13740711  0.98549922  1
  O  O228  1  0.24593446  0.62939178  0.52852223  1
  O  O229  1  0.23974231  0.63705237  1.01150763  1
  O  O230  1  0.73710564  0.13938473  0.51016731  1
  O  O231  1  0.81265062  0.14078660  0.96417910  1
  O  O232  1  0.74388250  0.63087823  0.48773407  1
  O  O233  1  0.75241605  0.57270859  0.96581106  1
  O  O234  1  0.25637202  0.36252231  -0.00167092  1
  O  O235  1  0.26080607  0.36966619  0.51220392  1
  O  O236  1  0.23764225  0.85764769  0.01195911  1
  O  O237  1  0.27160317  0.88619299  0.51852216  1
  O  O238  1  0.76790060  0.38366746  -0.01443223  1
  O  O239  1  0.74592989  0.36662818  0.51281037  1
  O  O240  1  0.76778502  0.86497600  0.01124892  1
  O  O241  1  0.75494122  0.86633632  0.49177873  1
  O  O242  1  0.13818509  0.49111897  0.25008654  1
  O  O243  1  0.12234197  0.50303054  0.72617321  1
  O  O244  1  0.11911509  0.99316742  0.22886826  1
  O  O245  1  0.13778926  1.00557806  0.75151811  1
  O  O246  1  0.63774989  0.49921783  0.24589781  1
  O  O247  1  0.61453100  0.49193602  0.75086636  1
  O  O248  1  0.61516914  0.99147617  0.26594360  1
  O  O249  1  0.63378756  0.99158200  0.75128464  1
  O  O250  1  0.37469329  -0.01122172  0.26271520  1
  O  O251  1  0.36602812  0.01035876  0.75262037  1
  O  O252  1  0.36970622  0.51388916  0.25522532  1
  O  O253  1  0.36472590  0.50579022  0.75821227  1
  O  O254  1  0.88060969  0.00885702  0.25955914  1
  O  O255  1  0.86028943  -0.01592326  0.74465470  1
  O  O256  1  0.84906627  0.51962561  0.24081547  1
  O  O257  1  0.91671124  0.54380221  0.74955445  1
  O  O258  1  0.11397300  0.36690199  0.36098824  1
  O  O259  1  0.10594874  0.36849001  0.89112071  1
  O  O260  1  0.14314982  0.90242084  0.35623402  1
  O  O261  1  0.12434215  0.85924950  0.87092172  1
  O  O262  1  0.60994255  0.38598299  0.35376970  1
  O  O263  1  0.60898021  0.36781496  0.85548669  1
  O  O264  1  0.61673824  0.86372464  0.37149231  1
  O  O265  1  0.60705567  0.87509090  0.86643022  1
  O  O266  1  0.39305501  0.11360116  0.13089002  1
  O  O267  1  0.38331154  0.12550266  0.62878785  1
  O  O268  1  0.38147373  0.63781264  0.13794317  1
  O  O269  1  0.38860827  0.61450596  0.64491762  1
  O  O270  1  0.87639515  0.12219947  0.13980180  1
  O  O271  1  0.88050346  0.12306729  0.63963139  1
  O  O272  1  0.85605221  0.64894482  0.13959021  1
  O  O273  1  0.82933057  0.62453353  0.63745166  1
  O  O274  1  0.25745003  0.23985823  0.10980202  1
  O  O275  1  0.26924068  0.24604375  0.62096830  1
  O  O276  1  0.25765819  0.76063212  0.12216639  1
  O  O277  1  0.24271751  0.77003751  0.62146133  1
  O  O278  1  0.76989157  0.24094009  0.12097645  1
  O  O279  1  0.74327261  0.26807719  0.61600105  1
  O  O280  1  0.74544809  0.81488702  0.06083041  1
  O  O281  1  0.73996853  0.76082927  0.61166149  1
  O  O282  1  0.29435102  0.23778170  0.38662519  1
  O  O283  1  0.25015372  0.23504578  0.87156944  1
  O  O284  1  0.23578284  0.75469701  0.38046808  1
  O  O285  1  0.24049847  0.75504097  0.88592181  1
  O  O286  1  0.75008888  0.26519420  0.39454149  1
  O  O287  1  0.73679731  0.26712525  0.85608232  1
  O  O288  1  0.73849298  0.74369399  0.38110651  1
  O  O289  1  0.72652848  0.76637966  0.87961164  1
  O  O290  1  -0.00063485  0.09853138  -0.01526030  1
  O  O291  1  -0.00902633  0.12040403  0.51096236  1
  O  O292  1  0.02022323  0.61723338  0.01848134  1
  O  O293  1  -0.03566484  0.61054635  0.49736314  1
  O  O294  1  0.49204349  0.12908309  0.00785769  1
  O  O295  1  0.51595836  0.11049116  0.51426259  1
  O  O296  1  0.48120213  0.62660897  0.01292344  1
  O  O297  1  0.50840103  0.61981701  0.51252318  1
  O  O298  1  0.51102764  0.38096973  0.48214210  1
  O  O299  1  0.48464513  0.36901994  0.98536724  1
  O  O300  1  0.49835480  0.87106592  0.49955447  1
  O  O301  1  0.48896081  0.87430120  0.98834868  1
  O  O302  1  0.98880799  0.36031591  0.47413018  1
  O  O303  1  1.01171137  0.39977260  1.01073253  1
  O  O304  1  0.97523627  0.88834828  0.51012660  1
  O  O305  1  1.01097063  0.88543246  0.97899930  1
  O  O306  1  0.49432871  0.49739516  0.38331364  1
  O  O307  1  0.48633641  0.49308459  0.86806486  1
  O  O308  1  0.51386548  0.98036043  0.39385747  1
  O  O309  1  0.48294315  0.99448362  0.86664809  1
  O  O310  1  1.01156422  0.48654528  0.37219825  1
  O  O311  1  1.00635401  0.49438351  0.87541344  1
  O  O312  1  0.97923835  1.00803940  0.39526077  1
  O  O313  1  1.00042797  0.98504233  0.87707461  1
  O  O314  1  0.01336709  -0.00922301  0.10861151  1
  O  O315  1  -0.01191748  0.01529019  0.61255380  1
  O  O316  1  0.00394396  0.49588964  0.14257597  1
  O  O317  1  0.01988733  0.45559501  0.61585715  1
  O  O318  1  0.51280848  0.01224658  0.12445812  1
  O  O319  1  0.51170366  0.00555225  0.62736258  1
  O  O320  1  0.49611803  0.51956501  0.13083469  1
  O  O321  1  0.49857678  0.50741335  0.61912062  1
  O  O322  1  0.24432113  0.38538679  0.25515313  1
  O  O323  1  0.25717117  0.36360420  0.72466265  1
  O  O324  1  0.24854658  0.87714678  0.23627404  1
  O  O325  1  0.25087963  0.88724219  0.73522386  1
  O  O326  1  0.74031032  0.39194623  0.24702917  1
  O  O327  1  0.72820305  0.37872221  0.73424397  1
  O  O328  1  0.72838985  0.87673722  0.25533304  1
  O  O329  1  0.73549954  0.87860278  0.74088544  1
  O  O330  1  0.25874335  0.12918533  0.25980976  1
  O  O331  1  0.25537347  0.11707787  0.75449269  1
  O  O332  1  0.26229999  0.61984647  0.25333689  1
  O  O333  1  0.25970627  0.62658736  0.73450109  1
  O  O334  1  0.75414668  0.12454617  0.24514396  1
  O  O335  1  0.76151222  0.11399139  0.74683693  1
  O  O336  1  0.74391438  0.61724582  0.26096819  1
  O  O337  1  0.73265892  0.60396084  0.79772747  1
  O  O338  1  0.42489609  0.10702028  0.35521527  1
  O  O339  1  0.36712561  0.11443127  0.86400027  1
  O  O340  1  0.38004533  0.62933270  0.36410365  1
  O  O341  1  0.37212198  0.60792785  0.86205258  1
  O  O342  1  0.87173779  0.11870604  0.36247853  1
  O  O343  1  0.89003759  0.08737213  0.84674078  1
  O  O344  1  0.85479796  0.62424179  0.36748239  1
  O  O345  1  0.87124056  0.65764518  0.88417009  1
  O  O346  1  0.12951217  0.36854933  0.14118682  1
  O  O347  1  0.13881351  0.34637005  0.61089056  1
  O  O348  1  0.13790169  0.87543477  0.13755250  1
  O  O349  1  0.13153399  0.87971169  0.61433148  1
  O  O350  1  0.62194890  0.38495929  0.12940723  1
  O  O351  1  0.61332787  0.37856265  0.63572091  1
  O  O352  1  0.61463848  0.89725899  0.14053602  1
  O  O353  1  0.61309638  0.88511408  0.63832710  1
  O  O354  1  0.12049457  0.25361341  0.24858923  1
  O  O355  1  0.11143717  0.24240291  0.75219177  1
  O  O356  1  0.13069224  0.76901316  0.26788941  1
  O  O357  1  0.13755264  0.73583213  0.75427091  1
  O  O358  1  0.62428021  0.26980179  0.23770981  1
  O  O359  1  0.61113990  0.25631651  0.75138324  1
  O  O360  1  0.61511629  0.75433157  0.25810500  1
  O  O361  1  0.60954525  0.76195675  0.76405634  1
  O  O362  1  0.39626837  0.25652518  0.23682105  1
  O  O363  1  0.38562338  0.23798666  0.74210676  1
  O  O364  1  0.37882940  0.74451845  0.24676959  1
  O  O365  1  0.38096396  0.73304498  0.76133096  1
  O  O366  1  0.87726147  0.23207923  0.24501929  1
  O  O367  1  0.88091248  0.23144728  0.75931434  1
  O  O368  1  0.87405021  0.73953116  0.26768001  1
  O  O369  1  0.85152156  0.76319321  0.73591427  1
  O  O370  1  0.39125164  0.50465663  0.50251623  1
  O  O371  1  0.36017154  0.49090352  0.98467975  1
  O  O372  1  0.40096974  0.98309855  0.51299684  1
  O  O373  1  0.36430094  1.00274435  0.98049798  1
  O  O374  1  0.92539721  0.54386143  0.49664177  1
  O  O375  1  0.90433724  0.50965627  1.02111736  1
  O  O376  1  0.86635178  0.99354969  0.49159022  1
  O  O377  1  0.88640589  0.98982579  0.98383304  1
  O  O378  1  0.12213310  -0.00583408  0.00698505  1
  O  O379  1  0.09946921  -0.01313664  0.50400322  1
  O  O380  1  0.12544350  0.51614910  0.01634203  1
  O  O381  1  0.13415324  0.49112079  0.50765480  1
  O  O382  1  0.62288371  -0.00995430  -0.00053720  1
  O  O383  1  0.62408032  0.00301474  0.51312842  1
  O  O384  1  0.60159812  0.48223145  -0.02283955  1
  O  O385  1  0.61305683  0.50965138  0.49119770  1
  O  O386  1  0.38070028  0.38334029  0.10372656  1
  O  O387  1  0.38120679  0.35745500  0.62224799  1
  O  O388  1  0.36546606  0.86729680  0.12723380  1
  O  O389  1  0.38460462  0.86803297  0.62209644  1
  O  O390  1  0.87555865  0.36231138  0.13751944  1
  O  O391  1  0.86217336  0.38213198  0.64201227  1
  O  O392  1  0.88749280  0.85247267  0.12511797  1
  O  O393  1  0.85786535  0.87752159  0.61484062  1
  O  O394  1  0.13715339  0.08896164  0.38302789  1
  O  O395  1  0.14048447  0.11558475  0.87312826  1
  O  O396  1  0.12343318  0.63286564  0.37031159  1
  O  O397  1  0.11900199  0.63847037  0.87700777  1
  O  O398  1  0.62240418  0.11750108  0.39244649  1
  O  O399  1  0.63083929  0.14195434  0.86483507  1
  O  O400  1  0.62958893  0.63255008  0.38060222  1
  O  O401  1  0.60827243  0.64829337  0.88957879  1
