# generated using pymatgen
data_V73Zn73O256
_symmetry_space_group_name_H-M   'P 1'
_cell_length_a   16.88471326
_cell_length_b   16.86830720
_cell_length_c   16.87117129
_cell_angle_alpha   90.20115599
_cell_angle_beta   90.18909795
_cell_angle_gamma   89.95972865
_symmetry_Int_Tables_number   1
_chemical_formula_structural   V73Zn73O256
_chemical_formula_sum   'V73 Zn73 O256'
_cell_volume   4805.13153809
_cell_formula_units_Z   1
loop_
 _symmetry_equiv_pos_site_id
 _symmetry_equiv_pos_as_xyz
  1  'x, y, z'
loop_
 _atom_site_type_symbol
 _atom_site_label
 _atom_site_symmetry_multiplicity
 _atom_site_fract_x
 _atom_site_fract_y
 _atom_site_fract_z
 _atom_site_occupancy
  V  V0  1  0.63169299  0.11428691  0.00379264  1
  V  V1  1  0.51067662  0.88455261  0.38250434  1
  V  V2  1  0.77152614  0.87671783  0.12816501  1
  V  V3  1  0.00466795  0.37643321  0.35855818  1
  V  V4  1  0.00173524  0.12922493  0.13262710  1
  V  V5  1  0.49719359  0.37581917  0.38415582  1
  V  V6  1  0.37345365  0.61502007  0.25244242  1
  V  V7  1  0.86505353  0.37043324  0.49751283  1
  V  V8  1  -0.00198764  0.75183113  0.24626844  1
  V  V9  1  0.49810392  0.25129146  0.25204366  1
  V  V10  1  0.25096107  0.26170008  0.50494038  1
  V  V11  1  0.13364745  0.75198406  0.38172593  1
  V  V12  1  0.62721062  0.50159106  0.12894898  1
  V  V13  1  0.37250131  0.24991003  0.64541250  1
  V  V14  1  0.87142508  0.22608099  0.61845508  1
  V  V15  1  0.12126011  0.88566540  0.74926565  1
  V  V16  1  0.37330634  0.49640788  0.86326133  1
  V  V17  1  0.12163582  0.12635824  0.51511571  1
  V  V18  1  0.51280808  0.75824253  0.76046219  1
  V  V19  1  0.25110495  0.86492398  0.62230620  1
  V  V20  1  0.60644713  0.48357996  0.61525051  1
  V  V21  1  0.62852274  0.63041094  -0.01860045  1
  V  V22  1  0.00137244  0.62771055  0.11712713  1
  V  V23  1  0.72069220  0.62930969  0.39663562  1
  V  V24  1  0.49916144  0.62476723  0.61205373  1
  V  V25  1  0.86648507  0.86805865  0.50774960  1
  V  V26  1  0.14306923  0.50765828  0.14786877  1
  V  V27  1  -0.00772058  -0.01635285  -0.01236405  1
  V  V28  1  0.12008168  0.25343401  0.36182649  1
  V  V29  1  0.37434680  0.63240969  0.74293507  1
  V  V30  1  0.25218901  0.38000799  0.15059439  1
  V  V31  1  0.26714074  0.01043160  0.74270405  1
  V  V32  1  0.63128427  0.37427162  0.25395518  1
  V  V33  1  0.00039865  0.25826315  0.74997353  1
  V  V34  1  0.62877046  0.00495354  0.60549348  1
  V  V35  1  -0.01953849  0.63804082  0.62121734  1
  V  V36  1  0.25012818  0.61654227  0.86661818  1
  V  V37  1  0.00146821  0.49577845  0.50379221  1
  V  V38  1  0.12736808  0.62685687  0.50304150  1
  V  V39  1  0.37496541  0.75192287  0.12511751  1
  V  V40  1  -0.00028766  0.87923790  0.37671572  1
  V  V41  1  0.25561625  0.12409207  0.88114942  1
  V  V42  1  0.62088156  0.36401843  0.74751511  1
  V  V43  1  0.50418079  0.35799697  0.87022962  1
  V  V44  1  0.50117657  0.12599512  0.63283701  1
  V  V45  1  0.13881220  0.61133565  0.00038849  1
  V  V46  1  0.48134557  0.00010619  -0.01371144  1
  V  V47  1  0.35889975  0.37485204  -0.00099762  1
  V  V48  1  0.36970001  0.11969043  0.25104316  1
  V  V49  1  0.11846059  0.25746350  0.88436104  1
  V  V50  1  0.13423449  0.88088349  0.25332254  1
  V  V51  1  0.86723472  0.01384514  0.36328991  1
  V  V52  1  0.73056474  -0.00475075  0.76223335  1
  V  V53  1  0.87709159  0.61424218  0.25003134  1
  V  V54  1  0.37099040  0.87523742  0.50257924  1
  V  V55  1  0.25088091  0.62257319  0.37600844  1
  V  V56  1  0.12756981  -0.00257871  0.12394857  1
  V  V57  1  0.63161191  0.88481097  0.24140411  1
  V  V58  1  0.50221562  0.62528379  0.12634695  1
  V  V59  1  0.25377094  0.87798027  0.12519739  1
  V  V60  1  0.76559809  0.75831415  -0.00481908  1
  V  V61  1  0.50198256  0.49928985  -0.00488458  1
  V  V62  1  0.36935591  0.24859918  0.12194937  1
  V  V63  1  0.86845733  0.24165997  0.12467257  1
  V  V64  1  0.00308157  0.00476211  0.51288178  1
  V  V65  1  0.24830698  0.11953231  0.37429867  1
  V  V66  1  0.37429200  0.49418457  0.39296635  1
  V  V67  1  0.80207023  0.43345250  0.67779128  1
  V  V68  1  0.51014421  0.74904560  0.25912055  1
  V  V69  1  0.88357801  0.11218299  0.77012278  1
  V  V70  1  0.74992371  0.37894398  0.10570548  1
  V  V71  1  0.26463962  0.76333839  -0.01728647  1
  V  V72  1  0.23803327  0.38412814  0.64374336  1
  Zn  Zn73  1  0.50972554  0.09610279  0.13345801  1
  Zn  Zn74  1  -0.00860986  0.75938016  0.74994693  1
  Zn  Zn75  1  0.86395226  0.49356734  0.36372326  1
  Zn  Zn76  1  0.12243463  0.12412790  -0.00268822  1
  Zn  Zn77  1  0.12016366  0.76213597  0.87518811  1
  Zn  Zn78  1  0.74688553  0.12958016  0.88214453  1
  Zn  Zn79  1  0.38174021  0.00495276  0.37741354  1
  Zn  Zn80  1  0.12635448  0.51137218  0.64904308  1
  Zn  Zn81  1  0.91181660  0.36976618  -0.00884395  1
  Zn  Zn82  1  0.18931838  0.18693309  0.18403838  1
  Zn  Zn83  1  0.18650168  0.19037584  0.69588387  1
  Zn  Zn84  1  0.19397360  0.69803100  0.19225595  1
  Zn  Zn85  1  0.18746461  0.69489162  0.68764990  1
  Zn  Zn86  1  0.66191767  0.21350845  0.14296593  1
  Zn  Zn87  1  0.69460094  0.17687514  0.68918117  1
  Zn  Zn88  1  0.69508355  0.69628563  0.18557938  1
  Zn  Zn89  1  0.66531344  0.68318115  0.67849453  1
  Zn  Zn90  1  0.31538234  0.30520700  0.32047696  1
  Zn  Zn91  1  0.30384533  0.31054248  0.82182154  1
  Zn  Zn92  1  0.32096785  0.81143647  0.31538151  1
  Zn  Zn93  1  0.30614600  0.81025704  0.80553787  1
  Zn  Zn94  1  0.82048920  0.30413935  0.30166716  1
  Zn  Zn95  1  0.81307087  0.30396818  0.80833901  1
  Zn  Zn96  1  0.81214511  0.80681221  0.31870962  1
  Zn  Zn97  1  0.78036449  0.80194564  0.80629443  1
  Zn  Zn98  1  0.18600532  0.44121543  0.43459959  1
  Zn  Zn99  1  0.16662797  0.44601281  0.82045546  1
  Zn  Zn100  1  0.18721751  0.94169638  0.44436287  1
  Zn  Zn101  1  0.19281254  0.94440897  0.93369613  1
  Zn  Zn102  1  0.68736788  0.44798646  0.42776778  1
  Zn  Zn103  1  0.67635633  0.29014285  0.93596552  1
  Zn  Zn104  1  0.69099161  0.94203482  0.43136370  1
  Zn  Zn105  1  0.68442019  0.93600140  0.94773651  1
  Zn  Zn106  1  0.31264059  0.05883936  0.06018797  1
  Zn  Zn107  1  0.31691640  0.06281688  0.56078714  1
  Zn  Zn108  1  0.31546940  0.56168521  0.05907171  1
  Zn  Zn109  1  0.30780243  0.56175950  0.56536587  1
  Zn  Zn110  1  0.81577996  0.05377989  0.06406228  1
  Zn  Zn111  1  0.84015911  0.01342640  0.60030654  1
  Zn  Zn112  1  0.80666144  0.56783134  0.05740688  1
  Zn  Zn113  1  0.80588468  0.55982504  0.54951636  1
  Zn  Zn114  1  0.43927661  0.43609145  0.18955087  1
  Zn  Zn115  1  0.43375589  0.42733172  0.68070604  1
  Zn  Zn116  1  0.44215321  0.93474462  0.18824974  1
  Zn  Zn117  1  0.44323524  0.94429544  0.68614394  1
  Zn  Zn118  1  0.95169788  0.43496722  0.16237130  1
  Zn  Zn119  1  0.98352038  0.46835552  0.72785932  1
  Zn  Zn120  1  0.94263291  0.94006056  0.18744352  1
  Zn  Zn121  1  0.90327281  0.90360753  0.72664838  1
  Zn  Zn122  1  0.06294803  0.06381279  0.31543480  1
  Zn  Zn123  1  0.07003891  0.06181166  0.80912147  1
  Zn  Zn124  1  0.05776355  0.56389023  0.31418534  1
  Zn  Zn125  1  0.04417488  0.60851594  0.82135623  1
  Zn  Zn126  1  0.57007755  0.06630322  0.30815782  1
  Zn  Zn127  1  0.55728903  0.07955003  0.81808530  1
  Zn  Zn128  1  0.55817132  0.55689843  0.31617471  1
  Zn  Zn129  1  0.56234858  0.55257950  0.80019310  1
  Zn  Zn130  1  0.43849813  0.18891337  0.44624319  1
  Zn  Zn131  1  0.43838232  0.18125124  0.94506621  1
  Zn  Zn132  1  0.43375507  0.69485444  0.43672800  1
  Zn  Zn133  1  0.43975214  0.68799432  0.93417040  1
  Zn  Zn134  1  0.93950234  0.18919689  0.43518076  1
  Zn  Zn135  1  0.94446466  0.18183064  0.94667337  1
  Zn  Zn136  1  0.93719306  0.68917757  0.43394672  1
  Zn  Zn137  1  0.94407423  0.80133798  0.91301125  1
  Zn  Zn138  1  0.07284072  0.32082353  0.06720923  1
  Zn  Zn139  1  0.05825525  0.31103455  0.56597085  1
  Zn  Zn140  1  0.07272162  0.80904517  0.05577745  1
  Zn  Zn141  1  0.06237691  0.81660839  0.56760284  1
  Zn  Zn142  1  0.55040790  0.31426352  0.06360988  1
  Zn  Zn143  1  0.55248366  0.28969160  0.56231492  1
  Zn  Zn144  1  0.56353449  0.81298023  0.06591381  1
  Zn  Zn145  1  0.54649511  0.82288562  0.58133764  1
  O  O146  1  0.12147528  0.11443250  0.12455960  1
  O  O147  1  0.12685948  0.13073050  0.61310078  1
  O  O148  1  0.14678735  0.61909919  0.12102380  1
  O  O149  1  0.12346723  0.62786945  0.61436171  1
  O  O150  1  0.62274829  0.11377152  0.11760978  1
  O  O151  1  0.61344091  0.12020768  0.62940891  1
  O  O152  1  0.61285770  0.61891994  0.13176943  1
  O  O153  1  0.60540420  0.60137568  0.62753751  1
  O  O154  1  0.38196761  0.38581578  0.37380106  1
  O  O155  1  0.38009717  0.37888088  0.87998563  1
  O  O156  1  0.38678276  0.88326097  0.37680566  1
  O  O157  1  0.32077181  0.82245650  0.91819152  1
  O  O158  1  0.88917755  0.36920913  0.37741822  1
  O  O159  1  0.86358305  0.39435418  0.88508760  1
  O  O160  1  0.88767891  0.87899706  0.38112728  1
  O  O161  1  0.89595898  0.81942066  0.80556119  1
  O  O162  1  0.24518464  0.01751593  0.37724839  1
  O  O163  1  0.24935502  0.01483840  0.86240323  1
  O  O164  1  0.26363679  0.50702378  0.37683683  1
  O  O165  1  0.25986037  0.50443748  0.86878486  1
  O  O166  1  0.76762181  0.00390936  0.37550491  1
  O  O167  1  0.73973250  0.00063280  0.86758289  1
  O  O168  1  0.75127065  0.52565918  0.37179781  1
  O  O169  1  0.82059011  0.46251181  0.90905119  1
  O  O170  1  0.25393930  0.49267683  0.13113170  1
  O  O171  1  0.24238418  0.48832818  0.62558665  1
  O  O172  1  0.24052697  0.99145631  0.12507984  1
  O  O173  1  0.25697075  0.99823466  0.63699382  1
  O  O174  1  0.73722567  0.49216015  0.11768461  1
  O  O175  1  0.73943022  0.49555823  0.62394010  1
  O  O176  1  0.75970781  0.97733833  0.12826557  1
  O  O177  1  0.73168952  1.01300870  0.63716153  1
  O  O178  1  0.00190137  0.38488060  0.26077167  1
  O  O179  1  -0.01734351  0.35642037  0.75933806  1
  O  O180  1  0.01243927  0.86923010  0.25830521  1
  O  O181  1  0.02091966  0.88602438  0.73370259  1
  O  O182  1  0.50437624  0.36929855  0.25766430  1
  O  O183  1  0.50221100  0.37606555  0.76544177  1
  O  O184  1  0.51141704  0.86923349  0.25904402  1
  O  O185  1  0.49023730  0.85460560  0.73695239  1
  O  O186  1  0.49345203  0.13436200  0.24810921  1
  O  O187  1  0.50034047  0.13650176  0.73379905  1
  O  O188  1  0.49426586  0.62973012  0.24501374  1
  O  O189  1  0.48858665  0.62957920  0.74586194  1
  O  O190  1  1.00311927  0.11343791  0.23208095  1
  O  O191  1  0.98603112  0.12318295  0.75213440  1
  O  O192  1  0.99858607  0.63383787  0.24024329  1
  O  O193  1  0.98390917  0.62491008  0.72368469  1
  O  O194  1  0.38083332  0.26078384  0.01460138  1
  O  O195  1  0.35219123  0.25046019  0.50462924  1
  O  O196  1  0.37585857  0.73333775  0.02036740  1
  O  O197  1  0.37017221  0.77375069  0.48872449  1
  O  O198  1  0.89238159  0.25843409  0.01933793  1
  O  O199  1  0.88464019  0.26052552  0.50969106  1
  O  O200  1  0.86434293  0.75026659  -0.01604185  1
  O  O201  1  0.88805504  0.76928299  0.49782926  1
  O  O202  1  0.12756079  0.24022328  0.49562009  1
  O  O203  1  0.11445412  0.24797332  0.98925655  1
  O  O204  1  0.11739178  0.74100790  0.49034542  1
  O  O205  1  0.14854329  0.74423778  0.99275441  1
  O  O206  1  0.65699548  0.25618481  0.49066986  1
  O  O207  1  0.62241222  0.23694754  1.02307404  1
  O  O208  1  0.65454177  0.76862896  0.53412962  1
  O  O209  1  0.60697545  0.72784954  1.00216521  1
  O  O210  1  0.48215093  0.25822884  0.13890709  1
  O  O211  1  0.47203723  0.27035628  0.64552380  1
  O  O212  1  0.49363747  0.74288905  0.13432559  1
  O  O213  1  0.50695418  0.72974044  0.63505076  1
  O  O214  1  1.00970124  0.23007395  0.12378349  1
  O  O215  1  0.98560920  0.25340999  0.63820694  1
  O  O216  1  1.01933867  0.73713614  0.13456399  1
  O  O217  1  0.99766735  0.74271389  0.62718698  1
  O  O218  1  0.01161525  0.26181026  0.37539211  1
  O  O219  1  0.00655531  0.24155134  0.86548638  1
  O  O220  1  0.01238608  0.76013920  0.36820257  1
  O  O221  1  0.01453796  0.72098043  0.86025770  1
  O  O222  1  0.48745846  0.26325133  0.36246173  1
  O  O223  1  0.49079737  0.26066195  0.87949858  1
  O  O224  1  0.49414202  0.76250792  0.36468341  1
  O  O225  1  0.49366008  0.74891892  0.85983062  1
  O  O226  1  0.23719533  0.13404178  0.49466051  1
  O  O227  1  0.24282576  0.11743299  0.98705912  1
  O  O228  1  0.24076417  0.62081648  0.48912055  1
  O  O229  1  0.25320447  0.63284300  0.98819782  1
  O  O230  1  0.68803250  0.19156269  0.50588958  1
  O  O231  1  0.73770412  0.11238606  1.00341248  1
  O  O232  1  0.73523511  0.62898875  0.49729695  1
  O  O233  1  0.73562548  0.63998960  1.00199745  1
  O  O234  1  0.26160330  0.37791442  0.00309002  1
  O  O235  1  0.23905162  0.36395134  0.50510316  1
  O  O236  1  0.23678270  0.87340820  0.02050693  1
  O  O237  1  0.25649610  0.88050033  0.51145581  1
  O  O238  1  0.73671903  0.37006548  0.00903532  1
  O  O239  1  0.76825747  0.37481857  0.47449975  1
  O  O240  1  0.75230595  0.86986282  0.01473977  1
  O  O241  1  0.76864303  0.87749645  0.48864936  1
  O  O242  1  0.13929214  0.51245498  0.24730609  1
  O  O243  1  0.08854813  0.50713217  0.76228718  1
  O  O244  1  0.12197174  0.98776129  0.24317429  1
  O  O245  1  0.13999308  0.99045042  0.74692155  1
  O  O246  1  0.61315278  0.48653953  0.23816662  1
  O  O247  1  0.62216130  0.48042421  0.73359853  1
  O  O248  1  0.63060637  0.98425912  0.25421693  1
  O  O249  1  0.62962444  1.01041517  0.75249079  1
  O  O250  1  0.38241766  0.01660030  0.25129125  1
  O  O251  1  0.36690013  0.00030174  0.75189605  1
  O  O252  1  0.38237341  0.51175829  0.25758596  1
  O  O253  1  0.38531083  0.50499088  0.75995741  1
  O  O254  1  0.88115520  -0.00481662  0.26452262  1
  O  O255  1  0.86496366  0.01189493  0.73725867  1
  O  O256  1  0.89061991  0.51084344  0.24159246  1
  O  O257  1  0.86981807  0.48710669  0.72841506  1
  O  O258  1  0.11575976  0.36534229  0.37862704  1
  O  O259  1  0.12370260  0.35750829  0.87666612  1
  O  O260  1  0.12366051  0.87118152  0.37269100  1
  O  O261  1  0.13788858  0.87712860  0.85579956  1
  O  O262  1  0.61193594  0.38383898  0.36106314  1
  O  O263  1  0.61016372  0.36605881  0.86975030  1
  O  O264  1  0.61557271  0.87431091  0.36926729  1
  O  O265  1  0.58044998  0.87624166  0.92030958  1
  O  O266  1  0.36521522  0.13588091  0.13373880  1
  O  O267  1  0.38415553  0.14215741  0.61738667  1
  O  O268  1  0.38464223  0.62616060  0.13403017  1
  O  O269  1  0.38360012  0.61316947  0.63632474  1
  O  O270  1  0.88359576  0.13474937  0.12202826  1
  O  O271  1  0.87688117  0.12640303  0.61256036  1
  O  O272  1  0.89831295  0.61475341  0.11821566  1
  O  O273  1  0.88372483  0.62783867  0.60035608  1
  O  O274  1  0.25670447  0.26886289  0.13277396  1
  O  O275  1  0.24713335  0.25825847  0.61883607  1
  O  O276  1  0.25985413  0.75730089  0.11552501  1
  O  O277  1  0.25973439  0.76561978  0.62836285  1
  O  O278  1  0.76239520  0.26269360  0.12835867  1
  O  O279  1  0.77274771  0.24255531  0.63015504  1
  O  O280  1  0.74439573  0.76162608  0.10668186  1
  O  O281  1  0.70622035  0.75680598  0.58836672  1
  O  O282  1  0.23780533  0.24820143  0.38757478  1
  O  O283  1  0.22827635  0.23787654  0.86617540  1
  O  O284  1  0.24128545  0.74229750  0.37339709  1
  O  O285  1  0.23677098  0.72336678  0.86509971  1
  O  O286  1  0.75191113  0.22390935  0.35891043  1
  O  O287  1  0.76366209  0.24364364  0.88536703  1
  O  O288  1  0.75530116  0.71982564  0.36389878  1
  O  O289  1  0.72820574  0.76929045  0.89995458  1
  O  O290  1  0.00432696  0.10651467  0.01418410  1
  O  O291  1  0.01272800  0.11809174  0.49512647  1
  O  O292  1  0.03047005  0.63244873  0.01641277  1
  O  O293  1  0.00752011  0.61913765  0.50225256  1
  O  O294  1  0.49967159  0.11182608  0.01031633  1
  O  O295  1  0.51351646  0.17866005  0.53045529  1
  O  O296  1  0.50107990  0.61592599  0.00787798  1
  O  O297  1  0.48904277  0.62995977  0.51312414  1
  O  O298  1  0.50729901  0.36199275  0.48119859  1
  O  O299  1  0.49479142  0.38383405  0.98960505  1
  O  O300  1  0.49372241  0.87109027  0.48764368  1
  O  O301  1  0.52411138  0.88520614  0.97786709  1
  O  O302  1  0.99340299  0.38237005  0.49601561  1
  O  O303  1  0.99483851  0.39906320  1.05873609  1
  O  O304  1  1.00606606  0.88802725  0.49321104  1
  O  O305  1  1.00237649  0.87248844  0.98946904  1
  O  O306  1  0.48656763  0.48789668  0.37638752  1
  O  O307  1  0.49326867  0.49321465  0.88232938  1
  O  O308  1  0.50582570  0.98924408  0.37155460  1
  O  O309  1  0.49464678  1.01153211  0.88589616  1
  O  O310  1  1.00255778  0.48694529  0.38275024  1
  O  O311  1  0.93788092  0.56816374  0.88243632  1
  O  O312  1  1.00026568  0.98957390  0.37851978  1
  O  O313  1  1.00819968  1.00104755  0.89002816  1
  O  O314  1  0.01124858  -0.00071365  0.11714345  1
  O  O315  1  -0.00023508  0.00315734  0.60857695  1
  O  O316  1  0.03134851  0.52514488  0.13655326  1
  O  O317  1  0.00550048  0.51266763  0.61279257  1
  O  O318  1  0.49302070  -0.01384737  0.10345368  1
  O  O319  1  0.50223454  0.02142415  0.61882002  1
  O  O320  1  0.50334498  0.50493444  0.11657782  1
  O  O321  1  0.50004792  0.50191756  0.62109015  1
  O  O322  1  0.25958074  0.37941976  0.24904989  1
  O  O323  1  0.23898790  0.38020875  0.74785500  1
  O  O324  1  0.24174230  0.86433877  0.24300870  1
  O  O325  1  0.25294263  0.88579174  0.73680631  1
  O  O326  1  0.73344739  0.37057609  0.25192778  1
  O  O327  1  0.74625209  0.37739798  0.74458602  1
  O  O328  1  0.73925018  0.85881006  0.24133213  1
  O  O329  1  0.74981076  0.89522278  0.74742563  1
  O  O330  1  0.25928605  0.13632147  0.26229988  1
  O  O331  1  0.24759702  0.11479947  0.75514218  1
  O  O332  1  0.26224537  0.63282856  0.26409979  1
  O  O333  1  0.26364477  0.62258169  0.74904774  1
  O  O334  1  0.71084459  0.16849737  0.31750170  1
  O  O335  1  0.76262068  0.11488294  0.76007963  1
  O  O336  1  0.77945753  0.62948541  0.22694387  1
  O  O337  1  0.76451702  0.63817401  0.72508073  1
  O  O338  1  0.36748780  0.12889343  0.37136252  1
  O  O339  1  0.35407592  0.14280486  0.87800959  1
  O  O340  1  0.37125897  0.61470827  0.37369099  1
  O  O341  1  0.36920198  0.61616906  0.86431708  1
  O  O342  1  0.88491200  0.11387871  0.37365951  1
  O  O343  1  0.87817041  0.11633941  0.87121421  1
  O  O344  1  0.88759896  0.61782832  0.35632206  1
  O  O345  1  0.87605431  0.60405434  0.86333311  1
  O  O346  1  0.14547391  0.39254589  0.13218393  1
  O  O347  1  0.13407311  0.37729476  0.62587822  1
  O  O348  1  0.13216319  0.87780471  0.13646311  1
  O  O349  1  0.14417826  0.87512317  0.62872529  1
  O  O350  1  0.63104199  0.38190760  0.13180175  1
  O  O351  1  0.60500113  0.37552777  0.62918867  1
  O  O352  1  0.62464057  0.87541052  0.13927334  1
  O  O353  1  0.60816482  0.90686076  0.62400441  1
  O  O354  1  0.12967625  0.25149601  0.26332632  1
  O  O355  1  0.10493401  0.24664564  0.75366078  1
  O  O356  1  0.12036445  0.75844054  0.26153586  1
  O  O357  1  0.12413841  0.76851066  0.74685119  1
  O  O358  1  0.61189486  0.26642330  0.23661597  1
  O  O359  1  0.63463830  0.26441239  0.73914804  1
  O  O360  1  0.61420957  0.75528160  0.24569120  1
  O  O361  1  0.61512877  0.74962856  0.75351568  1
  O  O362  1  0.37932964  0.24258091  0.24449572  1
  O  O363  1  0.35294018  0.24350399  0.74243482  1
  O  O364  1  0.38433701  0.73819764  0.24349241  1
  O  O365  1  0.37813773  0.73445046  0.74958115  1
  O  O366  1  0.89141954  0.26518981  0.22109082  1
  O  O367  1  0.88161498  0.22861440  0.74184414  1
  O  O368  1  0.89441605  0.74224542  0.25443474  1
  O  O369  1  0.81230900  0.69412477  0.74792422  1
  O  O370  1  0.37381603  0.49875008  0.49168946  1
  O  O371  1  0.38345389  0.49414743  0.98998617  1
  O  O372  1  0.37122577  0.98798914  0.49216007  1
  O  O373  1  0.38023308  0.99374154  0.99407003  1
  O  O374  1  0.88267768  0.48609356  0.49213796  1
  O  O375  1  0.85281681  0.48508969  0.98131520  1
  O  O376  1  0.89201802  0.99296769  0.48845526  1
  O  O377  1  0.89311883  0.99377795  1.00280932  1
  O  O378  1  0.11766024  -0.00696231  0.01264631  1
  O  O379  1  0.11653266  0.01589521  0.49646243  1
  O  O380  1  0.14051460  0.51398365  0.01774117  1
  O  O381  1  0.11623544  0.51223160  0.49539703  1
  O  O382  1  0.61208870  0.01213498  -0.00151531  1
  O  O383  1  0.63473733  0.01009772  0.50535463  1
  O  O384  1  0.61384170  0.51664307  0.01251182  1
  O  O385  1  0.62504471  0.48241372  0.51657911  1
  O  O386  1  0.36522833  0.37398901  0.12120587  1
  O  O387  1  0.34935990  0.36466941  0.63211168  1
  O  O388  1  0.36587228  0.86224560  0.13741709  1
  O  O389  1  0.37170843  0.88200649  0.60948012  1
  O  O390  1  0.85241347  0.38094015  0.12127723  1
  O  O391  1  0.86079414  0.37527261  0.60875880  1
  O  O392  1  0.87061980  0.86415900  0.13704470  1
  O  O393  1  0.87491118  0.89418944  0.60976210  1
  O  O394  1  0.12934877  0.13936916  0.37703351  1
  O  O395  1  0.13099539  0.13368474  0.87633629  1
  O  O396  1  0.13139611  0.63210992  0.38035245  1
  O  O397  1  0.13629399  0.60549606  0.89132594  1
  O  O398  1  0.64945277  0.14038006  0.36060360  1
  O  O399  1  0.62086902  0.13746385  0.89816774  1
  O  O400  1  0.62013666  0.62587378  0.37860443  1
  O  O401  1  0.61915135  0.61444844  0.88347674  1
