# generated using pymatgen
data_V73Zn73O256
_symmetry_space_group_name_H-M   'P 1'
_cell_length_a   16.81804758
_cell_length_b   16.82763625
_cell_length_c   16.81242267
_cell_angle_alpha   89.99243433
_cell_angle_beta   89.98395891
_cell_angle_gamma   90.08106773
_symmetry_Int_Tables_number   1
_chemical_formula_structural   V73Zn73O256
_chemical_formula_sum   'V73 Zn73 O256'
_cell_volume   4758.04490600
_cell_formula_units_Z   1
loop_
 _symmetry_equiv_pos_site_id
 _symmetry_equiv_pos_as_xyz
  1  'x, y, z'
loop_
 _atom_site_type_symbol
 _atom_site_label
 _atom_site_symmetry_multiplicity
 _atom_site_fract_x
 _atom_site_fract_y
 _atom_site_fract_z
 _atom_site_occupancy
  V  V0  1  0.62687402  0.24056875  0.37745896  1
  V  V1  1  0.76144744  0.50439667  0.23677695  1
  V  V2  1  -0.00962470  0.62781018  0.14371130  1
  V  V3  1  0.49082778  0.73991124  0.24372156  1
  V  V4  1  0.12784701  0.12551505  0.50634249  1
  V  V5  1  0.12936356  0.49841180  0.63292937  1
  V  V6  1  0.61333453  0.10727442  0.00535362  1
  V  V7  1  0.52097558  0.87170357  0.37496471  1
  V  V8  1  0.25125256  0.37910490  0.14146345  1
  V  V9  1  0.73066387  0.88285819  0.11778198  1
  V  V10  1  0.87367164  0.77122745  0.12567493  1
  V  V11  1  0.75155335  0.23861439  0.50526212  1
  V  V12  1  -0.01159625  0.13028140  0.62738353  1
  V  V13  1  0.00359344  0.38320967  0.90738277  1
  V  V14  1  0.50035235  -0.00526455  0.50168119  1
  V  V15  1  0.62057392  0.37650367  0.24422642  1
  V  V16  1  0.24770704  0.24836960  -0.00150351  1
  V  V17  1  -0.00718469  0.89642771  0.88485696  1
  V  V18  1  0.38261946  0.24233204  0.13671948  1
  V  V19  1  0.50515682  0.38843950  0.38964520  1
  V  V20  1  0.11958049  0.88769184  0.74090075  1
  V  V21  1  -0.00156908  0.25404209  0.24558168  1
  V  V22  1  0.86343187  0.11759064  0.75438267  1
  V  V23  1  -0.00226310  -0.00965489  0.50055851  1
  V  V24  1  0.64358268  0.87195762  0.74057686  1
  V  V25  1  0.87705646  0.76915122  0.61978052  1
  V  V26  1  0.63233478  0.73198409  0.37257622  1
  V  V27  1  0.62576166  0.75156911  0.88098782  1
  V  V28  1  0.12810221  -0.00630662  0.12148839  1
  V  V29  1  0.12176446  0.49769487  0.13723507  1
  V  V30  1  0.36542574  0.50251553  0.86367130  1
  V  V31  1  0.37614361  0.63083776  0.73892116  1
  V  V32  1  0.24623101  0.37331047  0.64508946  1
  V  V33  1  0.49817611  0.12709855  0.61460641  1
  V  V34  1  0.26294495  0.61631903  0.36304117  1
  V  V35  1  0.75136828  0.11110423  0.88582653  1
  V  V36  1  -0.00356617  0.27277183  0.74692958  1
  V  V37  1  0.00033625  0.73579545  0.75566475  1
  V  V38  1  0.49386702  0.23686471  0.75138834  1
  V  V39  1  0.86835902  0.37335871  0.52123324  1
  V  V40  1  -0.00585995  0.49960679  0.49479130  1
  V  V41  1  0.86693901  0.49505306  0.88530095  1
  V  V42  1  -0.00603148  0.11942363  0.11943689  1
  V  V43  1  0.25955410  0.85451951  0.11967452  1
  V  V44  1  -0.01087688  0.62335526  0.61894036  1
  V  V45  1  0.37078652  -0.02017682  0.37423615  1
  V  V46  1  0.12479617  0.25514658  0.37741478  1
  V  V47  1  0.62641586  0.24560778  0.88203261  1
  V  V48  1  0.61669313  0.61152771  0.00994110  1
  V  V49  1  0.87973568  -0.01815328  0.37507007  1
  V  V50  1  0.86757657  0.13020426  0.26074901  1
  V  V51  1  0.63359102  0.49105014  0.62313270  1
  V  V52  1  0.25836225  0.11929859  0.87247530  1
  V  V53  1  0.75338571  0.76088446  0.50106492  1
  V  V54  1  0.37840085  0.37693954  -0.00300496  1
  V  V55  1  0.75516762  0.62951927  0.86585870  1
  V  V56  1  0.49717235  0.10661944  0.13474450  1
  V  V57  1  0.36229224  0.38025754  0.49583936  1
  V  V58  1  0.63967294  0.00197784  0.62548097  1
  V  V59  1  0.26613733  0.87073646  0.62882869  1
  V  V60  1  0.26528189  0.75283459  0.50439136  1
  V  V61  1  0.26185179  0.00431397  0.74597787  1
  V  V62  1  0.25745483  0.13048154  0.37198178  1
  V  V63  1  0.76158191  0.35764941  0.11522176  1
  V  V64  1  0.24111810  0.62877240  0.87356353  1
  V  V65  1  -0.01110339  0.37681508  0.37342066  1
  V  V66  1  0.51077517  0.62101203  0.61161568  1
  V  V67  1  0.12877435  0.62836400  0.49792932  1
  V  V68  1  0.77300320  0.61472555  0.37478415  1
  V  V69  1  0.11869866  0.76636544  0.36622454  1
  V  V70  1  0.50183773  0.38400208  0.86862779  1
  V  V71  1  0.10968683  0.62126820  -0.00248099  1
  V  V72  1  0.73986760  -0.00574659  0.25443583  1
  Zn  Zn73  1  0.12659497  0.25710725  0.86723097  1
  Zn  Zn74  1  0.49525836  0.89400497  0.87190152  1
  Zn  Zn75  1  0.64856439  0.37321898  0.74971276  1
  Zn  Zn76  1  0.35611176  0.24016484  0.62118541  1
  Zn  Zn77  1  0.11213735  0.12375044  -0.00748941  1
  Zn  Zn78  1  0.12184164  0.76426026  0.88980874  1
  Zn  Zn79  1  0.49851331  0.75788863  0.73890011  1
  Zn  Zn80  1  0.37329681  0.88326527  -0.01062430  1
  Zn  Zn81  1  0.23945762  -0.01024326  0.25523124  1
  Zn  Zn82  1  0.18539045  0.18428327  0.18868223  1
  Zn  Zn83  1  0.17814285  0.18871371  0.69118973  1
  Zn  Zn84  1  0.18328292  0.68624977  0.18787550  1
  Zn  Zn85  1  0.18835736  0.68633225  0.69281417  1
  Zn  Zn86  1  0.68177529  0.18685181  0.18875156  1
  Zn  Zn87  1  0.68347128  0.19192136  0.68889494  1
  Zn  Zn88  1  0.69210100  0.69293759  0.18748386  1
  Zn  Zn89  1  0.69228608  0.68299309  0.68453842  1
  Zn  Zn90  1  0.31887721  0.30990833  0.32014331  1
  Zn  Zn91  1  0.31599037  0.30690566  0.81023516  1
  Zn  Zn92  1  0.30080483  0.80270397  0.30474173  1
  Zn  Zn93  1  0.32089928  0.79997336  0.83544272  1
  Zn  Zn94  1  0.80504267  0.31488564  0.31141110  1
  Zn  Zn95  1  0.82325939  0.30055967  0.83437241  1
  Zn  Zn96  1  0.81537181  0.80743965  0.30078841  1
  Zn  Zn97  1  0.81778137  0.81197279  0.81199361  1
  Zn  Zn98  1  0.18478199  0.44075700  0.43646445  1
  Zn  Zn99  1  0.18523012  0.43942404  0.93936764  1
  Zn  Zn100  1  0.18783543  0.94092490  0.44946569  1
  Zn  Zn101  1  0.18209632  0.93888548  0.93943715  1
  Zn  Zn102  1  0.68933276  0.43842537  0.43659859  1
  Zn  Zn103  1  0.68516320  0.44535451  0.94258189  1
  Zn  Zn104  1  0.69423276  0.94695944  0.44286519  1
  Zn  Zn105  1  0.68761474  0.93231670  0.93542702  1
  Zn  Zn106  1  0.31158417  0.05805359  0.06027602  1
  Zn  Zn107  1  0.31459388  0.05778790  0.56072149  1
  Zn  Zn108  1  0.28979654  0.54536017  0.04107110  1
  Zn  Zn109  1  0.31465886  0.55811055  0.55878303  1
  Zn  Zn110  1  0.81196573  0.06053270  0.06780283  1
  Zn  Zn111  1  0.81944383  0.06356874  0.55687010  1
  Zn  Zn112  1  0.80566407  0.57279393  0.05433439  1
  Zn  Zn113  1  0.80353254  0.56281845  0.55727664  1
  Zn  Zn114  1  0.44022968  0.42216439  0.19172080  1
  Zn  Zn115  1  0.44194335  0.43770889  0.68097031  1
  Zn  Zn116  1  0.43076709  0.92443667  0.19332466  1
  Zn  Zn117  1  0.44548775  0.93917492  0.69561568  1
  Zn  Zn118  1  0.93369340  0.43682297  0.17908179  1
  Zn  Zn119  1  0.81095595  0.44650076  0.70917087  1
  Zn  Zn120  1  0.94445099  0.94071700  0.19405585  1
  Zn  Zn121  1  0.93897040  0.94309858  0.69132584  1
  Zn  Zn122  1  0.06009457  0.06325816  0.31298951  1
  Zn  Zn123  1  0.06825510  0.06818137  0.81306881  1
  Zn  Zn124  1  0.07124439  0.56505994  0.31682702  1
  Zn  Zn125  1  -0.00014949  0.50085752  0.76387513  1
  Zn  Zn126  1  0.55407575  0.06546824  0.31346450  1
  Zn  Zn127  1  0.56719142  0.05745686  0.80582625  1
  Zn  Zn128  1  0.56791152  0.55785539  0.30634841  1
  Zn  Zn129  1  0.57056080  0.56566532  0.80146735  1
  Zn  Zn130  1  0.44202526  0.20199267  0.44139558  1
  Zn  Zn131  1  0.43563167  0.17973388  0.94231233  1
  Zn  Zn132  1  0.44186307  0.68169338  0.43562053  1
  Zn  Zn133  1  0.44576024  0.70319439  0.94248504  1
  Zn  Zn134  1  0.93441140  0.18983871  0.44014526  1
  Zn  Zn135  1  0.93011194  0.19817551  0.93635947  1
  Zn  Zn136  1  0.93983287  0.69618882  0.43343010  1
  Zn  Zn137  1  0.92952538  0.68861342  0.94512580  1
  Zn  Zn138  1  0.06891576  0.31057231  0.07002538  1
  Zn  Zn139  1  0.06104048  0.31305564  0.56364752  1
  Zn  Zn140  1  0.06305614  0.80873851  0.06775340  1
  Zn  Zn141  1  0.06861192  0.80955299  0.56242401  1
  Zn  Zn142  1  0.56441656  0.31181842  0.05885242  1
  Zn  Zn143  1  0.56964507  0.31261367  0.56106794  1
  Zn  Zn144  1  0.55465482  0.81385378  0.06064622  1
  Zn  Zn145  1  0.56452675  0.80929097  0.56057810  1
  O  O146  1  0.10954881  0.12218380  0.12513864  1
  O  O147  1  0.11448692  0.12971746  0.61133139  1
  O  O148  1  0.11491256  0.61760426  0.11844372  1
  O  O149  1  0.12126526  0.61882564  0.61579798  1
  O  O150  1  0.61222918  0.12647512  0.11464488  1
  O  O151  1  0.61392306  0.10895994  0.63267346  1
  O  O152  1  0.63725717  0.63331999  0.10800738  1
  O  O153  1  0.61725340  0.61284898  0.63134853  1
  O  O154  1  0.39024112  0.36867745  0.38615254  1
  O  O155  1  0.38178821  0.38093865  0.87600401  1
  O  O156  1  0.36908194  0.88006303  0.37944887  1
  O  O157  1  0.37333912  0.89312689  0.86640128  1
  O  O158  1  0.88731359  0.37228908  0.37726973  1
  O  O159  1  0.88996122  0.38758814  0.88167993  1
  O  O160  1  0.88192725  0.88282636  0.36507180  1
  O  O161  1  0.89510522  0.87295808  0.86684662  1
  O  O162  1  0.26096369  0.00894211  0.38205012  1
  O  O163  1  0.24263384  0.01194847  0.86333761  1
  O  O164  1  0.24225716  0.51685167  0.37556707  1
  O  O165  1  0.25974269  0.50415588  0.87164459  1
  O  O166  1  0.76734861  -0.00356132  0.36804323  1
  O  O167  1  0.73743280  0.01435815  0.86816264  1
  O  O168  1  0.75508730  0.51200310  0.37231153  1
  O  O169  1  0.75967198  0.50246654  0.87389577  1
  O  O170  1  0.25280298  0.48531918  0.12960362  1
  O  O171  1  0.23625709  0.49337270  0.62290124  1
  O  O172  1  0.23472944  1.01204468  0.13373084  1
  O  O173  1  0.25354958  0.98793605  0.63351759  1
  O  O174  1  0.75272223  0.50064792  0.13483234  1
  O  O175  1  0.74326753  0.50650142  0.63492958  1
  O  O176  1  0.75219612  0.99405682  0.14323089  1
  O  O177  1  0.73855817  1.00488535  0.61318481  1
  O  O178  1  -0.00624953  0.36097528  0.25472903  1
  O  O179  1  -0.00792835  0.37113480  0.74194035  1
  O  O180  1  0.02890736  0.90629546  0.25884056  1
  O  O181  1  0.00920663  0.87304048  0.75521917  1
  O  O182  1  0.51392082  0.37577270  0.26164432  1
  O  O183  1  0.49648746  0.36320104  0.76245259  1
  O  O184  1  0.49788570  0.86499546  0.27205753  1
  O  O185  1  0.51520887  0.87402916  0.75480976  1
  O  O186  1  0.50562914  0.12981948  0.23306408  1
  O  O187  1  0.50113037  0.13256710  0.74102277  1
  O  O188  1  0.50838066  0.64062187  0.26020759  1
  O  O189  1  0.48667707  0.62481534  0.74480228  1
  O  O190  1  0.98960835  0.13436999  0.24507647  1
  O  O191  1  0.99613711  0.11926716  0.73410951  1
  O  O192  1  1.00247250  0.62030057  0.24293703  1
  O  O193  1  1.00480163  0.63396054  0.73526040  1
  O  O194  1  0.36494541  0.25625297  0.00556991  1
  O  O195  1  0.38785982  0.27214792  0.51481814  1
  O  O196  1  0.35930836  0.77198480  -0.05187353  1
  O  O197  1  0.36387108  0.74844164  0.49991505  1
  O  O198  1  0.84378199  0.26843188  -0.05271501  1
  O  O199  1  0.86685004  0.26343029  0.49973951  1
  O  O200  1  0.86932856  0.73602170  0.02704310  1
  O  O201  1  0.87125915  0.75230098  0.51002944  1
  O  O202  1  0.11479153  0.23776789  0.48786379  1
  O  O203  1  0.14013506  0.24769286  1.00420432  1
  O  O204  1  0.13474434  0.74157355  0.49771271  1
  O  O205  1  0.12272531  0.72681148  1.00070376  1
  O  O206  1  0.63893894  0.25470346  0.48920525  1
  O  O207  1  0.61601277  0.23818309  0.98585013  1
  O  O208  1  0.64373438  0.75271494  0.48981266  1
  O  O209  1  0.62805352  0.75604271  0.98178207  1
  O  O210  1  0.48359691  0.25263900  0.12009165  1
  O  O211  1  0.51238400  0.23584009  0.63351705  1
  O  O212  1  0.50594915  0.75616654  0.14551236  1
  O  O213  1  0.50958166  0.73070238  0.62437350  1
  O  O214  1  1.00604280  0.24415935  0.14178186  1
  O  O215  1  0.99982743  0.24096639  0.63358935  1
  O  O216  1  0.99254169  0.73533799  0.12549821  1
  O  O217  1  0.99090535  0.74388086  0.62372796  1
  O  O218  1  0.00595459  0.25604513  0.36888861  1
  O  O219  1  -0.00021465  0.27053669  0.86816483  1
  O  O220  1  0.01863791  0.75807584  0.38472067  1
  O  O221  1  -0.00055166  0.74047370  0.86071950  1
  O  O222  1  0.51884169  0.26386190  0.38167656  1
  O  O223  1  0.50148301  0.24601517  0.86361231  1
  O  O224  1  0.51758476  0.75730286  0.38337038  1
  O  O225  1  0.52225171  0.74678135  0.85947482  1
  O  O226  1  0.23455138  0.11932796  0.49560569  1
  O  O227  1  0.25095400  0.13217796  0.98737650  1
  O  O228  1  0.24592437  0.63633756  0.50322970  1
  O  O229  1  0.26093162  0.63269315  0.97680868  1
  O  O230  1  0.76225555  0.13927918  0.49277102  1
  O  O231  1  0.73475671  0.11955695  0.99225210  1
  O  O232  1  0.75992819  0.63682442  0.48094652  1
  O  O233  1  0.73077648  0.61903267  0.98029764  1
  O  O234  1  0.25987844  0.36724895  0.00419202  1
  O  O235  1  0.25929287  0.37317219  0.49463759  1
  O  O236  1  0.25009508  0.88380414  0.01445519  1
  O  O237  1  0.24900755  0.86660449  0.51784016  1
  O  O238  1  0.73294042  0.37806215  0.01943349  1
  O  O239  1  0.76783312  0.37662971  0.49715579  1
  O  O240  1  0.75316163  0.89260384  0.01857918  1
  O  O241  1  0.75665373  0.86042573  0.49204356  1
  O  O242  1  0.13462707  0.50747638  0.23594635  1
  O  O243  1  0.11208043  0.50396195  0.73127005  1
  O  O244  1  0.11912323  1.00100073  0.23711290  1
  O  O245  1  0.12891598  0.99050071  0.74595362  1
  O  O246  1  0.64019460  0.48325435  0.25590574  1
  O  O247  1  0.62716875  0.48901700  0.74230478  1
  O  O248  1  0.64161749  1.00668766  0.26554409  1
  O  O249  1  0.62816089  0.98920929  0.73491543  1
  O  O250  1  0.37534336  -0.00204184  0.27266391  1
  O  O251  1  0.36079345  0.00074846  0.75000236  1
  O  O252  1  0.38412511  0.52651618  0.22289041  1
  O  O253  1  0.37832284  0.50165795  0.76007130  1
  O  O254  1  0.87310462  0.01010589  0.26277743  1
  O  O255  1  0.87316578  0.01760491  0.74654909  1
  O  O256  1  0.86061794  0.49184356  0.25143507  1
  O  O257  1  0.88631421  0.50688420  0.77231222  1
  O  O258  1  0.11580000  0.36007642  0.38326000  1
  O  O259  1  0.10984779  0.37520982  0.88575954  1
  O  O260  1  0.14250758  0.86475683  0.38021122  1
  O  O261  1  0.11752626  0.87626011  0.86057085  1
  O  O262  1  0.61806104  0.37366155  0.37066996  1
  O  O263  1  0.61136043  0.36272233  0.88007903  1
  O  O264  1  0.62186062  0.87403791  0.37732474  1
  O  O265  1  0.63234914  0.86480402  0.86031052  1
  O  O266  1  0.38433390  0.13454259  0.12030350  1
  O  O267  1  0.39090364  0.12615046  0.61903474  1
  O  O268  1  0.41230860  0.56419565  0.15736648  1
  O  O269  1  0.38551816  0.61355276  0.63425057  1
  O  O270  1  0.88685204  0.11968511  0.14002057  1
  O  O271  1  0.88164328  0.12958498  0.63375485  1
  O  O272  1  0.89269174  0.60907340  0.12545494  1
  O  O273  1  0.88753984  0.62628845  0.61578539  1
  O  O274  1  0.25662187  0.25653577  0.12097723  1
  O  O275  1  0.24124352  0.26653213  0.63143055  1
  O  O276  1  0.24529363  0.75506240  0.11917112  1
  O  O277  1  0.24828546  0.75921410  0.61860727  1
  O  O278  1  0.74797522  0.25767071  0.12715848  1
  O  O279  1  0.73865426  0.24748601  0.60646547  1
  O  O280  1  0.75728538  0.77595213  0.13331799  1
  O  O281  1  0.76527241  0.74407715  0.61228688  1
  O  O282  1  0.23494827  0.24254111  0.37085558  1
  O  O283  1  0.24846315  0.24363616  0.87944245  1
  O  O284  1  0.24487789  0.74306865  0.39152469  1
  O  O285  1  0.22882089  0.73169565  0.85260724  1
  O  O286  1  0.73899565  0.25812429  0.38620101  1
  O  O287  1  0.72711477  0.23281867  0.86890808  1
  O  O288  1  0.74765213  0.74269069  0.37769116  1
  O  O289  1  0.74435478  0.73997678  0.86725826  1
  O  O290  1  -0.00783176  0.14334233  0.01598605  1
  O  O291  1  0.00218961  0.12444864  0.51105177  1
  O  O292  1  0.00889087  0.61609027  0.00215919  1
  O  O293  1  0.00775566  0.62003736  0.50071565  1
  O  O294  1  0.50675948  0.12378259  0.01189968  1
  O  O295  1  0.50406966  0.11924464  0.50939569  1
  O  O296  1  0.51725765  0.63957060  -0.00291670  1
  O  O297  1  0.50074055  0.62060558  0.51165178  1
  O  O298  1  0.50247959  0.38012680  0.49280673  1
  O  O299  1  0.48820439  0.36314600  0.98244014  1
  O  O300  1  0.50193807  0.88056959  0.48753139  1
  O  O301  1  0.48886559  0.85984923  0.98350075  1
  O  O302  1  0.99019021  0.37936076  0.49541074  1
  O  O303  1  0.99850426  0.37446831  1.00704581  1
  O  O304  1  1.00878391  0.89206155  0.50796417  1
  O  O305  1  1.01313772  0.86576236  0.98008716  1
  O  O306  1  0.50505712  0.48790185  0.37407243  1
  O  O307  1  0.49386943  0.48593533  0.86864272  1
  O  O308  1  0.49404853  0.98724767  0.37950623  1
  O  O309  1  0.49932750  1.00811996  0.87680667  1
  O  O310  1  1.01339565  0.48906492  0.38474891  1
  O  O311  1  0.99705191  0.48647381  0.88310725  1
  O  O312  1  0.98965613  1.00681176  0.38772358  1
  O  O313  1  1.00354506  0.99685665  0.87690017  1
  O  O314  1  0.00747856  0.01438382  0.12245988  1
  O  O315  1  -0.00964447  0.01479230  0.61003647  1
  O  O316  1  0.01645784  0.50271989  0.12935515  1
  O  O317  1  0.01221386  0.50916249  0.61088981  1
  O  O318  1  0.49088622  0.00717735  0.13579261  1
  O  O319  1  0.50053781  0.00903119  0.61779224  1
  O  O320  1  0.47234675  0.52117032  0.12440708  1
  O  O321  1  0.51378962  0.50974567  0.62963990  1
  O  O322  1  0.25658184  0.37021024  0.24044575  1
  O  O323  1  0.24786730  0.37722329  0.74463405  1
  O  O324  1  0.25480757  0.87650110  0.22880407  1
  O  O325  1  0.23974722  0.88379977  0.74293577  1
  O  O326  1  0.74490308  0.38345300  0.23756933  1
  O  O327  1  0.76047025  0.36033576  0.76229218  1
  O  O328  1  0.75129655  0.88935676  0.24544507  1
  O  O329  1  0.74401787  0.87471513  0.74597175  1
  O  O330  1  0.24358794  0.11911720  0.26987146  1
  O  O331  1  0.24271248  0.11393032  0.75433440  1
  O  O332  1  0.25247907  0.63510019  0.26417973  1
  O  O333  1  0.26425653  0.62011523  0.75509368  1
  O  O334  1  0.76307579  0.11684361  0.24423414  1
  O  O335  1  0.75930697  0.13155999  0.75647674  1
  O  O336  1  0.74621359  0.61340275  0.26004593  1
  O  O337  1  0.74641540  0.62106569  0.76479904  1
  O  O338  1  0.35829406  0.13796408  0.38634625  1
  O  O339  1  0.35807018  0.13042125  0.87151820  1
  O  O340  1  0.36237013  0.62374407  0.38166773  1
  O  O341  1  0.37089447  0.61125272  0.86504311  1
  O  O342  1  0.87854323  0.12096358  0.36376337  1
  O  O343  1  0.86047965  0.12212834  0.86874006  1
  O  O344  1  0.87250374  0.62778239  0.36910985  1
  O  O345  1  0.86108583  0.62149908  0.87884967  1
  O  O346  1  0.13989856  0.38611378  0.12420481  1
  O  O347  1  0.13425761  0.38761036  0.61597890  1
  O  O348  1  0.13277524  0.88763159  0.11956063  1
  O  O349  1  0.13082151  0.87286977  0.63769595  1
  O  O350  1  0.62330964  0.36801596  0.14044436  1
  O  O351  1  0.62168989  0.38436755  0.63258149  1
  O  O352  1  0.63128415  0.87778867  0.12094437  1
  O  O353  1  0.62371981  0.88512788  0.63079545  1
  O  O354  1  0.10994537  0.24207113  0.26528286  1
  O  O355  1  0.10170927  0.24932114  0.75120869  1
  O  O356  1  0.12943244  0.75002211  0.26688139  1
  O  O357  1  0.10737938  0.75786970  0.74416449  1
  O  O358  1  0.63800870  0.26552531  0.26598302  1
  O  O359  1  0.61104878  0.25180224  0.76141683  1
  O  O360  1  0.62465528  0.74990941  0.27017030  1
  O  O361  1  0.63102951  0.76315766  0.74540611  1
  O  O362  1  0.37261325  0.25065379  0.23622562  1
  O  O363  1  0.38993242  0.25167041  0.73901666  1
  O  O364  1  0.39100565  0.74872652  0.26013468  1
  O  O365  1  0.37618049  0.73390180  0.75243724  1
  O  O366  1  0.88437416  0.23971351  0.25842911  1
  O  O367  1  0.89492179  0.23220075  0.75969118  1
  O  O368  1  0.87294831  0.74352341  0.22719859  1
  O  O369  1  0.89090809  0.75432877  0.73294985  1
  O  O370  1  0.37852848  0.48067360  0.50565116  1
  O  O371  1  0.37197682  0.48647233  0.98312753  1
  O  O372  1  0.38914796  1.00589183  0.48622579  1
  O  O373  1  0.38143058  0.99747324  0.99974006  1
  O  O374  1  0.88699449  0.49064521  0.50357602  1
  O  O375  1  0.87517761  0.50893542  0.98549063  1
  O  O376  1  0.88375397  0.99884323  0.48652168  1
  O  O377  1  0.86766486  1.00244690  0.99005454  1
  O  O378  1  0.12677289  0.00932726  0.01565931  1
  O  O379  1  0.10943570  0.01648554  0.49251456  1
  O  O380  1  0.14798264  0.51725886  0.01915096  1
  O  O381  1  0.11797667  0.51082461  0.50487989  1
  O  O382  1  0.61825225  0.00866374  -0.00323490  1
  O  O383  1  0.61366736  -0.00538720  0.51169518  1
  O  O384  1  0.61033137  0.51011354  -0.00086520  1
  O  O385  1  0.63533201  0.49464219  0.52065863  1
  O  O386  1  0.36715189  0.36654097  0.11851659  1
  O  O387  1  0.35492207  0.38038027  0.62232780  1
  O  O388  1  0.36488485  0.87055083  0.11672294  1
  O  O389  1  0.36523024  0.87208529  0.63641319  1
  O  O390  1  0.86236340  0.37113420  0.12030211  1
  O  O391  1  0.87242808  0.38012451  0.61924356  1
  O  O392  1  0.88378974  0.87366110  0.12391508  1
  O  O393  1  0.87948940  0.86800049  0.62337604  1
  O  O394  1  0.12967567  0.13331943  0.38506696  1
  O  O395  1  0.13478489  0.13525293  0.87745081  1
  O  O396  1  0.13503262  0.63565801  0.38537814  1
  O  O397  1  0.13646391  0.60908681  0.88868802  1
  O  O398  1  0.61903713  0.14062748  0.37204888  1
  O  O399  1  0.62586928  0.12841454  0.88342578  1
  O  O400  1  0.63374989  0.63130675  0.37864411  1
  O  O401  1  0.63198441  0.63527297  0.87541458  1
