# generated using pymatgen
data_V73Zn73O256
_symmetry_space_group_name_H-M   'P 1'
_cell_length_a   16.86422190
_cell_length_b   16.87092783
_cell_length_c   16.85029629
_cell_angle_alpha   89.96001038
_cell_angle_beta   89.80513397
_cell_angle_gamma   90.02653759
_symmetry_Int_Tables_number   1
_chemical_formula_structural   V73Zn73O256
_chemical_formula_sum   'V73 Zn73 O256'
_cell_volume   4794.13382448
_cell_formula_units_Z   1
loop_
 _symmetry_equiv_pos_site_id
 _symmetry_equiv_pos_as_xyz
  1  'x, y, z'
loop_
 _atom_site_type_symbol
 _atom_site_label
 _atom_site_symmetry_multiplicity
 _atom_site_fract_x
 _atom_site_fract_y
 _atom_site_fract_z
 _atom_site_occupancy
  V  V0  1  0.38455851  0.12245491  0.23901048  1
  V  V1  1  0.38802795  0.49477115  0.88956656  1
  V  V2  1  0.13686383  0.75055830  0.88382881  1
  V  V3  1  0.62161168  0.63796612  0.49992364  1
  V  V4  1  0.24297260  0.85311358  0.11664662  1
  V  V5  1  0.87053651  0.64155902  0.23519315  1
  V  V6  1  0.61257442  -0.00074337  0.13138772  1
  V  V7  1  -0.00242136  0.12526489  0.62283362  1
  V  V8  1  0.25292787  0.24686154  0.49587558  1
  V  V9  1  0.13383694  0.00464989  0.12913665  1
  V  V10  1  0.12847647  0.12648133  0.49362893  1
  V  V11  1  -0.00410272  0.38345597  0.87752481  1
  V  V12  1  0.12541759  0.86333962  0.74627830  1
  V  V13  1  0.63215769  0.23215549  0.86895580  1
  V  V14  1  0.24458067  0.61354101  0.88826835  1
  V  V15  1  0.35680145  0.62295778  0.74991346  1
  V  V16  1  0.13753611  0.24406424  0.86849299  1
  V  V17  1  0.62126616  -0.00641321  0.62744716  1
  V  V18  1  0.74979401  0.00876333  0.75127525  1
  V  V19  1  0.49489127  0.62614837  0.62908110  1
  V  V20  1  0.74677293  0.75081777  -0.01686772  1
  V  V21  1  0.74988517  0.76245700  0.50004924  1
  V  V22  1  0.61267407  0.52124515  0.12937246  1
  V  V23  1  0.62907782  0.12781153  0.49592642  1
  V  V24  1  0.13762069  0.12175440  -0.00570505  1
  V  V25  1  0.13518154  0.49587337  0.60247771  1
  V  V26  1  -0.01801374  0.24388068  0.23763725  1
  V  V27  1  0.25040560  0.11860713  0.36286671  1
  V  V28  1  0.11417808  0.62823320  0.03222558  1
  V  V29  1  0.13267129  -0.00313942  0.62363787  1
  V  V30  1  0.38429619  0.26536804  0.11649528  1
  V  V31  1  0.12713711  0.87029181  0.25559703  1
  V  V32  1  0.36854266  0.50071756  0.37060602  1
  V  V33  1  -0.00697958  -0.00432917  0.49326750  1
  V  V34  1  0.74765692  0.87270233  0.13441665  1
  V  V35  1  0.39252391  0.74383453  0.12162135  1
  V  V36  1  0.12244497  0.47438566  0.12521075  1
  V  V37  1  0.50203696  0.25849618  0.25111287  1
  V  V38  1  0.25321954  -0.00634418  0.74738200  1
  V  V39  1  -0.00393063  0.25001037  0.74458918  1
  V  V40  1  0.13135107  0.35741839  0.27008018  1
  V  V41  1  0.37098048  0.25538342  0.62505522  1
  V  V42  1  0.76072361  0.26514598  0.50474518  1
  V  V43  1  0.62724873  0.38273517  0.24832332  1
  V  V44  1  0.37574595  0.37254145  0.49572356  1
  V  V45  1  0.49994031  0.12545062  0.61898341  1
  V  V46  1  -0.00878540  0.75297613  0.23940272  1
  V  V47  1  0.62488022  0.26050334  0.37713199  1
  V  V48  1  0.50503532  0.49344875  0.49611183  1
  V  V49  1  0.50927191  0.87146424  0.87640529  1
  V  V50  1  0.61681529  0.63277520  -0.01031413  1
  V  V51  1  0.00104581  0.86906683  0.87247959  1
  V  V52  1  0.61410641  0.11209741  0.00011292  1
  V  V53  1  0.26018750  0.75522163  0.49160028  1
  V  V54  1  0.00104333  0.00716872  0.00473050  1
  V  V55  1  -0.01847238  0.87308957  0.37780614  1
  V  V56  1  0.76202266  0.50114979  0.24977346  1
  V  V57  1  0.61563524  0.37980453  0.75392582  1
  V  V58  1  0.87330391  0.87391209  0.00433498  1
  V  V59  1  0.76101631  0.01836453  0.25492563  1
  V  V60  1  0.37458978  0.63057468  0.24549606  1
  V  V61  1  0.14780905  0.38099933  0.74108540  1
  V  V62  1  0.37468704  -0.00313677  0.88437084  1
  V  V63  1  0.76109715  0.87814983  0.63421210  1
  V  V64  1  0.50766717  0.74981717  0.75510446  1
  V  V65  1  0.87432889  0.00899078  0.87216242  1
  V  V66  1  0.39379740  -0.00289117  0.38055889  1
  V  V67  1  -0.01891221  0.37296646  0.38505644  1
  V  V68  1  0.75465317  0.62869537  0.38014888  1
  V  V69  1  0.75790274  0.50780668  0.76595908  1
  V  V70  1  0.88319009  0.74200732  0.63751705  1
  V  V71  1  0.25307578  0.26732312  0.00291447  1
  V  V72  1  0.37138064  0.12009214  0.74773944  1
  Zn  Zn73  1  0.36943506  0.85976662  -0.00808012  1
  Zn  Zn74  1  0.75383474  0.37590994  0.63240326  1
  Zn  Zn75  1  0.62575752  0.49785115  0.62813299  1
  Zn  Zn76  1  0.49379283  0.35803079  0.91342573  1
  Zn  Zn77  1  0.49381805  0.25450361  0.75345783  1
  Zn  Zn78  1  0.25160039  0.48803867  0.24333761  1
  Zn  Zn79  1  0.00201802  0.60895684  0.61440736  1
  Zn  Zn80  1  0.75093631  0.24957875  0.00852115  1
  Zn  Zn81  1  0.86909442  0.13258892  0.74349342  1
  Zn  Zn82  1  0.19047762  0.19285596  0.18197818  1
  Zn  Zn83  1  0.18917126  0.18321868  0.68392578  1
  Zn  Zn84  1  0.15714819  0.64797532  0.24661400  1
  Zn  Zn85  1  0.12034761  0.60229584  0.75029308  1
  Zn  Zn86  1  0.68833512  0.18554703  0.18006432  1
  Zn  Zn87  1  0.68947339  0.19512562  0.68235639  1
  Zn  Zn88  1  0.67959558  0.69873674  0.19414454  1
  Zn  Zn89  1  0.68557069  0.68618113  0.68933617  1
  Zn  Zn90  1  0.31777809  0.30819058  0.31452096  1
  Zn  Zn91  1  0.31951925  0.31363813  0.81957118  1
  Zn  Zn92  1  0.31912611  0.82199423  0.30033713  1
  Zn  Zn93  1  0.31502549  0.80881210  0.80766840  1
  Zn  Zn94  1  0.81104269  0.31095872  0.31353588  1
  Zn  Zn95  1  0.78517226  0.35669123  0.85602933  1
  Zn  Zn96  1  0.80509028  0.82079403  0.31758961  1
  Zn  Zn97  1  0.81369928  0.81681670  0.81205761  1
  Zn  Zn98  1  0.19037105  0.42757100  0.43659468  1
  Zn  Zn99  1  0.16681943  0.44108534  0.93895889  1
  Zn  Zn100  1  0.18920354  0.94987935  0.42636403  1
  Zn  Zn101  1  0.19245373  0.93781200  0.93625509  1
  Zn  Zn102  1  0.69142062  0.44143244  0.43130866  1
  Zn  Zn103  1  0.65906446  0.42751631  0.95724498  1
  Zn  Zn104  1  0.69618428  0.94793508  0.44259330  1
  Zn  Zn105  1  0.68894277  0.93828383  0.93631872  1
  Zn  Zn106  1  0.31122554  0.06238710  0.06555152  1
  Zn  Zn107  1  0.31642783  0.05873692  0.55836121  1
  Zn  Zn108  1  0.30338544  0.56353601  0.06772831  1
  Zn  Zn109  1  0.31342784  0.55390904  0.56719926  1
  Zn  Zn110  1  0.79825900  0.06347521  0.05596712  1
  Zn  Zn111  1  0.83408396  0.09167507  0.51788852  1
  Zn  Zn112  1  0.80145065  0.57101167  0.06278266  1
  Zn  Zn113  1  0.79945287  0.56878944  0.57982576  1
  Zn  Zn114  1  0.44224382  0.43870236  0.18159520  1
  Zn  Zn115  1  0.42890223  0.44424893  0.69194109  1
  Zn  Zn116  1  0.42014940  0.93833570  0.18126373  1
  Zn  Zn117  1  0.43742154  0.92872197  0.67762700  1
  Zn  Zn118  1  0.99020534  0.48522842  0.24902091  1
  Zn  Zn119  1  0.95727474  0.45010623  0.70263940  1
  Zn  Zn120  1  0.93704336  0.94360630  0.18742419  1
  Zn  Zn121  1  0.94081412  0.94020305  0.68649935  1
  Zn  Zn122  1  0.05556179  0.06430757  0.30840289  1
  Zn  Zn123  1  0.06388713  0.06065684  0.81259114  1
  Zn  Zn124  1  0.05712116  0.56262553  0.42314697  1
  Zn  Zn125  1  -0.06368482  0.57778357  0.81057719  1
  Zn  Zn126  1  0.56992562  0.06842857  0.30807880  1
  Zn  Zn127  1  0.55465538  0.05745634  0.80715701  1
  Zn  Zn128  1  0.56194231  0.56666818  0.31654450  1
  Zn  Zn129  1  0.56103606  0.56473388  0.81595314  1
  Zn  Zn130  1  0.44085828  0.18330935  0.43204253  1
  Zn  Zn131  1  0.43888154  0.18113688  0.93630567  1
  Zn  Zn132  1  0.45023134  0.67553921  0.41810833  1
  Zn  Zn133  1  0.43565019  0.68297738  0.93640499  1
  Zn  Zn134  1  0.92811567  0.18737921  0.40131182  1
  Zn  Zn135  1  0.94689728  0.18929397  0.93333555  1
  Zn  Zn136  1  0.93311548  0.69458406  0.44475341  1
  Zn  Zn137  1  0.93966498  0.68744896  0.94754187  1
  Zn  Zn138  1  0.05316219  0.30479583  0.05788340  1
  Zn  Zn139  1  0.06423277  0.31443680  0.56181100  1
  Zn  Zn140  1  0.06006052  0.81310829  0.05933784  1
  Zn  Zn141  1  0.06167194  0.81215380  0.56211813  1
  Zn  Zn142  1  0.59327326  0.30709582  0.07120856  1
  Zn  Zn143  1  0.56203732  0.31209110  0.56934867  1
  Zn  Zn144  1  0.56488410  0.81935799  0.05744266  1
  Zn  Zn145  1  0.54604131  0.81973567  0.56663262  1
  O  O146  1  0.13312929  0.10934133  0.11840628  1
  O  O147  1  0.12151922  0.11394349  0.61502692  1
  O  O148  1  0.12891427  0.63677671  0.13101021  1
  O  O149  1  0.13156944  0.59801050  0.63005483  1
  O  O150  1  0.61576264  0.10845383  0.11408149  1
  O  O151  1  0.61555335  0.12652929  0.61774670  1
  O  O152  1  0.62150141  0.62554585  0.13128089  1
  O  O153  1  0.61412288  0.61896608  0.61641910  1
  O  O154  1  0.38064325  0.37989795  0.38749830  1
  O  O155  1  0.38352417  0.38810688  0.87852915  1
  O  O156  1  0.38221376  0.89833081  0.34997882  1
  O  O157  1  0.37606211  0.88298695  0.87383513  1
  O  O158  1  0.88038485  0.37843761  0.37701747  1
  O  O159  1  0.89857098  0.35682579  0.87083241  1
  O  O160  1  0.88262413  0.88234726  0.37874872  1
  O  O161  1  0.88361606  0.88486257  0.88095781  1
  O  O162  1  0.26535575  0.01449589  0.36953644  1
  O  O163  1  0.26515255  -0.00593422  0.86239394  1
  O  O164  1  0.26721921  0.49142231  0.37733084  1
  O  O165  1  0.24531713  0.51179318  0.88103505  1
  O  O166  1  0.74166502  -0.00723653  0.35309487  1
  O  O167  1  0.76050212  -0.00751142  0.86203215  1
  O  O168  1  0.74495119  0.51790581  0.36319459  1
  O  O169  1  0.74039164  0.48932326  0.86445108  1
  O  O170  1  0.23022227  0.50160202  0.12808991  1
  O  O171  1  0.23884262  0.48527595  0.61127763  1
  O  O172  1  0.23755903  0.98902325  0.12381960  1
  O  O173  1  0.24165543  0.99917338  0.62869273  1
  O  O174  1  0.74283434  0.51492853  0.14735480  1
  O  O175  1  0.74238261  0.49281067  0.64009511  1
  O  O176  1  0.74131627  0.99494647  0.13290858  1
  O  O177  1  0.74362154  0.98758194  0.63073325  1
  O  O178  1  0.01318800  0.36279114  0.26016632  1
  O  O179  1  0.01514692  0.35812415  0.75140318  1
  O  O180  1  0.00068477  0.87340452  0.26175405  1
  O  O181  1  0.01508293  0.88629909  0.76123858  1
  O  O182  1  0.50948669  0.36646149  0.24589406  1
  O  O183  1  0.50832159  0.37753086  0.74744920  1
  O  O184  1  0.53982631  0.75331618  0.28628160  1
  O  O185  1  0.48870364  0.85592791  0.75622887  1
  O  O186  1  0.49045112  0.14057476  0.24906428  1
  O  O187  1  0.48629836  0.12326110  0.73676035  1
  O  O188  1  0.47683995  0.61829443  0.25958839  1
  O  O189  1  0.49383346  0.63030154  0.74688509  1
  O  O190  1  0.99671421  0.14300249  0.25805339  1
  O  O191  1  1.00507414  0.13146773  0.73999476  1
  O  O192  1  0.98020271  0.64593414  0.25197629  1
  O  O193  1  1.00759383  0.61366228  0.73217677  1
  O  O194  1  0.36744204  0.24690649  0.00654283  1
  O  O195  1  0.37508972  0.25364102  0.50469094  1
  O  O196  1  0.37629827  0.74341985  0.01766649  1
  O  O197  1  0.36448870  0.75502173  0.47849561  1
  O  O198  1  0.87120570  0.21351265  0.02284485  1
  O  O199  1  0.85728697  0.25134233  0.48909100  1
  O  O200  1  0.86285854  0.76565553  -0.00379217  1
  O  O201  1  0.85377190  0.75186221  0.51521820  1
  O  O202  1  0.13746220  0.23359395  0.50594456  1
  O  O203  1  0.13812867  0.24143580  0.99301182  1
  O  O204  1  0.15643839  0.75567806  0.50369679  1
  O  O205  1  0.12463960  0.74093173  0.99284749  1
  O  O206  1  0.62357433  0.24766775  0.49457066  1
  O  O207  1  0.61563743  0.23337091  0.97533904  1
  O  O208  1  0.63172371  0.74538245  0.51692537  1
  O  O209  1  0.63710227  0.74564640  1.00379591  1
  O  O210  1  0.48975858  0.25450546  0.12878480  1
  O  O211  1  0.48747855  0.24176007  0.62865337  1
  O  O212  1  0.48978562  0.76354718  0.12925788  1
  O  O213  1  0.49911075  0.73303029  0.63769690  1
  O  O214  1  0.99826408  0.25041092  0.13626141  1
  O  O215  1  1.01402637  0.23869084  0.63599599  1
  O  O216  1  0.99050177  0.76807434  0.14051171  1
  O  O217  1  0.98311658  0.75442086  0.61616061  1
  O  O218  1  -0.00475465  0.26267068  0.36025898  1
  O  O219  1  0.01685905  0.24807876  0.86061191  1
  O  O220  1  -0.00761215  0.76895542  0.37216925  1
  O  O221  1  0.01038421  0.76471846  0.88310523  1
  O  O222  1  0.50979090  0.24918123  0.36399920  1
  O  O223  1  0.50115745  0.25024144  0.86917415  1
  O  O224  1  0.51100195  0.75836286  0.36178575  1
  O  O225  1  0.49390890  0.75729033  0.86542634  1
  O  O226  1  0.24659393  0.12563786  0.48846970  1
  O  O227  1  0.24125363  0.12643175  0.99933655  1
  O  O228  1  0.26120124  0.65175059  0.49978577  1
  O  O229  1  0.23308299  0.62811344  0.99132186  1
  O  O230  1  0.73244069  0.14693661  0.51085171  1
  O  O231  1  0.72551137  0.13186607  1.00034049  1
  O  O232  1  0.74075772  0.63598665  0.50021464  1
  O  O233  1  0.74651294  0.64812806  1.00257602  1
  O  O234  1  0.24272358  0.36506385  -0.00352692  1
  O  O235  1  0.26263365  0.35733975  0.49497650  1
  O  O236  1  0.25249628  0.87467396  0.01252456  1
  O  O237  1  0.25789792  0.85992724  0.48438011  1
  O  O238  1  0.75358897  0.36037226  -0.03003939  1
  O  O239  1  0.74164444  0.36927279  0.50302813  1
  O  O240  1  0.75530311  0.86952600  0.00457777  1
  O  O241  1  0.74117465  0.86823463  0.51368636  1
  O  O242  1  0.12961699  0.46903101  0.24126636  1
  O  O243  1  0.13688592  0.48063212  0.74856238  1
  O  O244  1  0.11363705  0.98795485  0.23388673  1
  O  O245  1  0.13557837  0.99590575  0.74334691  1
  O  O246  1  0.63224717  0.50516845  0.24878000  1
  O  O247  1  0.62374748  0.48875673  0.75451667  1
  O  O248  1  0.63302213  1.00613120  0.23521855  1
  O  O249  1  0.63441319  1.00836841  0.73491875  1
  O  O250  1  0.38123778  0.01956386  0.24973212  1
  O  O251  1  0.36762025  -0.00129378  0.74097560  1
  O  O252  1  0.37682956  0.49306835  0.26215871  1
  O  O253  1  0.37720856  0.51421701  0.77012593  1
  O  O254  1  0.86172627  0.00749464  0.24121291  1
  O  O255  1  0.86968487  0.00234741  0.75509524  1
  O  O256  1  0.86605990  0.52392877  0.24959343  1
  O  O257  1  0.86319679  0.49594419  0.75135145  1
  O  O258  1  0.12460106  0.36006782  0.37183002  1
  O  O259  1  0.12416576  0.36305052  0.85986022  1
  O  O260  1  0.12511473  0.88413867  0.35719723  1
  O  O261  1  0.12247256  0.87021187  0.86974395  1
  O  O262  1  0.62436791  0.37361133  0.36263095  1
  O  O263  1  0.61996576  0.35758458  0.85962684  1
  O  O264  1  0.59542786  0.88661688  0.40052951  1
  O  O265  1  0.60827666  0.88281985  0.87373653  1
  O  O266  1  0.37105484  0.13198000  0.13574845  1
  O  O267  1  0.38230930  0.12881683  0.62646081  1
  O  O268  1  0.37577018  0.63386250  0.13250059  1
  O  O269  1  0.37795952  0.61312177  0.64216707  1
  O  O270  1  0.87453167  0.15603419  0.08005934  1
  O  O271  1  0.89441268  0.11978486  0.61803983  1
  O  O272  1  0.86540106  0.63795071  0.13644825  1
  O  O273  1  0.87553888  0.63868629  0.62540193  1
  O  O274  1  0.26290424  0.24851128  0.10955837  1
  O  O275  1  0.26381172  0.23498366  0.60971230  1
  O  O276  1  0.24860792  0.75572147  0.12175953  1
  O  O277  1  0.27370438  0.76495981  0.59533040  1
  O  O278  1  0.69580461  0.26765029  0.10886219  1
  O  O279  1  0.75481575  0.26021277  0.61320461  1
  O  O280  1  0.74318086  0.76969781  0.12525875  1
  O  O281  1  0.75193640  0.76337576  0.62537740  1
  O  O282  1  0.26318372  0.23222670  0.38683921  1
  O  O283  1  0.24829153  0.24975800  0.88860955  1
  O  O284  1  0.25178582  0.75137608  0.38661729  1
  O  O285  1  0.24180268  0.74582425  0.87530592  1
  O  O286  1  0.73361788  0.25812755  0.38599702  1
  O  O287  1  0.73270690  0.24211252  0.86456836  1
  O  O288  1  0.74724712  0.75323612  0.39480735  1
  O  O289  1  0.74469828  0.76060260  0.88397979  1
  O  O290  1  0.01754829  0.11404867  -0.00572207  1
  O  O291  1  0.01403936  0.11043203  0.50286203  1
  O  O292  1  0.01517160  0.63759806  0.01844221  1
  O  O293  1  -0.00022777  0.62441149  0.49924867  1
  O  O294  1  0.51178060  0.11794298  -0.00389026  1
  O  O295  1  0.51146838  0.13157134  0.50974689  1
  O  O296  1  0.51724273  0.63750201  0.00251902  1
  O  O297  1  0.50208631  0.62115814  0.50646361  1
  O  O298  1  0.49532973  0.38843647  0.50618001  1
  O  O299  1  0.55468855  0.38794145  1.00131980  1
  O  O300  1  0.53865884  0.87838207  0.44943655  1
  O  O301  1  0.49093955  0.86691947  0.98103557  1
  O  O302  1  1.00236666  0.36506761  0.48442793  1
  O  O303  1  1.01779937  0.37402723  0.97729848  1
  O  O304  1  1.01425728  0.88483286  0.48604453  1
  O  O305  1  0.99251680  0.88366766  0.99294353  1
  O  O306  1  0.49128339  0.50478712  0.39156277  1
  O  O307  1  0.48863747  0.50649049  0.88607024  1
  O  O308  1  0.49334357  1.01356420  0.37064480  1
  O  O309  1  0.48374322  0.98144843  0.85989579  1
  O  O310  1  1.00394366  0.47862816  0.36325906  1
  O  O311  1  1.00124868  0.48154388  0.85677720  1
  O  O312  1  1.00513856  0.99195801  0.38590226  1
  O  O313  1  0.99641834  0.99196386  0.88353250  1
  O  O314  1  0.01377344  -0.01016723  0.11149466  1
  O  O315  1  0.01439480  0.00308749  0.61642945  1
  O  O316  1  0.02350407  0.50287127  0.14130716  1
  O  O317  1  0.02352480  0.48859693  0.62108952  1
  O  O318  1  0.51350668  -0.02260382  0.13358126  1
  O  O319  1  0.51576893  0.00989897  0.62947813  1
  O  O320  1  0.51321904  0.50970381  0.12868606  1
  O  O321  1  0.49580103  0.50922483  0.61286838  1
  O  O322  1  0.23877520  0.36607195  0.25746814  1
  O  O323  1  0.24701954  0.36635530  0.74881227  1
  O  O324  1  0.23191348  0.86632351  0.23761683  1
  O  O325  1  0.23691309  0.88077764  0.75123329  1
  O  O326  1  0.74772002  0.39701558  0.25830678  1
  O  O327  1  0.73585099  0.38349915  0.75192465  1
  O  O328  1  0.75192151  0.88328971  0.23735854  1
  O  O329  1  0.74849125  0.88472584  0.73898733  1
  O  O330  1  0.26241830  0.13611368  0.25839645  1
  O  O331  1  0.26256079  0.11053151  0.74237287  1
  O  O332  1  0.26863728  0.60947542  0.24924165  1
  O  O333  1  0.25534210  0.62429471  0.76116636  1
  O  O334  1  0.74576478  0.11898376  0.24749492  1
  O  O335  1  0.75449010  0.11356920  0.73566298  1
  O  O336  1  0.75611232  0.63329408  0.25995737  1
  O  O337  1  0.73930681  0.60727358  0.75023620  1
  O  O338  1  0.37061951  0.11978358  0.36259805  1
  O  O339  1  0.38402645  0.10448319  0.86091575  1
  O  O340  1  0.37144862  0.60860351  0.36884363  1
  O  O341  1  0.35894285  0.61893310  0.87386894  1
  O  O342  1  0.86520411  0.10144505  0.41006692  1
  O  O343  1  0.88469690  0.11205582  0.86961638  1
  O  O344  1  0.85794845  0.63749587  0.37374645  1
  O  O345  1  0.87632881  0.61611668  0.89365971  1
  O  O346  1  0.12521512  0.37394301  0.11705652  1
  O  O347  1  0.13043381  0.37543866  0.63425878  1
  O  O348  1  0.13192042  0.87873981  0.12718543  1
  O  O349  1  0.11832166  0.88068338  0.63866914  1
  O  O350  1  0.62833172  0.40340554  0.14528618  1
  O  O351  1  0.62470085  0.37469075  0.64100160  1
  O  O352  1  0.63929749  0.88802931  0.11531935  1
  O  O353  1  0.62595813  0.89125234  0.62020300  1
  O  O354  1  0.11926845  0.25632646  0.24282293  1
  O  O355  1  0.12969044  0.25128445  0.75475031  1
  O  O356  1  0.10463666  0.76327913  0.24980354  1
  O  O357  1  0.12503207  0.76402942  0.75992649  1
  O  O358  1  0.62053525  0.26057284  0.25751319  1
  O  O359  1  0.61784871  0.25342650  0.75403980  1
  O  O360  1  0.62018699  0.75553299  0.28223114  1
  O  O361  1  0.60775911  0.74558407  0.75044742  1
  O  O362  1  0.38294825  0.24726017  0.23751593  1
  O  O363  1  0.36984530  0.23814389  0.74174646  1
  O  O364  1  0.36922208  0.73760770  0.24118916  1
  O  O365  1  0.38094908  0.72846631  0.75622535  1
  O  O366  1  0.88002365  0.25581665  0.24354185  1
  O  O367  1  0.89668327  0.24800600  0.74763110  1
  O  O368  1  0.87679186  0.75097741  0.25437280  1
  O  O369  1  0.87359929  0.75522701  0.73781777  1
  O  O370  1  0.38230826  0.49326928  0.49290618  1
  O  O371  1  0.36706390  0.50984719  0.98790205  1
  O  O372  1  0.37714781  1.00188785  0.48153912  1
  O  O373  1  0.37114314  0.99993641  0.98621267  1
  O  O374  1  0.87750505  0.47043141  0.53780274  1
  O  O375  1  0.86988807  0.48191226  1.01281714  1
  O  O376  1  0.89665276  0.98920463  0.51462501  1
  O  O377  1  0.88043565  0.99574013  0.99223088  1
  O  O378  1  0.12223339  0.00288562  0.00558478  1
  O  O379  1  0.12714960  0.00536496  0.50642199  1
  O  O380  1  0.12243481  0.51780852  0.01686218  1
  O  O381  1  0.12694914  0.49861150  0.49727482  1
  O  O382  1  0.62750684  0.00519245  0.00727981  1
  O  O383  1  0.63711168  0.01966338  0.51440928  1
  O  O384  1  0.64282114  0.52580324  0.02212875  1
  O  O385  1  0.61206685  0.50619828  0.49965554  1
  O  O386  1  0.37602921  0.36440300  0.12257985  1
  O  O387  1  0.38022176  0.36372578  0.61581633  1
  O  O388  1  0.35923850  0.85819628  0.13235091  1
  O  O389  1  0.44311803  0.86729529  0.58471371  1
  O  O390  1  0.85311710  0.41233352  0.03282144  1
  O  O391  1  0.88054520  0.41241100  0.58619165  1
  O  O392  1  0.86137539  0.88704144  0.11276380  1
  O  O393  1  0.86419809  0.87103730  0.62740208  1
  O  O394  1  0.14156747  0.11324870  0.37856028  1
  O  O395  1  0.12769404  0.13256095  0.87939556  1
  O  O396  1  0.12319019  0.61878724  0.34980767  1
  O  O397  1  0.13734403  0.63637188  0.86599212  1
  O  O398  1  0.62150157  0.13588819  0.39090586  1
  O  O399  1  0.61814344  0.12443835  0.87499095  1
  O  O400  1  0.63132810  0.62620345  0.39186500  1
  O  O401  1  0.62594297  0.62152083  0.89104296  1
