# generated using pymatgen
data_V73Zn73O256
_symmetry_space_group_name_H-M   'P 1'
_cell_length_a   16.82858132
_cell_length_b   16.82138735
_cell_length_c   16.82741741
_cell_angle_alpha   90.11796287
_cell_angle_beta   89.96361131
_cell_angle_gamma   89.99163553
_symmetry_Int_Tables_number   1
_chemical_formula_structural   V73Zn73O256
_chemical_formula_sum   'V73 Zn73 O256'
_cell_volume   4763.49564324
_cell_formula_units_Z   1
loop_
 _symmetry_equiv_pos_site_id
 _symmetry_equiv_pos_as_xyz
  1  'x, y, z'
loop_
 _atom_site_type_symbol
 _atom_site_label
 _atom_site_symmetry_multiplicity
 _atom_site_fract_x
 _atom_site_fract_y
 _atom_site_fract_z
 _atom_site_occupancy
  V  V0  1  0.12832050  0.63272538  0.00673659  1
  V  V1  1  0.84919000  0.74402543  0.60941143  1
  V  V2  1  0.62561937  0.87532976  0.23777617  1
  V  V3  1  0.12541994  0.12747448  -0.02004969  1
  V  V4  1  0.25079964  0.87652543  0.13037543  1
  V  V5  1  0.23812846  -0.01947491  0.74734585  1
  V  V6  1  0.63854109  0.75516343  0.39532382  1
  V  V7  1  0.75063022  0.49470856  0.74022727  1
  V  V8  1  0.88024997  0.62645684  0.75488452  1
  V  V9  1  0.25947825  0.77315831  0.50141955  1
  V  V10  1  0.36683648  0.50593785  0.36880612  1
  V  V11  1  0.73956516  0.00145528  0.22507487  1
  V  V12  1  0.62752507  0.62402264  0.00371948  1
  V  V13  1  0.37194007  0.00179791  0.37048032  1
  V  V14  1  0.11501959  0.24122511  0.36907559  1
  V  V15  1  0.13847578  0.49845965  0.63917836  1
  V  V16  1  0.37442322  0.87553924  -0.01113653  1
  V  V17  1  0.87749508  0.94665759  0.45491295  1
  V  V18  1  0.87269606  0.36079327  0.50887128  1
  V  V19  1  0.89067601  0.12387784  0.75505754  1
  V  V20  1  0.50634583  0.11584510  0.12293393  1
  V  V21  1  -0.00110750  0.12866885  0.12613748  1
  V  V22  1  0.49643542  0.87033835  0.36812630  1
  V  V23  1  0.62795336  0.13968130  -0.00539973  1
  V  V24  1  0.49372738  0.12155125  0.62226001  1
  V  V25  1  0.75492108  0.61598063  0.87793952  1
  V  V26  1  0.86349010  0.38481993  -0.00688673  1
  V  V27  1  0.25364604  0.23925254  -0.00566588  1
  V  V28  1  0.75731086  0.75298407  0.01507129  1
  V  V29  1  0.24779411  0.50733093  0.24020287  1
  V  V30  1  0.49843134  0.25681503  0.24062862  1
  V  V31  1  0.37558397  0.37743650  0.50168864  1
  V  V32  1  0.00371048  0.49274978  0.49825492  1
  V  V33  1  0.00678524  0.37518753  0.86843759  1
  V  V34  1  0.50720570  -0.00624075  -0.01878531  1
  V  V35  1  0.13996262  0.62314745  0.49064672  1
  V  V36  1  0.87105262  0.12461389  0.24589081  1
  V  V37  1  0.62627365  0.13112216  0.49925443  1
  V  V38  1  0.24308216  0.24822428  0.50192392  1
  V  V39  1  0.74591825  0.14246078  0.87116673  1
  V  V40  1  0.11809542  0.37376252  0.24129936  1
  V  V41  1  0.49325529  0.00085027  0.49461620  1
  V  V42  1  0.74659713  0.12026113  0.37282411  1
  V  V43  1  0.36869090  0.12796411  0.23661123  1
  V  V44  1  0.00370066  0.63178810  0.62554956  1
  V  V45  1  0.14489939  0.36436557  0.75486441  1
  V  V46  1  0.37025215  0.37487317  0.00514223  1
  V  V47  1  0.62484328  0.25214602  0.37323769  1
  V  V48  1  0.36561321  0.11081974  0.76542412  1
  V  V49  1  0.12178052  0.75899362  0.37401279  1
  V  V50  1  0.00732886  0.49877171  0.01025910  1
  V  V51  1  0.85839403  0.24336849  0.63046271  1
  V  V52  1  0.74948905  0.37858728  0.14910809  1
  V  V53  1  0.62396227  0.76024421  0.86680767  1
  V  V54  1  0.50213914  0.61997644  0.59855390  1
  V  V55  1  0.87300262  0.87689524  0.01415346  1
  V  V56  1  0.61753124  0.48992557  0.61399186  1
  V  V57  1  0.50097855  0.37921551  0.37558501  1
  V  V58  1  0.12955677  0.74595029  0.86805031  1
  V  V59  1  0.24780724  0.12393077  0.37049061  1
  V  V60  1  0.85546190  0.63082143  0.25527848  1
  V  V61  1  0.50091457  0.25095131  0.75765168  1
  V  V62  1  0.49795265  0.63284677  0.14123389  1
  V  V63  1  0.74292328  -0.00507530  0.75561128  1
  V  V64  1  0.37180842  0.75003276  0.13851863  1
  V  V65  1  -0.00626971  0.86140245  0.86600417  1
  V  V66  1  0.87033527  0.25285524  0.11976673  1
  V  V67  1  0.62926613  0.49979607  0.14692439  1
  V  V68  1  0.36914913  0.25121225  0.62758882  1
  V  V69  1  -0.00204101  -0.00124353  -0.00859778  1
  V  V70  1  0.50041256  0.49920472  -0.00182510  1
  V  V71  1  0.13469044  0.00551707  0.13004430  1
  V  V72  1  -0.00520373  0.64623734  0.13785445  1
  Zn  Zn73  1  -0.00228383  0.36321734  0.37312332  1
  Zn  Zn74  1  0.37426718  0.74149761  0.64064748  1
  Zn  Zn75  1  0.50554713  0.37134187  0.87820426  1
  Zn  Zn76  1  0.32209612  0.57483265  0.82931518  1
  Zn  Zn77  1  0.10855065  0.86753546  0.24867065  1
  Zn  Zn78  1  0.63195031  -0.00308148  0.62268014  1
  Zn  Zn79  1  0.25913830  0.36814759  0.13196221  1
  Zn  Zn80  1  0.64001524  0.36322909  0.75556278  1
  Zn  Zn81  1  0.86765855  0.49038136  0.36283344  1
  Zn  Zn82  1  0.18417396  0.19391477  0.18031701  1
  Zn  Zn83  1  0.18423472  0.18199761  0.69469955  1
  Zn  Zn84  1  0.18520476  0.68780719  0.18563438  1
  Zn  Zn85  1  0.18921543  0.69519451  0.68202058  1
  Zn  Zn86  1  0.68357793  0.19342512  0.18351918  1
  Zn  Zn87  1  0.68440144  0.18088713  0.68725150  1
  Zn  Zn88  1  0.68301593  0.69322863  0.20014184  1
  Zn  Zn89  1  0.67722066  0.67928700  0.68146237  1
  Zn  Zn90  1  0.31044029  0.31224020  0.31286826  1
  Zn  Zn91  1  0.31995613  0.31582964  0.82237371  1
  Zn  Zn92  1  0.30470948  0.81010256  0.31396909  1
  Zn  Zn93  1  0.30186527  0.80898952  0.81552749  1
  Zn  Zn94  1  0.82067917  0.30144117  0.31792265  1
  Zn  Zn95  1  0.82344421  0.31264765  0.81220173  1
  Zn  Zn96  1  0.81404447  0.82055180  0.31536108  1
  Zn  Zn97  1  0.80970058  0.80394227  0.82085444  1
  Zn  Zn98  1  0.18685330  0.43054379  0.43236608  1
  Zn  Zn99  1  0.19200812  0.44947737  0.93507559  1
  Zn  Zn100  1  0.18540214  0.94186137  0.43584196  1
  Zn  Zn101  1  0.18709652  0.93172862  0.93389774  1
  Zn  Zn102  1  0.69080205  0.42396773  0.44215767  1
  Zn  Zn103  1  0.68097419  0.43513105  0.93531877  1
  Zn  Zn104  1  0.68716105  0.93709811  0.43786369  1
  Zn  Zn105  1  0.69236671  0.94517104  0.93671600  1
  Zn  Zn106  1  0.31657749  0.05882381  0.05099268  1
  Zn  Zn107  1  0.30265233  0.06542080  0.56048124  1
  Zn  Zn108  1  0.33375731  0.59025459  0.02233996  1
  Zn  Zn109  1  0.31726812  0.55989149  0.56579955  1
  Zn  Zn110  1  0.81020518  0.06390994  0.05340644  1
  Zn  Zn111  1  0.81205268  0.05974310  0.56621083  1
  Zn  Zn112  1  0.81664476  0.56176065  0.07394115  1
  Zn  Zn113  1  0.81606481  0.55585796  0.56307699  1
  Zn  Zn114  1  0.43590145  0.44177170  0.18443299  1
  Zn  Zn115  1  0.43895657  0.44043150  0.68666068  1
  Zn  Zn116  1  0.43736992  0.94058880  0.18740306  1
  Zn  Zn117  1  0.37933078  0.93574484  0.65490167  1
  Zn  Zn118  1  0.93737204  0.44318347  0.18930548  1
  Zn  Zn119  1  0.94061677  0.44078314  0.68473053  1
  Zn  Zn120  1  0.93543636  0.93799485  0.19267222  1
  Zn  Zn121  1  0.89376579  0.91565026  0.70859482  1
  Zn  Zn122  1  0.04509724  0.03270616  0.30554953  1
  Zn  Zn123  1  0.06879072  0.04464833  0.80504041  1
  Zn  Zn124  1  0.06303001  0.55931660  0.31048584  1
  Zn  Zn125  1  0.06013262  0.55836756  0.82316280  1
  Zn  Zn126  1  0.56085513  0.06383849  0.30716448  1
  Zn  Zn127  1  0.56241524  0.06536269  0.80956272  1
  Zn  Zn128  1  0.56285401  0.57158332  0.33012535  1
  Zn  Zn129  1  0.56844818  0.56273557  0.81213276  1
  Zn  Zn130  1  0.43483477  0.19022421  0.43286948  1
  Zn  Zn131  1  0.43456840  0.18498909  0.94169928  1
  Zn  Zn132  1  0.43526529  0.68813175  0.43277948  1
  Zn  Zn133  1  0.44045636  0.70327997  0.93511456  1
  Zn  Zn134  1  0.93120718  0.15869157  0.44691189  1
  Zn  Zn135  1  0.93747053  0.19442813  0.93563531  1
  Zn  Zn136  1  0.93652577  0.67367320  0.42819222  1
  Zn  Zn137  1  0.94029996  0.68648268  0.94322836  1
  Zn  Zn138  1  0.06173012  0.30872360  0.05639913  1
  Zn  Zn139  1  0.06918527  0.31518954  0.56897985  1
  Zn  Zn140  1  0.06157229  0.81554703  0.06169732  1
  Zn  Zn141  1  -0.00389425  0.79805663  0.51508966  1
  Zn  Zn142  1  0.56892021  0.31675487  0.06757057  1
  Zn  Zn143  1  0.56087402  0.31343391  0.56680739  1
  Zn  Zn144  1  0.55970435  0.80983234  0.05599060  1
  Zn  Zn145  1  0.52264687  0.80935427  0.56424401  1
  O  O146  1  0.11802573  0.11918232  0.11472336  1
  O  O147  1  0.11257522  0.12193001  0.61926077  1
  O  O148  1  0.10648114  0.63292883  0.11739826  1
  O  O149  1  0.12370516  0.61389592  0.61659350  1
  O  O150  1  0.61907491  0.13077778  0.10816420  1
  O  O151  1  0.60988029  0.12570820  0.61568098  1
  O  O152  1  0.61967756  0.61873498  0.12590348  1
  O  O153  1  0.61473704  0.60007288  0.62831900  1
  O  O154  1  0.38235796  0.37550090  0.38270812  1
  O  O155  1  0.38947245  0.37182259  0.89781563  1
  O  O156  1  0.38549619  0.88965884  0.35558161  1
  O  O157  1  0.37344064  0.86260746  0.89023398  1
  O  O158  1  0.88154390  0.36922216  0.39042693  1
  O  O159  1  0.88235269  0.37626304  0.88981721  1
  O  O160  1  0.87238607  0.91068894  0.36014960  1
  O  O161  1  0.88715392  0.86348758  0.89072242  1
  O  O162  1  0.25835843  0.01159378  0.37734128  1
  O  O163  1  0.24254558  -0.01154716  0.85131862  1
  O  O164  1  0.26171637  0.49149012  0.36762465  1
  O  O165  1  0.25090183  0.49521112  0.85428104  1
  O  O166  1  0.74050861  0.01818677  0.36175459  1
  O  O167  1  0.74803155  0.01701037  0.86368751  1
  O  O168  1  0.75533757  0.51829415  0.40897690  1
  O  O169  1  0.74820581  0.51111101  0.87061281  1
  O  O170  1  0.25328105  0.49009035  0.14109312  1
  O  O171  1  0.23827773  0.50130381  0.62650682  1
  O  O172  1  0.24026195  0.99689611  0.11548624  1
  O  O173  1  0.27849695  0.98993116  0.63732867  1
  O  O174  1  0.73870772  0.49192822  0.12842935  1
  O  O175  1  0.73905372  0.50137850  0.63359885  1
  O  O176  1  0.74013621  1.00478849  0.12540225  1
  O  O177  1  0.74651422  1.01083796  0.64454394  1
  O  O178  1  0.01208542  0.37999292  0.25534414  1
  O  O179  1  -0.00011796  0.38473301  0.76570931  1
  O  O180  1  0.01385245  0.92616643  0.26918335  1
  O  O181  1  -0.01307808  0.87952049  0.76712825  1
  O  O182  1  0.49270769  0.36212528  0.25488676  1
  O  O183  1  0.48402246  0.35579972  0.75156837  1
  O  O184  1  0.51371821  0.88963769  0.25936134  1
  O  O185  1  0.55930211  0.87280431  0.71915644  1
  O  O186  1  0.49233564  0.13362850  0.24093198  1
  O  O187  1  0.48770213  0.13173029  0.74117162  1
  O  O188  1  0.50052370  0.62105415  0.23979128  1
  O  O189  1  0.47276953  0.59217205  0.75168736  1
  O  O190  1  0.98475911  0.11121375  0.23678197  1
  O  O191  1  0.98929184  0.11731224  0.76171228  1
  O  O192  1  1.00323520  0.62433317  0.23854011  1
  O  O193  1  0.98608303  0.61554885  0.74377616  1
  O  O194  1  0.36402406  0.25567954  0.00240008  1
  O  O195  1  0.36695017  0.25539393  0.50580788  1
  O  O196  1  0.39177294  0.77226753  0.01950841  1
  O  O197  1  0.35991386  0.75477856  0.48693715  1
  O  O198  1  0.87771656  0.26753923  0.01150767  1
  O  O199  1  0.88689204  0.24988461  0.51526653  1
  O  O200  1  0.86470683  0.75576352  0.00441833  1
  O  O201  1  0.88277698  0.73691717  0.51019374  1
  O  O202  1  0.13841454  0.25481908  0.49084577  1
  O  O203  1  0.12962155  0.23329403  0.99755465  1
  O  O204  1  0.14235132  0.73326110  0.49637939  1
  O  O205  1  0.11538053  0.73782842  0.99735504  1
  O  O206  1  0.61411271  0.24115335  0.48995528  1
  O  O207  1  0.61629690  0.23930295  0.99634670  1
  O  O208  1  0.60947988  0.77346680  0.49195157  1
  O  O209  1  0.63655915  0.74070251  0.99742464  1
  O  O210  1  0.50515471  0.24402962  0.13642041  1
  O  O211  1  0.48682550  0.24160948  0.62987985  1
  O  O212  1  0.49868194  0.73861476  0.12914954  1
  O  O213  1  0.51978229  0.71476999  0.63456751  1
  O  O214  1  0.99178883  0.23572436  0.11807904  1
  O  O215  1  1.02086894  0.22537009  0.62617732  1
  O  O216  1  0.99660200  0.74679307  0.13069028  1
  O  O217  1  1.00791333  0.73297365  0.61339304  1
  O  O218  1  0.01505889  0.22871455  0.39244160  1
  O  O219  1  0.00057653  0.27466586  0.88452944  1
  O  O220  1  0.02008681  0.75202338  0.40587018  1
  O  O221  1  0.00297088  0.75549823  0.87563857  1
  O  O222  1  0.50468877  0.25683213  0.36491370  1
  O  O223  1  0.49479300  0.24214903  0.85989985  1
  O  O224  1  0.49645985  0.76908813  0.37170566  1
  O  O225  1  0.52322034  0.74746448  0.87825700  1
  O  O226  1  0.25377970  0.13753543  0.48550934  1
  O  O227  1  0.24097503  0.12995104  0.99662252  1
  O  O228  1  0.23922077  0.61070847  0.49587592  1
  O  O229  1  0.22563938  0.61944441  1.01903583  1
  O  O230  1  0.73321867  0.12033595  0.49089399  1
  O  O231  1  0.73851503  0.12589956  0.98706189  1
  O  O232  1  0.75430192  0.57837287  0.46344091  1
  O  O233  1  0.74878510  0.62982071  1.00081960  1
  O  O234  1  0.26308056  0.37846905  0.00253546  1
  O  O235  1  0.26260484  0.35844327  0.49159596  1
  O  O236  1  0.26644059  0.88316148  0.01130698  1
  O  O237  1  0.24714587  0.87379825  0.50394852  1
  O  O238  1  0.76177878  0.38541707  0.00242821  1
  O  O239  1  0.77342839  0.37062497  0.50408471  1
  O  O240  1  0.76222247  0.86548593  -0.00180181  1
  O  O241  1  0.78489660  0.92743786  0.49865590  1
  O  O242  1  0.13695654  0.48222265  0.26249800  1
  O  O243  1  0.12484337  0.50328682  0.74157417  1
  O  O244  1  0.13621634  1.01600982  0.22945856  1
  O  O245  1  0.13811160  0.99711345  0.73168378  1
  O  O246  1  0.62214748  0.50645341  0.24536018  1
  O  O247  1  0.64042296  0.49821753  0.74664505  1
  O  O248  1  0.63234217  0.99636448  0.24598899  1
  O  O249  1  0.63598617  1.00362964  0.74684605  1
  O  O250  1  0.37924856  0.01920605  0.25559966  1
  O  O251  1  0.38158896  0.01075256  0.75341087  1
  O  O252  1  0.36215868  0.49148073  0.25936153  1
  O  O253  1  0.41521528  0.53164947  0.76059646  1
  O  O254  1  0.85393024  0.01576046  0.23443122  1
  O  O255  1  0.86478348  0.02057782  0.74508037  1
  O  O256  1  0.87256280  0.51040650  0.25000230  1
  O  O257  1  0.86261133  0.51319669  0.73674520  1
  O  O258  1  0.12027919  0.35545122  0.36979072  1
  O  O259  1  0.11789034  0.38456084  0.86335111  1
  O  O260  1  0.12595403  0.86347427  0.37623704  1
  O  O261  1  0.10693384  0.85856489  0.88644009  1
  O  O262  1  0.61503649  0.36514878  0.38137596  1
  O  O263  1  0.61722033  0.37555525  0.86696688  1
  O  O264  1  0.61196726  0.87739711  0.36953856  1
  O  O265  1  0.63959917  0.85941234  0.88108660  1
  O  O266  1  0.38191526  0.12286921  0.13195410  1
  O  O267  1  0.37969957  0.13563194  0.62581069  1
  O  O268  1  0.38749011  0.63865780  0.11888574  1
  O  O269  1  0.39414138  0.62552558  0.61184330  1
  O  O270  1  0.87746362  0.13313532  0.12163742  1
  O  O271  1  0.87495450  0.13643912  0.63795798  1
  O  O272  1  0.88557067  0.62516077  0.13995680  1
  O  O273  1  0.88245279  0.62918418  0.62890158  1
  O  O274  1  0.24141018  0.25601951  0.10360515  1
  O  O275  1  0.25433998  0.24055075  0.61054686  1
  O  O276  1  0.26397882  0.75575821  0.12580820  1
  O  O277  1  0.25652910  0.74397334  0.60434636  1
  O  O278  1  0.75173707  0.27014795  0.12638676  1
  O  O279  1  0.75875131  0.24918819  0.62813929  1
  O  O280  1  0.74344560  0.74649537  0.11315219  1
  O  O281  1  0.75014737  0.72713007  0.60690481  1
  O  O282  1  0.24318081  0.24205190  0.38207979  1
  O  O283  1  0.24744902  0.26084174  0.89553357  1
  O  O284  1  0.23727252  0.75343756  0.38859708  1
  O  O285  1  0.22805142  0.75642529  0.88666460  1
  O  O286  1  0.73317139  0.24034046  0.36463369  1
  O  O287  1  0.74717204  0.24287509  0.86728165  1
  O  O288  1  0.73831057  0.77436952  0.39227803  1
  O  O289  1  0.74556182  0.73469878  0.89026434  1
  O  O290  1  0.00696646  0.11996284  0.00044229  1
  O  O291  1  0.04426804  0.15173905  0.59252990  1
  O  O292  1  -0.00318284  0.61553559  0.01519525  1
  O  O293  1  0.00967758  0.60762409  0.50728201  1
  O  O294  1  0.50707948  0.11690703  0.00262241  1
  O  O295  1  0.50385183  0.12220425  0.50182139  1
  O  O296  1  0.51245808  0.61611154  0.01524544  1
  O  O297  1  0.50707869  0.62542255  0.49781738  1
  O  O298  1  0.48522709  0.36561215  0.48954784  1
  O  O299  1  0.50118250  0.38783525  1.00732592  1
  O  O300  1  0.49705951  0.89162173  0.47906850  1
  O  O301  1  0.49637787  0.88833590  1.00176930  1
  O  O302  1  1.00146047  0.38006915  0.50129314  1
  O  O303  1  0.99703260  0.38575398  0.99864581  1
  O  O304  1  0.95517947  0.90023323  0.50093375  1
  O  O305  1  0.98803071  0.88013477  0.99841172  1
  O  O306  1  0.48842998  0.48662431  0.36462455  1
  O  O307  1  0.50856382  0.50482227  0.89759628  1
  O  O308  1  0.49135503  1.00214964  0.37752791  1
  O  O309  1  0.50034730  1.00093562  0.88204310  1
  O  O310  1  1.00307685  0.49522816  0.39258630  1
  O  O311  1  0.99744233  0.48973599  0.89359741  1
  O  O312  1  1.03915331  1.03571867  0.42597396  1
  O  O313  1  1.00852015  0.98435665  0.88686292  1
  O  O314  1  0.01143774  0.00994163  0.11040252  1
  O  O315  1  0.03596423  -0.03637116  0.61935095  1
  O  O316  1  0.00302754  0.50054646  0.11395741  1
  O  O317  1  0.01230538  0.50714383  0.61766190  1
  O  O318  1  0.50080544  0.01304855  0.12034580  1
  O  O319  1  0.48765342  0.01205928  0.61077263  1
  O  O320  1  0.51331692  0.50866722  0.12459467  1
  O  O321  1  0.50776231  0.50282216  0.61873213  1
  O  O322  1  0.23730230  0.37345827  0.24991963  1
  O  O323  1  0.24514981  0.37216232  0.75361974  1
  O  O324  1  0.23936126  0.87249807  0.23448914  1
  O  O325  1  0.25785147  0.87863295  0.73831891  1
  O  O326  1  0.75661049  0.37712955  0.24792533  1
  O  O327  1  0.75965245  0.39119043  0.75608961  1
  O  O328  1  0.73964858  0.89443646  0.24883907  1
  O  O329  1  0.77051815  0.89498651  0.75953307  1
  O  O330  1  0.26378454  0.13779359  0.24996113  1
  O  O331  1  0.26141920  0.11322157  0.74316417  1
  O  O332  1  0.23928947  0.60756600  0.24689435  1
  O  O333  1  0.28434717  0.65572094  0.75028642  1
  O  O334  1  0.74754371  0.11878997  0.24782696  1
  O  O335  1  0.75106136  0.12272598  0.76195727  1
  O  O336  1  0.75509632  0.62053088  0.24807908  1
  O  O337  1  0.75785525  0.61291156  0.75848235  1
  O  O338  1  0.36755233  0.12263917  0.36207760  1
  O  O339  1  0.37187216  0.12558447  0.86458750  1
  O  O340  1  0.37936423  0.60444968  0.37701631  1
  O  O341  1  0.36559773  0.62592974  0.91922506  1
  O  O342  1  0.85894378  0.14360701  0.35405620  1
  O  O343  1  0.86389963  0.13686526  0.86480619  1
  O  O344  1  0.87956627  0.60973782  0.36014254  1
  O  O345  1  0.87187550  0.63053998  0.86242890  1
  O  O346  1  0.12112939  0.36651631  0.13921786  1
  O  O347  1  0.12102625  0.38690686  0.64413424  1
  O  O348  1  0.12920888  0.89049415  0.12186865  1
  O  O349  1  0.08466811  0.91202807  0.60241313  1
  O  O350  1  0.63699585  0.38729078  0.13132712  1
  O  O351  1  0.61514525  0.38365870  0.63974641  1
  O  O352  1  0.61744100  0.86794851  0.13891307  1
  O  O353  1  0.59939824  0.87266158  0.65574161  1
  O  O354  1  0.12305988  0.25721184  0.26039622  1
  O  O355  1  0.13013966  0.26509820  0.75091692  1
  O  O356  1  0.12467951  0.74809113  0.26863221  1
  O  O357  1  0.12481962  0.73520355  0.76663480  1
  O  O358  1  0.60803410  0.24395812  0.25889077  1
  O  O359  1  0.60447761  0.24745025  0.74033920  1
  O  O360  1  0.63416642  0.77284931  0.26658592  1
  O  O361  1  0.64160152  0.74200580  0.76813848  1
  O  O362  1  0.38777270  0.23871796  0.25496092  1
  O  O363  1  0.37520502  0.24015968  0.74247365  1
  O  O364  1  0.37553521  0.75259037  0.23890079  1
  O  O365  1  0.34428560  0.71707925  0.75431635  1
  O  O366  1  0.87098086  0.24055652  0.23101462  1
  O  O367  1  0.87887946  0.24158841  0.73842132  1
  O  O368  1  0.86671540  0.73353984  0.26333920  1
  O  O369  1  0.86080921  0.72954311  0.73552891  1
  O  O370  1  0.36659667  0.48217795  0.48868126  1
  O  O371  1  0.39257235  0.48916525  1.01309138  1
  O  O372  1  0.38211634  1.01274283  0.48288841  1
  O  O373  1  0.39153677  0.98855650  1.00250216  1
  O  O374  1  0.89299699  0.48035635  0.51188698  1
  O  O375  1  0.88412513  0.48928387  1.00893039  1
  O  O376  1  0.89188063  1.05299272  0.48105176  1
  O  O377  1  0.88182732  0.98790969  1.00216658  1
  O  O378  1  0.12107673  0.01177417  0.00271070  1
  O  O379  1  0.10248151  0.02241552  0.47045321  1
  O  O380  1  0.11323470  0.51093590  -0.00110050  1
  O  O381  1  0.12045439  0.49868539  0.50757199  1
  O  O382  1  0.61275767  0.00998293  -0.00487471  1
  O  O383  1  0.61153162  0.00869448  0.50328943  1
  O  O384  1  0.62074009  0.50792997  0.01372667  1
  O  O385  1  0.62582900  0.48379542  0.51465801  1
  O  O386  1  0.38094611  0.36999566  0.11215842  1
  O  O387  1  0.37893669  0.36752223  0.61160412  1
  O  O388  1  0.36934817  0.86877512  0.12870013  1
  O  O389  1  0.42748155  0.84101521  0.62796920  1
  O  O390  1  0.86259081  0.37341572  0.12167048  1
  O  O391  1  0.89004445  0.35470696  0.61948852  1
  O  O392  1  0.87935177  0.87600506  0.11462726  1
  O  O393  1  0.86910944  0.84206734  0.62901868  1
  O  O394  1  0.13921100  0.13498380  0.35655535  1
  O  O395  1  0.11929173  0.12053002  0.88169722  1
  O  O396  1  0.12078615  0.62709837  0.38776279  1
  O  O397  1  0.11324612  0.63466465  0.89299173  1
  O  O398  1  0.62501702  0.13237977  0.38016097  1
  O  O399  1  0.63224943  0.12882285  0.88273488  1
  O  O400  1  0.62173589  0.65529954  0.37508714  1
  O  O401  1  0.63475898  0.62688323  0.88888200  1
