# generated using pymatgen
data_V73Zn73O256
_symmetry_space_group_name_H-M   'P 1'
_cell_length_a   16.81389213
_cell_length_b   16.82557211
_cell_length_c   16.81023266
_cell_angle_alpha   89.97659864
_cell_angle_beta   89.99608739
_cell_angle_gamma   90.00574684
_symmetry_Int_Tables_number   1
_chemical_formula_structural   V73Zn73O256
_chemical_formula_sum   'V73 Zn73 O256'
_cell_volume   4755.67077800
_cell_formula_units_Z   1
loop_
 _symmetry_equiv_pos_site_id
 _symmetry_equiv_pos_as_xyz
  1  'x, y, z'
loop_
 _atom_site_type_symbol
 _atom_site_label
 _atom_site_symmetry_multiplicity
 _atom_site_fract_x
 _atom_site_fract_y
 _atom_site_fract_z
 _atom_site_occupancy
  V  V0  1  0.00262356  0.75165642  0.24971360  1
  V  V1  1  0.75558101  0.64016739  0.38111168  1
  V  V2  1  -0.00579821  0.48549910  0.49981755  1
  V  V3  1  0.47997629  0.50403604  0.00204585  1
  V  V4  1  0.87000048  0.11032110  0.25817072  1
  V  V5  1  0.25196320  0.62975099  0.88158015  1
  V  V6  1  0.73296005  0.50625153  0.24458605  1
  V  V7  1  0.75064827  0.01167912  0.74794002  1
  V  V8  1  0.87402459  0.87964099  -0.00417979  1
  V  V9  1  0.74319000  0.24054330  0.47433307  1
  V  V10  1  0.23351628  0.36734939  0.12434272  1
  V  V11  1  0.37762124  0.88013489  -0.00426497  1
  V  V12  1  0.24980448  0.12404990  0.38966924  1
  V  V13  1  0.61942753  -0.00051114  0.12577475  1
  V  V14  1  0.76263025  0.62749569  0.86888755  1
  V  V15  1  0.75460543  0.87915504  0.13498760  1
  V  V16  1  0.87802810  0.48604492  0.86930083  1
  V  V17  1  0.25178873  0.11515472  0.88349227  1
  V  V18  1  0.50409195  0.62988885  0.13625182  1
  V  V19  1  0.75825618  0.38296624  0.60850932  1
  V  V20  1  0.35886514  0.74506989  0.12171847  1
  V  V21  1  0.87416859  0.48798194  0.37897728  1
  V  V22  1  0.63013771  0.38500627  0.73814026  1
  V  V23  1  0.74984514  0.75093600  -0.00296152  1
  V  V24  1  0.24676742  0.76087560  0.51477158  1
  V  V25  1  0.12344678  0.38082712  0.25109192  1
  V  V26  1  0.86850181  0.23147280  0.61859609  1
  V  V27  1  0.88123411  0.62484766  0.23994554  1
  V  V28  1  0.25215833  0.37292465  0.60968945  1
  V  V29  1  0.86845187  0.75181573  0.61320058  1
  V  V30  1  0.35543651  0.62929217  0.25897246  1
  V  V31  1  0.36983318  0.14486847  0.24496880  1
  V  V32  1  0.86783480  0.01643930  0.87221084  1
  V  V33  1  0.61825219  0.87702807  0.75247920  1
  V  V34  1  0.38483588  0.62817228  0.74279295  1
  V  V35  1  0.12320634  0.49211682  0.63209576  1
  V  V36  1  0.37573927  -0.01048364  0.36294235  1
  V  V37  1  0.37388091  0.11168299  0.75438428  1
  V  V38  1  0.39034742  0.88192295  0.50528850  1
  V  V39  1  0.00621918  0.87960807  0.86460114  1
  V  V40  1  0.00025793  0.24652032  0.25571414  1
  V  V41  1  0.25526488  0.49141739  0.76027978  1
  V  V42  1  0.60645403  0.75489220  0.87327119  1
  V  V43  1  0.63834215  0.24837021  0.87747678  1
  V  V44  1  0.13008210  0.24780344  0.38570983  1
  V  V45  1  0.49689153  0.25394536  0.74890035  1
  V  V46  1  0.01759015  0.11997812  0.13110782  1
  V  V47  1  -0.00851724  0.62111673  0.63111520  1
  V  V48  1  0.13026056  0.62088197  0.49855466  1
  V  V49  1  0.36486355  0.50036595  0.37326872  1
  V  V50  1  0.49988153  0.50101058  0.50602669  1
  V  V51  1  0.50152738  0.37066613  0.37122362  1
  V  V52  1  0.61854995  0.36270047  0.24159502  1
  V  V53  1  0.37448090  0.25623324  0.61175691  1
  V  V54  1  0.24363183  0.89236503  0.12651448  1
  V  V55  1  0.61968525  0.62786368  0.50926647  1
  V  V56  1  0.60710932  0.86746158  0.25015784  1
  V  V57  1  0.00118931  0.24000300  0.73499108  1
  V  V58  1  0.49830705  0.14041422  0.12765368  1
  V  V59  1  0.37272486  0.35561978  0.00999133  1
  V  V60  1  0.01546268  0.00458301  0.00539048  1
  V  V61  1  0.49632461  0.38327768  0.87504608  1
  V  V62  1  0.12833100  0.25018088  0.89854986  1
  V  V63  1  0.75059584  0.87904610  0.61820317  1
  V  V64  1  0.01695640  0.01940901  0.50567591  1
  V  V65  1  0.62469818  0.61664224  -0.00057751  1
  V  V66  1  0.00139605  0.49990252  0.01568798  1
  V  V67  1  0.12963915  0.74672771  0.37414796  1
  V  V68  1  0.60735329  0.75018357  0.37315762  1
  V  V69  1  -0.00183478  0.75117103  0.74875096  1
  V  V70  1  0.12734026  0.89040433  0.25538648  1
  V  V71  1  0.50928857  0.11559908  0.61194727  1
  V  V72  1  0.87826724  -0.01861271  0.38579653  1
  Zn  Zn73  1  0.63200522  0.12700810  -0.00754559  1
  Zn  Zn74  1  0.40186578  0.74878845  0.62709752  1
  Zn  Zn75  1  0.82022407  0.30468786  0.06401101  1
  Zn  Zn76  1  0.49610012  -0.00022579  -0.01339162  1
  Zn  Zn77  1  0.75124326  0.51549486  0.73477799  1
  Zn  Zn78  1  0.88388543  0.74360787  0.11881676  1
  Zn  Zn79  1  0.01554463  0.37601837  0.86726470  1
  Zn  Zn80  1  0.12965204  0.75270423  0.87803163  1
  Zn  Zn81  1  0.11625171  0.62958392  0.01332074  1
  Zn  Zn82  1  0.18955815  0.19211030  0.18731565  1
  Zn  Zn83  1  0.20994859  0.22033983  0.73085186  1
  Zn  Zn84  1  0.17866317  0.68364045  0.18729671  1
  Zn  Zn85  1  0.18392918  0.67995719  0.69460637  1
  Zn  Zn86  1  0.69333943  0.18239492  0.18764815  1
  Zn  Zn87  1  0.68591089  0.19660967  0.68066468  1
  Zn  Zn88  1  0.69087622  0.68830929  0.18692293  1
  Zn  Zn89  1  0.68117796  0.69712227  0.68793536  1
  Zn  Zn90  1  0.30846695  0.31692862  0.31450908  1
  Zn  Zn91  1  0.31571838  0.31506102  0.82048712  1
  Zn  Zn92  1  0.30752893  0.80940936  0.31384159  1
  Zn  Zn93  1  0.32787446  0.80161564  0.81821347  1
  Zn  Zn94  1  0.81079480  0.31482707  0.28204644  1
  Zn  Zn95  1  0.81630334  0.30978265  0.80067786  1
  Zn  Zn96  1  0.81919710  0.81393929  0.31701823  1
  Zn  Zn97  1  0.81533262  0.81591039  0.80524853  1
  Zn  Zn98  1  0.18098249  0.43473868  0.43625195  1
  Zn  Zn99  1  0.18436728  0.43610919  0.94537390  1
  Zn  Zn100  1  0.18713673  0.94136704  0.43749551  1
  Zn  Zn101  1  0.19660446  0.93395748  0.93800034  1
  Zn  Zn102  1  0.68388718  0.44092941  0.42981024  1
  Zn  Zn103  1  0.69066949  0.42956278  0.93393008  1
  Zn  Zn104  1  0.69297681  0.93475042  0.42197747  1
  Zn  Zn105  1  0.68377520  0.94098184  0.93521371  1
  Zn  Zn106  1  0.31271373  0.06787154  0.06461232  1
  Zn  Zn107  1  0.31322752  0.06412947  0.56901108  1
  Zn  Zn108  1  0.27129283  0.56308515  0.08716190  1
  Zn  Zn109  1  0.31324241  0.56123611  0.56301957  1
  Zn  Zn110  1  0.82099816  0.06558583  0.07394206  1
  Zn  Zn111  1  0.80617989  0.06061173  0.54884313  1
  Zn  Zn112  1  0.80525462  0.47813835  0.05514791  1
  Zn  Zn113  1  0.81031759  0.56504124  0.55857159  1
  Zn  Zn114  1  0.43174739  0.44279507  0.18787640  1
  Zn  Zn115  1  0.43472463  0.43994744  0.68697611  1
  Zn  Zn116  1  0.43278812  0.93513303  0.18142563  1
  Zn  Zn117  1  0.43966737  0.93672366  0.68186931  1
  Zn  Zn118  1  0.92584243  0.42515144  0.19018824  1
  Zn  Zn119  1  0.93527788  0.42989406  0.69458531  1
  Zn  Zn120  1  0.94446827  0.93694355  0.19068394  1
  Zn  Zn121  1  0.93259643  0.94275117  0.67947377  1
  Zn  Zn122  1  0.05923247  0.06242348  0.32816279  1
  Zn  Zn123  1  0.06455318  0.07284299  0.80885585  1
  Zn  Zn124  1  0.05869257  0.56277561  0.31562569  1
  Zn  Zn125  1  0.06603073  0.56484674  0.81456048  1
  Zn  Zn126  1  0.54883680  0.04854344  0.30289429  1
  Zn  Zn127  1  0.56355232  0.06601088  0.80645132  1
  Zn  Zn128  1  0.55424561  0.56517324  0.32331049  1
  Zn  Zn129  1  0.56544940  0.56473009  0.81531863  1
  Zn  Zn130  1  0.43673891  0.18329546  0.43130656  1
  Zn  Zn131  1  0.44697326  0.18177923  0.93499182  1
  Zn  Zn132  1  0.43158517  0.68820709  0.44355047  1
  Zn  Zn133  1  0.42539819  0.68478972  0.93872911  1
  Zn  Zn134  1  0.93222124  0.18708784  0.43969072  1
  Zn  Zn135  1  0.94246682  0.19177462  0.93829113  1
  Zn  Zn136  1  0.94542376  0.68570668  0.43720663  1
  Zn  Zn137  1  0.94552480  0.68900468  0.94226394  1
  Zn  Zn138  1  0.02164889  0.30463697  0.05230943  1
  Zn  Zn139  1  0.06352312  0.30390697  0.56986665  1
  Zn  Zn140  1  0.06699245  0.81370556  0.06435879  1
  Zn  Zn141  1  0.04864891  0.80797299  0.54871472  1
  Zn  Zn142  1  0.57341970  0.32225291  0.06021246  1
  Zn  Zn143  1  0.56476091  0.30930873  0.55236610  1
  Zn  Zn144  1  0.55754514  0.80671610  0.06406281  1
  Zn  Zn145  1  0.56886223  0.81644261  0.56059731  1
  O  O146  1  0.11809205  0.11584816  0.13297520  1
  O  O147  1  0.16912756  0.05271679  0.66912015  1
  O  O148  1  0.16706165  0.60522825  0.11223774  1
  O  O149  1  0.11488318  0.61150512  0.61923851  1
  O  O150  1  0.61376243  0.10819087  0.13882301  1
  O  O151  1  0.60784045  0.13544733  0.62625711  1
  O  O152  1  0.61077217  0.63783079  0.11530907  1
  O  O153  1  0.63553947  0.62948787  0.60770133  1
  O  O154  1  0.38378752  0.39174768  0.36315461  1
  O  O155  1  0.38902791  0.37265867  0.88792031  1
  O  O156  1  0.36290186  0.88344667  0.38567231  1
  O  O157  1  0.36495629  0.87219997  0.89587504  1
  O  O158  1  0.86816858  0.39147922  0.36323692  1
  O  O159  1  0.86621472  0.38572994  0.87399242  1
  O  O160  1  0.88686441  0.87891190  0.37731844  1
  O  O161  1  0.88107202  0.88634067  0.88222375  1
  O  O162  1  0.25961055  0.01577115  0.37804889  1
  O  O163  1  0.24466406  0.01451417  0.87255903  1
  O  O164  1  0.26516918  0.49620168  0.38510131  1
  O  O165  1  0.24579839  0.50072645  0.86326939  1
  O  O166  1  0.77549034  -0.00722243  0.37508074  1
  O  O167  1  0.75984778  0.00182160  0.86794480  1
  O  O168  1  0.75875587  0.51383271  0.36780121  1
  O  O169  1  0.75875817  0.51680766  0.87875980  1
  O  O170  1  0.27655199  0.46241909  0.13595230  1
  O  O171  1  0.24417300  0.48798467  0.62825247  1
  O  O172  1  0.25199602  0.99149591  0.12930685  1
  O  O173  1  0.22299520  1.00802906  0.63068350  1
  O  O174  1  0.75210475  0.51649538  0.14613850  1
  O  O175  1  0.74889191  0.48951041  0.62036988  1
  O  O176  1  0.73978957  0.98481768  0.12273849  1
  O  O177  1  0.76131501  0.98921080  0.63738569  1
  O  O178  1  0.00772304  0.35484610  0.24613537  1
  O  O179  1  -0.00857327  0.35198280  0.75676079  1
  O  O180  1  0.01870324  0.86647447  0.24620978  1
  O  O181  1  -0.00409265  0.87633402  0.75986441  1
  O  O182  1  0.50726571  0.38252429  0.25818658  1
  O  O183  1  0.50703811  0.37554082  0.75446806  1
  O  O184  1  0.50849157  0.86647298  0.24197563  1
  O  O185  1  0.51883410  0.88178829  0.74535805  1
  O  O186  1  0.48808450  0.12105258  0.23838092  1
  O  O187  1  0.49172662  0.13654073  0.74113668  1
  O  O188  1  0.49728047  0.62319763  0.23706673  1
  O  O189  1  0.48420772  0.61206246  0.75220841  1
  O  O190  1  1.00551863  0.12457282  0.24476167  1
  O  O191  1  0.98872292  0.14004486  0.75624610  1
  O  O192  1  0.98754705  0.63158365  0.25456970  1
  O  O193  1  1.00095752  0.63023426  0.73767325  1
  O  O194  1  0.38257296  0.25748852  -0.00443187  1
  O  O195  1  0.37425018  0.24827146  0.51361480  1
  O  O196  1  0.37220506  0.75671877  0.01525276  1
  O  O197  1  0.35919932  0.75933640  0.50039619  1
  O  O198  1  0.91521983  0.26637901  0.01504998  1
  O  O199  1  0.86262850  0.25061526  0.50936802  1
  O  O200  1  0.86976963  0.76187515  0.00067937  1
  O  O201  1  0.88479621  0.75154968  0.51329431  1
  O  O202  1  0.12307995  0.25431970  0.48529874  1
  O  O203  1  0.11909119  0.24922658  0.99734895  1
  O  O204  1  0.12708950  0.74342973  0.49653568  1
  O  O205  1  0.10147324  0.74101364  0.98849026  1
  O  O206  1  0.64179020  0.25593346  0.48999238  1
  O  O207  1  0.62024481  0.25456535  0.98121077  1
  O  O208  1  0.62315520  0.74142588  0.48230265  1
  O  O209  1  0.63020586  0.74829359  0.98952309  1
  O  O210  1  0.51351668  0.23745500  0.12343700  1
  O  O211  1  0.48846461  0.25481728  0.62892661  1
  O  O212  1  0.48458352  0.73415622  0.12091767  1
  O  O213  1  0.51254682  0.73802654  0.61488062  1
  O  O214  1  1.01076932  0.23007564  0.14249547  1
  O  O215  1  0.97978698  0.24946014  0.62413120  1
  O  O216  1  0.99966719  0.75380366  0.14141715  1
  O  O217  1  0.99287885  0.74169748  0.62862548  1
  O  O218  1  0.01753531  0.23526394  0.36581586  1
  O  O219  1  0.02297379  0.24352019  0.86541349  1
  O  O220  1  0.01388920  0.74806825  0.36597197  1
  O  O221  1  -0.01121597  0.76897514  0.86648114  1
  O  O222  1  0.48996228  0.27141928  0.38156024  1
  O  O223  1  0.50679534  0.26075579  0.86422336  1
  O  O224  1  0.50847585  0.74461090  0.37152934  1
  O  O225  1  0.50784882  0.74942337  0.88110246  1
  O  O226  1  0.25977422  0.13020167  0.48866277  1
  O  O227  1  0.26289385  0.12926642  0.98297031  1
  O  O228  1  0.23532904  0.63220729  0.50797506  1
  O  O229  1  0.26802666  0.61263535  0.97993463  1
  O  O230  1  0.74950102  0.13929884  0.48902561  1
  O  O231  1  0.74609727  0.14547986  1.03091415  1
  O  O232  1  0.73744030  0.62232096  0.48552711  1
  O  O233  1  0.74076753  0.63822834  0.98797719  1
  O  O234  1  0.26402022  0.37369861  0.00873834  1
  O  O235  1  0.25192088  0.37504650  0.51049281  1
  O  O236  1  0.25697066  0.87632886  0.01764873  1
  O  O237  1  0.24194685  0.86268733  0.50538366  1
  O  O238  1  0.75128011  0.38634357  0.01730267  1
  O  O239  1  0.74341220  0.37452539  0.50611804  1
  O  O240  1  0.75608822  0.86943438  0.00378785  1
  O  O241  1  0.73060664  0.88663382  0.51970655  1
  O  O242  1  0.11125928  0.47991142  0.25902362  1
  O  O243  1  0.13684462  0.50264127  0.73857776  1
  O  O244  1  0.12275026  0.98875071  0.25920695  1
  O  O245  1  0.12603928  1.01034005  0.72142861  1
  O  O246  1  0.63320932  0.52013342  0.25169345  1
  O  O247  1  0.62922865  0.48867951  0.75404650  1
  O  O248  1  0.62170591  0.97991362  0.24061266  1
  O  O249  1  0.64111864  0.98758376  0.75871956  1
  O  O250  1  0.37316772  -0.00538083  0.25982058  1
  O  O251  1  0.38077262  0.01267630  0.74637174  1
  O  O252  1  0.37827689  0.51671438  0.26157066  1
  O  O253  1  0.36140068  0.50829094  0.74493156  1
  O  O254  1  0.88949578  0.00207525  0.26570206  1
  O  O255  1  0.86566331  -0.00049316  0.76351884  1
  O  O256  1  0.87179330  0.51412987  0.26256156  1
  O  O257  1  0.86513726  0.49809859  0.76168442  1
  O  O258  1  0.13056161  0.35962569  0.36420204  1
  O  O259  1  0.13515785  0.35479345  0.87686634  1
  O  O260  1  0.13468140  0.86548138  0.36098098  1
  O  O261  1  0.10920685  0.87835702  0.87740601  1
  O  O262  1  0.60887335  0.38412151  0.36160669  1
  O  O263  1  0.61744346  0.36971893  0.86348535  1
  O  O264  1  0.62560531  0.86369177  0.36120441  1
  O  O265  1  0.62966680  0.86264704  0.86894507  1
  O  O266  1  0.38720905  0.12583764  0.13325944  1
  O  O267  1  0.37983381  0.13870871  0.63572700  1
  O  O268  1  0.37273500  0.63221253  0.13671483  1
  O  O269  1  0.36913804  0.62803229  0.63649716  1
  O  O270  1  0.89699652  0.10953649  0.14698304  1
  O  O271  1  0.86204357  0.13270804  0.62300978  1
  O  O272  1  0.87052646  0.62567273  0.14126467  1
  O  O273  1  0.87939613  0.63574678  0.62046056  1
  O  O274  1  0.25561476  0.26647603  0.12827179  1
  O  O275  1  0.26164944  0.26373426  0.63349975  1
  O  O276  1  0.25758348  0.75219208  0.12654689  1
  O  O277  1  0.23920396  0.74759552  0.61530832  1
  O  O278  1  0.74631869  0.21193916  0.08715664  1
  O  O279  1  0.75601630  0.26251722  0.61659378  1
  O  O280  1  0.75143812  0.76024096  0.11284600  1
  O  O281  1  0.76143809  0.75737466  0.62589509  1
  O  O282  1  0.24241702  0.23911754  0.37155957  1
  O  O283  1  0.23556072  0.24002857  0.85473096  1
  O  O284  1  0.23652248  0.74822424  0.38942568  1
  O  O285  1  0.24714663  0.73648816  0.86929868  1
  O  O286  1  0.76194083  0.26063544  0.37632117  1
  O  O287  1  0.73767379  0.25843500  0.86734057  1
  O  O288  1  0.74709084  0.74257533  0.37410534  1
  O  O289  1  0.75034783  0.74567721  0.88157494  1
  O  O290  1  -0.00146162  0.11141892  0.01474084  1
  O  O291  1  0.00192535  0.12052813  0.50379182  1
  O  O292  1  -0.00255454  0.60872728  0.00014345  1
  O  O293  1  0.00691011  0.61501586  0.51234768  1
  O  O294  1  0.50586241  0.12023208  0.01621861  1
  O  O295  1  0.49257897  0.12983967  0.51256767  1
  O  O296  1  0.50127123  0.61605026  0.00068983  1
  O  O297  1  0.51102697  0.61873244  0.49453779  1
  O  O298  1  0.50893294  0.39142117  0.48614676  1
  O  O299  1  0.49628478  0.38849947  0.99582160  1
  O  O300  1  0.49003599  0.87491474  0.49523363  1
  O  O301  1  0.48289502  0.87374526  1.00965682  1
  O  O302  1  1.00380513  0.38680190  0.50676648  1
  O  O303  1  1.00602826  0.39540099  0.98404195  1
  O  O304  1  1.00054697  0.90408962  0.53710630  1
  O  O305  1  0.99095290  0.88730270  0.99327356  1
  O  O306  1  0.48827065  0.49450447  0.38245771  1
  O  O307  1  0.50569467  0.49352594  0.88907071  1
  O  O308  1  0.47486196  1.00419332  0.37958360  1
  O  O309  1  0.51330512  0.99798015  0.87718427  1
  O  O310  1  0.98302209  0.50513292  0.38489882  1
  O  O311  1  0.98592172  0.49806788  0.86343937  1
  O  O312  1  0.99661374  0.99718251  0.39592385  1
  O  O313  1  0.99152717  0.99576421  0.88013220  1
  O  O314  1  0.00543296  -0.00042442  0.11243576  1
  O  O315  1  -0.00144555  0.00514791  0.61556808  1
  O  O316  1  -0.01534254  0.48786688  0.11497983  1
  O  O317  1  0.00260278  0.50155984  0.62320883  1
  O  O318  1  0.51285765  -0.00413259  0.12061267  1
  O  O319  1  0.50115528  0.01567151  0.62480319  1
  O  O320  1  0.49140545  0.51729626  0.11177205  1
  O  O321  1  0.49512766  0.49477758  0.60595592  1
  O  O322  1  0.23085187  0.36751246  0.24323626  1
  O  O323  1  0.25737210  0.38752971  0.74466638  1
  O  O324  1  0.23845554  0.87005926  0.23926281  1
  O  O325  1  0.26439175  0.89282053  0.74809264  1
  O  O326  1  0.72447826  0.39895266  0.26226218  1
  O  O327  1  0.73730950  0.37565763  0.73699099  1
  O  O328  1  0.74962490  0.86656641  0.23594451  1
  O  O329  1  0.74416574  0.88336915  0.74294754  1
  O  O330  1  0.26735747  0.12700228  0.24695660  1
  O  O331  1  0.26907858  0.12469824  0.75320412  1
  O  O332  1  0.25682066  0.62477237  0.25824322  1
  O  O333  1  0.25561118  0.61146582  0.75667309  1
  O  O334  1  0.77044120  0.12169791  0.24549057  1
  O  O335  1  0.74020383  0.11019945  0.74109919  1
  O  O336  1  0.75977182  0.62507307  0.26153084  1
  O  O337  1  0.73947736  0.62986188  0.76534558  1
  O  O338  1  0.36710579  0.12010077  0.36158022  1
  O  O339  1  0.37020116  0.12999845  0.86248080  1
  O  O340  1  0.37879621  0.62072001  0.36455835  1
  O  O341  1  0.36380805  0.62879116  0.85831430  1
  O  O342  1  0.88535304  0.11204307  0.36342949  1
  O  O343  1  0.87595806  0.11495302  0.88346753  1
  O  O344  1  0.86388868  0.62661631  0.37406377  1
  O  O345  1  0.86397420  0.62994691  0.87309880  1
  O  O346  1  0.12772361  0.37096651  0.13441564  1
  O  O347  1  0.13817890  0.38120728  0.62070717  1
  O  O348  1  0.13621690  0.87513186  0.13488979  1
  O  O349  1  0.20031083  0.86977544  0.71877549  1
  O  O350  1  0.61469912  0.38693349  0.14281730  1
  O  O351  1  0.62806542  0.37189868  0.63436528  1
  O  O352  1  0.63262738  0.87518378  0.13210289  1
  O  O353  1  0.63955284  0.86397935  0.64202377  1
  O  O354  1  0.11806948  0.25344355  0.25967921  1
  O  O355  1  0.10276238  0.24251185  0.71580370  1
  O  O356  1  0.11973869  0.74739427  0.25847266  1
  O  O357  1  0.10571327  0.74398804  0.75592360  1
  O  O358  1  0.63642625  0.26346642  0.24335329  1
  O  O359  1  0.61583420  0.26295607  0.75504833  1
  O  O360  1  0.62795523  0.75824212  0.25741847  1
  O  O361  1  0.62497054  0.76009066  0.76581707  1
  O  O362  1  0.37785738  0.24327955  0.25386405  1
  O  O363  1  0.38660852  0.25217395  0.74486436  1
  O  O364  1  0.36993069  0.73843896  0.24321458  1
  O  O365  1  0.37585219  0.73688252  0.74227719  1
  O  O366  1  0.89623553  0.22912798  0.26324108  1
  O  O367  1  0.87657727  0.24853969  0.72874664  1
  O  O368  1  0.88289861  0.74030018  0.25105549  1
  O  O369  1  0.88775740  0.75481730  0.73586085  1
  O  O370  1  0.38792471  0.51453221  0.48647403  1
  O  O371  1  0.38238053  0.49343385  0.99717425  1
  O  O372  1  0.36510643  0.98443183  0.50026060  1
  O  O373  1  0.37703368  0.98484805  1.01253039  1
  O  O374  1  0.87790614  0.50162609  0.48776154  1
  O  O375  1  0.88669258  0.50559083  0.98070994  1
  O  O376  1  0.88518840  1.00296994  0.49079168  1
  O  O377  1  0.87544973  0.99551173  0.99055790  1
  O  O378  1  0.11306907  -0.00195435  -0.00710583  1
  O  O379  1  0.11872742  0.00901856  0.49618332  1
  O  O380  1  0.10905594  0.50565841  -0.00353219  1
  O  O381  1  0.11646056  0.50335280  0.50688721  1
  O  O382  1  0.62898891  0.00436492  0.01480061  1
  O  O383  1  0.62524901  0.03847551  0.45056914  1
  O  O384  1  0.62381750  0.51504265  -0.00537024  1
  O  O385  1  0.61381393  0.51775352  0.48860769  1
  O  O386  1  0.39311073  0.36589668  0.10953358  1
  O  O387  1  0.36600186  0.36760980  0.62383075  1
  O  O388  1  0.36124028  0.86203638  0.12707709  1
  O  O389  1  0.37980499  0.86814851  0.61136799  1
  O  O390  1  0.84302194  0.35181389  0.17043107  1
  O  O391  1  0.85954404  0.37495815  0.62199483  1
  O  O392  1  0.86526431  0.87895744  0.11745536  1
  O  O393  1  0.86149727  0.86437087  0.62678674  1
  O  O394  1  0.14263717  0.13279864  0.37072468  1
  O  O395  1  0.14056527  0.13482270  0.87031173  1
  O  O396  1  0.11828045  0.62985942  0.38870859  1
  O  O397  1  0.14158933  0.62329878  0.87747992  1
  O  O398  1  0.62184954  0.08963546  0.39450554  1
  O  O399  1  0.62418178  0.14349898  0.87158031  1
  O  O400  1  0.63425516  0.63911370  0.37321614  1
  O  O401  1  0.62957782  0.63977614  0.88135467  1
