# generated using pymatgen
data_V73Zn73O256
_symmetry_space_group_name_H-M   'P 1'
_cell_length_a   16.94721874
_cell_length_b   16.92976778
_cell_length_c   16.90893128
_cell_angle_alpha   90.08951354
_cell_angle_beta   90.04394752
_cell_angle_gamma   89.86068319
_symmetry_Int_Tables_number   1
_chemical_formula_structural   V73Zn73O256
_chemical_formula_sum   'V73 Zn73 O256'
_cell_volume   4851.36169613
_cell_formula_units_Z   1
loop_
 _symmetry_equiv_pos_site_id
 _symmetry_equiv_pos_as_xyz
  1  'x, y, z'
loop_
 _atom_site_type_symbol
 _atom_site_label
 _atom_site_symmetry_multiplicity
 _atom_site_fract_x
 _atom_site_fract_y
 _atom_site_fract_z
 _atom_site_occupancy
  V  V0  1  0.74637796  0.74950782  0.49601058  1
  V  V1  1  0.73878303  -0.00709517  0.75056099  1
  V  V2  1  0.12032672  0.61204617  0.50071786  1
  V  V3  1  0.38019618  0.11676842  0.74075208  1
  V  V4  1  0.23836317  0.61454691  0.87021799  1
  V  V5  1  0.62407087  0.37083111  0.74635301  1
  V  V6  1  0.49103123  0.27258877  0.24351666  1
  V  V7  1  0.11930645  -0.01194985  0.13119674  1
  V  V8  1  0.26594604  0.11753215  0.89723132  1
  V  V9  1  0.61824047  0.50559721  0.12191391  1
  V  V10  1  0.00638226  0.36291557  0.37740055  1
  V  V11  1  0.50393807  0.13103065  0.13249363  1
  V  V12  1  0.87062434  0.61940927  0.74514766  1
  V  V13  1  0.14072728  0.37696196  0.24760603  1
  V  V14  1  0.42207579  0.80200654  0.57414120  1
  V  V15  1  0.00140726  0.60970085  0.62225108  1
  V  V16  1  0.12050296  0.13226723  0.53820287  1
  V  V17  1  0.62857106  0.10896392  0.00828691  1
  V  V18  1  0.23975461  -0.00148374  0.75396405  1
  V  V19  1  0.13438327  0.22810087  0.36944390  1
  V  V20  1  0.75429600  0.50125989  0.24816256  1
  V  V21  1  0.00231765  0.87490834  0.86743069  1
  V  V22  1  0.23889339  0.75897273  0.49675770  1
  V  V23  1  0.75085642  0.62511743  0.88122006  1
  V  V24  1  0.88934639  0.37652355  -0.00239769  1
  V  V25  1  0.87220097  0.87469052  -0.00142117  1
  V  V26  1  0.86867105  0.74874174  0.62133961  1
  V  V27  1  0.00544462  0.36206645  0.86611740  1
  V  V28  1  0.87721319  0.75089033  0.12449802  1
  V  V29  1  0.75468399  0.38069639  0.12380125  1
  V  V30  1  0.62343792  0.75243620  0.87239765  1
  V  V31  1  0.37303682  0.62003583  0.74952767  1
  V  V32  1  0.86964279  0.00347769  0.86767596  1
  V  V33  1  0.74549028  0.25513012  -0.00461744  1
  V  V34  1  0.13221534  0.22996556  0.87958780  1
  V  V35  1  0.86743253  0.12083246  0.26478848  1
  V  V36  1  0.00101464  0.00658986  -0.00445096  1
  V  V37  1  0.13309088  0.37982682  0.74032502  1
  V  V38  1  0.73536260  0.86565285  0.63299599  1
  V  V39  1  0.49416919  0.60823907  0.62029541  1
  V  V40  1  0.60501545  0.62524162  0.00217297  1
  V  V41  1  0.50656736  0.36836866  0.88914608  1
  V  V42  1  0.24023715  0.86681348  0.13238619  1
  V  V43  1  0.88438385  0.49866554  0.87773101  1
  V  V44  1  0.00048288  0.75041030  0.74810911  1
  V  V45  1  0.24752810  0.60922154  0.37091677  1
  V  V46  1  0.00762927  0.61843289  0.11099045  1
  V  V47  1  0.88155609  0.62306504  0.24901776  1
  V  V48  1  0.23628406  0.74776606  -0.00835132  1
  V  V49  1  0.88484662  0.24863950  0.12764179  1
  V  V50  1  0.37893584  0.74095044  0.11763907  1
  V  V51  1  0.75217264  0.88926753  0.13971420  1
  V  V52  1  0.37581379  0.61804740  0.24864485  1
  V  V53  1  0.00244318  0.12658465  0.13060236  1
  V  V54  1  0.00651672  0.76003746  0.26359012  1
  V  V55  1  0.73944049  0.49566614  0.75080477  1
  V  V56  1  0.61552772  0.61424027  0.50102159  1
  V  V57  1  0.49759055  0.88242079  0.89252422  1
  V  V58  1  0.36103495  0.35959450  0.00606984  1
  V  V59  1  0.61084321  0.75545675  0.36583127  1
  V  V60  1  0.88165251  -0.02642520  0.38634608  1
  V  V61  1  0.74716129  0.13480700  0.86882616  1
  V  V62  1  0.27441483  0.37653359  0.62102505  1
  V  V63  1  0.89180759  0.50134388  0.38470924  1
  V  V64  1  0.38187309  0.49864238  0.88426697  1
  V  V65  1  0.64555045  0.28383680  0.34684347  1
  V  V66  1  0.61578236  0.00632680  0.61208754  1
  V  V67  1  0.49304844  0.24540948  0.74812837  1
  V  V68  1  0.86873746  0.21334151  0.64915666  1
  V  V69  1  -0.00032604  0.00050803  0.52182133  1
  V  V70  1  0.49758651  0.75473275  0.75304460  1
  V  V71  1  0.64050036  0.16091891  0.49002773  1
  V  V72  1  0.23338059  0.86534199  0.64300187  1
  Zn  Zn73  1  0.46311220  0.80203991  0.26586913  1
  Zn  Zn74  1  0.34996039  0.91501422  -0.01836906  1
  Zn  Zn75  1  0.76800883  0.34670103  0.59533784  1
  Zn  Zn76  1  0.74638622  0.62000083  0.37629779  1
  Zn  Zn77  1  0.26611758  0.24674730  0.50521626  1
  Zn  Zn78  1  0.11262273  0.48964029  0.13245035  1
  Zn  Zn79  1  0.12093805  0.74753427  0.86906984  1
  Zn  Zn80  1  0.59042797  0.94912558  0.20686979  1
  Zn  Zn81  1  0.74403025  0.75258156  0.00450076  1
  Zn  Zn82  1  0.18231438  0.17569769  0.19746231  1
  Zn  Zn83  1  0.19735941  0.20340635  0.70005091  1
  Zn  Zn84  1  0.18336690  0.68681884  0.18948148  1
  Zn  Zn85  1  0.18495206  0.68239005  0.68627299  1
  Zn  Zn86  1  0.69963030  0.19184495  0.18365287  1
  Zn  Zn87  1  0.67823546  0.18620677  0.68881533  1
  Zn  Zn88  1  0.69140364  0.68894942  0.18552826  1
  Zn  Zn89  1  0.67911113  0.67861186  0.68709126  1
  Zn  Zn90  1  0.31158838  0.30278987  0.18617584  1
  Zn  Zn91  1  0.30951196  0.30765960  0.81447254  1
  Zn  Zn92  1  0.17022756  0.82944141  0.32063635  1
  Zn  Zn93  1  0.31788484  0.81015098  0.81699837  1
  Zn  Zn94  1  0.82951204  0.31783896  0.30964028  1
  Zn  Zn95  1  0.82730982  0.31633851  0.78518713  1
  Zn  Zn96  1  0.81451910  0.80831052  0.31502550  1
  Zn  Zn97  1  0.81191122  0.81044541  0.81169231  1
  Zn  Zn98  1  0.19064020  0.42578037  0.44045915  1
  Zn  Zn99  1  0.18880595  0.43701895  0.93192277  1
  Zn  Zn100  1  0.15396054  0.92604388  0.47860598  1
  Zn  Zn101  1  0.18032204  0.94044664  0.93575399  1
  Zn  Zn102  1  0.69422439  0.42554897  0.43280167  1
  Zn  Zn103  1  0.69069133  0.44063882  0.93967013  1
  Zn  Zn104  1  0.67493165  0.96520942  0.39334257  1
  Zn  Zn105  1  0.68632776  0.93460828  0.94011319  1
  Zn  Zn106  1  0.30644011  0.07672197  0.10103121  1
  Zn  Zn107  1  0.29590286  0.06482191  0.57794415  1
  Zn  Zn108  1  0.30665569  0.56515781  0.05523733  1
  Zn  Zn109  1  0.29113063  0.57085829  0.57805512  1
  Zn  Zn110  1  0.81539697  0.06618051  0.05866794  1
  Zn  Zn111  1  0.80416381  0.04805934  0.55246883  1
  Zn  Zn112  1  0.81925862  0.56256578  0.06077119  1
  Zn  Zn113  1  0.78704820  0.53106433  0.54706516  1
  Zn  Zn114  1  0.43073633  0.44598885  0.17952206  1
  Zn  Zn115  1  0.43965326  0.43836785  0.69830050  1
  Zn  Zn116  1  0.43826220  0.94419034  0.12491024  1
  Zn  Zn117  1  0.43911843  0.93979394  0.69802493  1
  Zn  Zn118  1  0.94684108  0.43219998  0.19239870  1
  Zn  Zn119  1  0.93507603  0.42699091  0.68281581  1
  Zn  Zn120  1  0.93427154  0.94334322  0.19427134  1
  Zn  Zn121  1  0.92514790  0.93502551  0.68756838  1
  Zn  Zn122  1  0.08719422  0.01708364  0.34182835  1
  Zn  Zn123  1  0.05481825  0.06737632  0.80211643  1
  Zn  Zn124  1  0.07101350  0.56641362  0.30765019  1
  Zn  Zn125  1  0.05998002  0.55630049  0.80253426  1
  Zn  Zn126  1  0.59423932  0.10482591  0.30670891  1
  Zn  Zn127  1  0.56733263  0.06388254  0.81745749  1
  Zn  Zn128  1  0.56668142  0.56945664  0.30300564  1
  Zn  Zn129  1  0.55818358  0.56159601  0.81403933  1
  Zn  Zn130  1  0.47620875  0.19972634  0.42830736  1
  Zn  Zn131  1  0.44367572  0.18397708  0.94358984  1
  Zn  Zn132  1  0.43097890  0.68933238  0.43179870  1
  Zn  Zn133  1  0.42934344  0.69331350  0.93603185  1
  Zn  Zn134  1  0.94593520  0.18231440  0.44741665  1
  Zn  Zn135  1  0.93438645  0.18912442  0.93682507  1
  Zn  Zn136  1  0.93652073  0.68328526  0.43854067  1
  Zn  Zn137  1  0.93685141  0.68781493  0.93569429  1
  Zn  Zn138  1  0.17788123  0.30461451  0.06289095  1
  Zn  Zn139  1  0.05996479  0.31541607  0.55365689  1
  Zn  Zn140  1  0.05559977  0.80770082  0.05764481  1
  Zn  Zn141  1  0.05835961  0.80886590  0.57014150  1
  Zn  Zn142  1  0.56450397  0.32071547  0.06580291  1
  Zn  Zn143  1  0.55477859  0.31313662  0.57127262  1
  Zn  Zn144  1  0.55802067  0.82053010  0.08271246  1
  Zn  Zn145  1  0.59420460  0.86120128  0.50857478  1
  O  O146  1  0.10666425  0.10862737  0.12463788  1
  O  O147  1  0.11616008  0.14769309  0.63653870  1
  O  O148  1  0.10847386  0.62366170  0.12951177  1
  O  O149  1  0.11657399  0.62329937  0.61425190  1
  O  O150  1  0.63648000  0.13086023  0.11067895  1
  O  O151  1  0.62739485  0.10990748  0.61604484  1
  O  O152  1  0.63046197  0.62163854  0.11041480  1
  O  O153  1  0.60563107  0.62787876  0.61314505  1
  O  O154  1  0.40887267  0.34016038  0.48123441  1
  O  O155  1  0.37719180  0.38386858  0.88110489  1
  O  O156  1  0.38255000  0.90722430  0.31678456  1
  O  O157  1  0.39056604  0.87088720  0.88455562  1
  O  O158  1  0.89417830  0.39144343  0.37147932  1
  O  O159  1  0.88594998  0.37798551  0.87438072  1
  O  O160  1  0.88355537  0.87441008  0.37756943  1
  O  O161  1  0.87788856  0.88099658  0.88075970  1
  O  O162  1  0.28712432  0.01029859  0.41638182  1
  O  O163  1  0.24944258  0.00816658  0.86972008  1
  O  O164  1  0.25200145  0.51142053  0.38309170  1
  O  O165  1  0.25951123  0.51099092  0.87374564  1
  O  O166  1  0.78239286  -0.00342574  0.39559522  1
  O  O167  1  0.75201349  0.00152754  0.86910681  1
  O  O168  1  0.76250985  0.50019172  0.36032814  1
  O  O169  1  0.75788784  0.50844680  0.87055518  1
  O  O170  1  0.21975448  0.49442298  0.07963277  1
  O  O171  1  0.25122354  0.47882041  0.62219437  1
  O  O172  1  0.22704225  0.97613882  0.11667959  1
  O  O173  1  0.25543103  0.98203592  0.64492899  1
  O  O174  1  0.75383658  0.49732685  0.12920239  1
  O  O175  1  0.74842860  0.51053288  0.65297305  1
  O  O176  1  0.76668583  0.98771414  0.12599012  1
  O  O177  1  0.74038443  0.98402586  0.63194757  1
  O  O178  1  0.01308905  0.37939169  0.26754988  1
  O  O179  1  0.00677329  0.37390755  0.76297624  1
  O  O180  1  -0.00820450  0.85776682  0.24463119  1
  O  O181  1  -0.01632821  0.86134670  0.75656230  1
  O  O182  1  0.50062852  0.37322493  0.23137540  1
  O  O183  1  0.50642025  0.36698084  0.76450649  1
  O  O184  1  0.50405002  0.87306781  0.18809949  1
  O  O185  1  0.49299766  0.85852050  0.76425716  1
  O  O186  1  0.51807332  0.15118031  0.23857117  1
  O  O187  1  0.49257382  0.13535031  0.76424649  1
  O  O188  1  0.47675663  0.62214456  0.25841235  1
  O  O189  1  0.49544800  0.62799186  0.73754289  1
  O  O190  1  0.98382363  0.12251507  0.23011619  1
  O  O191  1  0.99636574  0.12839691  0.73176500  1
  O  O192  1  0.99411945  0.63501223  0.24164401  1
  O  O193  1  0.98913234  0.62872334  0.74277695  1
  O  O194  1  0.37719762  0.26212361  -0.00164327  1
  O  O195  1  0.39104590  0.25656098  0.48477154  1
  O  O196  1  0.35249916  0.74107829  0.00691382  1
  O  O197  1  0.35873586  0.74636097  0.50916845  1
  O  O198  1  0.86823335  0.25887074  0.00495860  1
  O  O199  1  0.89867975  0.25283835  0.53641655  1
  O  O200  1  0.87590702  0.75919743  0.00701148  1
  O  O201  1  0.85656697  0.72892706  0.51117691  1
  O  O202  1  0.11119781  0.23166581  0.48949599  1
  O  O203  1  0.12487182  0.25461339  0.97677591  1
  O  O204  1  0.13626935  0.74215662  0.51131693  1
  O  O205  1  0.13122215  0.74933581  0.98977162  1
  O  O206  1  0.63973865  0.26050093  0.51658685  1
  O  O207  1  0.64510874  0.25933648  1.00201824  1
  O  O208  1  0.63369726  0.73963957  0.48867520  1
  O  O209  1  0.62503339  0.73521961  0.99526747  1
  O  O210  1  0.51716676  0.24888760  0.13566310  1
  O  O211  1  0.49497220  0.25306899  0.64862989  1
  O  O212  1  0.47704880  0.73853918  0.10343678  1
  O  O213  1  0.48419836  0.74385761  0.63581937  1
  O  O214  1  0.99124497  0.23177590  0.11222090  1
  O  O215  1  0.96106107  0.25528980  0.59597793  1
  O  O216  1  0.99117339  0.74089052  0.12988577  1
  O  O217  1  0.98656220  0.74034250  0.62979613  1
  O  O218  1  0.00464582  0.26009011  0.37974503  1
  O  O219  1  0.00702424  0.25730651  0.87559519  1
  O  O220  1  -0.00822057  0.74745421  0.36239555  1
  O  O221  1  -0.00404277  0.75657311  0.86540819  1
  O  O222  1  0.52398367  0.26116076  0.34682093  1
  O  O223  1  0.49497041  0.26469578  0.87134657  1
  O  O224  1  0.50417218  0.75470730  0.36508206  1
  O  O225  1  0.50670120  0.75390243  0.87339536  1
  O  O226  1  0.22917885  0.13557097  0.52216528  1
  O  O227  1  0.25772255  0.11202962  0.99459912  1
  O  O228  1  0.24185293  0.63553155  0.49544378  1
  O  O229  1  0.24728604  0.63577491  0.97885580  1
  O  O230  1  0.73008288  0.11439232  0.49967738  1
  O  O231  1  0.74410007  0.13402246  0.99342060  1
  O  O232  1  0.72947552  0.62612822  0.50257796  1
  O  O233  1  0.75650930  0.62963360  0.98742447  1
  O  O234  1  0.25784200  0.36359788  -0.01043531  1
  O  O235  1  0.25186733  0.36583249  0.51425701  1
  O  O236  1  0.24562688  0.86034907  -0.00809632  1
  O  O237  1  0.24128964  0.86495421  0.52611600  1
  O  O238  1  0.76401939  0.37293922  0.00371326  1
  O  O239  1  0.75881102  0.42287929  0.51949707  1
  O  O240  1  0.76177406  0.87272855  0.00609589  1
  O  O241  1  0.74688768  0.84944773  0.51302690  1
  O  O242  1  0.12967873  0.48562455  0.25054099  1
  O  O243  1  0.12416308  0.48012508  0.74959556  1
  O  O244  1  0.10545623  0.99163167  0.22832732  1
  O  O245  1  0.14165518  1.00393457  0.75491396  1
  O  O246  1  0.64085666  0.51601012  0.23175491  1
  O  O247  1  0.62629109  0.48522383  0.76344069  1
  O  O248  1  0.61850177  0.99881940  0.30196381  1
  O  O249  1  0.63507718  1.00441880  0.73930863  1
  O  O250  1  0.35996084  -0.03928315  0.27160526  1
  O  O251  1  0.37610002  0.01369323  0.75915200  1
  O  O252  1  0.36397992  0.51850364  0.23564202  1
  O  O253  1  0.37940526  0.51152046  0.76540345  1
  O  O254  1  0.88380904  0.01167045  0.27309553  1
  O  O255  1  0.85781349  -0.00485644  0.76075743  1
  O  O256  1  0.87338261  0.50897690  0.25236337  1
  O  O257  1  0.86534786  0.50746467  0.76064726  1
  O  O258  1  0.12268700  0.36444726  0.36712621  1
  O  O259  1  0.11197721  0.37821057  0.87072327  1
  O  O260  1  0.15291414  0.92688930  0.36831245  1
  O  O261  1  0.10455888  0.87502461  0.87377339  1
  O  O262  1  0.61552994  0.37997815  0.37063680  1
  O  O263  1  0.60845535  0.38030764  0.88281187  1
  O  O264  1  0.62726633  0.85507756  0.39035438  1
  O  O265  1  0.61751256  0.85828064  0.88491187  1
  O  O266  1  0.40687903  0.13852552  0.11865689  1
  O  O267  1  0.37814957  0.11794643  0.64083500  1
  O  O268  1  0.35296678  0.63332652  0.13345267  1
  O  O269  1  0.38189533  0.61578864  0.63367187  1
  O  O270  1  0.87967330  0.13195248  0.12724396  1
  O  O271  1  0.86307192  0.11622700  0.62671882  1
  O  O272  1  0.88384798  0.63216251  0.12926328  1
  O  O273  1  0.87828490  0.62872685  0.63618868  1
  O  O274  1  0.24400823  0.23829210  0.12464151  1
  O  O275  1  0.25578101  0.26722980  0.62689786  1
  O  O276  1  0.23622402  0.75269312  0.10692088  1
  O  O277  1  0.25090099  0.76025793  0.63124459  1
  O  O278  1  0.76361734  0.26375710  0.11403560  1
  O  O279  1  0.76289543  0.23955703  0.63486003  1
  O  O280  1  0.76471899  0.75756810  0.12427561  1
  O  O281  1  0.74947438  0.74556331  0.62234841  1
  O  O282  1  0.23138666  0.23921451  0.38929311  1
  O  O283  1  0.24419283  0.22685294  0.87425734  1
  O  O284  1  0.24095141  0.76476008  0.39651800  1
  O  O285  1  0.24433236  0.74172141  0.87806687  1
  O  O286  1  0.74380597  0.29222587  0.37639662  1
  O  O287  1  0.76037694  0.23742676  0.87826561  1
  O  O288  1  0.75017331  0.74222018  0.38722528  1
  O  O289  1  0.74112116  0.74161772  0.87478350  1
  O  O290  1  -0.01396812  0.11144452  0.00602198  1
  O  O291  1  0.00968021  0.11334634  0.51181949  1
  O  O292  1  -0.00276992  0.62887616  0.01124742  1
  O  O293  1  0.01383464  0.63067022  0.50689051  1
  O  O294  1  0.52511423  0.13712936  0.00945229  1
  O  O295  1  0.54135129  0.12891137  0.48756455  1
  O  O296  1  0.50751137  0.62263724  -0.00700898  1
  O  O297  1  0.49982210  0.63157760  0.51060420  1
  O  O298  1  0.48516802  0.35628197  0.48637362  1
  O  O299  1  0.48769894  0.37222783  0.99216221  1
  O  O300  1  0.48123021  0.85243190  0.51221148  1
  O  O301  1  0.50258962  0.87509273  0.99442765  1
  O  O302  1  1.01700824  0.38812378  0.47630788  1
  O  O303  1  0.98972566  0.37595943  0.98336295  1
  O  O304  1  1.03685933  0.89950235  0.50572522  1
  O  O305  1  0.98754052  0.88035117  0.98901251  1
  O  O306  1  0.49546909  0.47947880  0.36476492  1
  O  O307  1  0.48755906  0.48892496  0.87562431  1
  O  O308  1  0.45113938  1.04320208  0.36934722  1
  O  O309  1  0.51353080  0.97894695  0.87148631  1
  O  O310  1  0.99197389  0.50881428  0.37018329  1
  O  O311  1  0.98820223  0.49345882  0.86937861  1
  O  O312  1  0.98642849  1.00601936  0.39627154  1
  O  O313  1  0.98899005  0.99495937  0.87488451  1
  O  O314  1  -0.00207536  0.00369740  0.11404087  1
  O  O315  1  -0.01015127  -0.00279545  0.62230221  1
  O  O316  1  -0.00393632  0.51427150  0.12559818  1
  O  O317  1  -0.01156019  0.51111314  0.62973322  1
  O  O318  1  0.52135955  0.02766518  0.14327747  1
  O  O319  1  0.51970471  -0.01148133  0.63340099  1
  O  O320  1  0.52057156  0.50112970  0.12583008  1
  O  O321  1  0.49859901  0.50966018  0.62546570  1
  O  O322  1  0.24030397  0.37038155  0.25187948  1
  O  O323  1  0.24169084  0.37092525  0.74116016  1
  O  O324  1  0.23912949  0.85741435  0.22966639  1
  O  O325  1  0.25736861  0.88529273  0.75277649  1
  O  O326  1  0.76718333  0.38960889  0.23202331  1
  O  O327  1  0.72809486  0.37948144  0.77079211  1
  O  O328  1  0.76173836  0.87506234  0.23916318  1
  O  O329  1  0.74749439  0.87905124  0.74523671  1
  O  O330  1  0.26139245  0.09782168  0.20333173  1
  O  O331  1  0.26401239  0.11272851  0.75409175  1
  O  O332  1  0.24680414  0.62968045  0.26730136  1
  O  O333  1  0.25954351  0.63258621  0.76144616  1
  O  O334  1  0.76832640  0.12455496  0.24568994  1
  O  O335  1  0.73958435  0.11647682  0.76651775  1
  O  O336  1  0.76400501  0.61827177  0.24754918  1
  O  O337  1  0.75139924  0.61968121  0.76315207  1
  O  O338  1  0.40977052  0.10430953  0.36615783  1
  O  O339  1  0.36746063  0.12400249  0.87868283  1
  O  O340  1  0.35646629  0.63470195  0.36334689  1
  O  O341  1  0.37067072  0.61188250  0.87265018  1
  O  O342  1  0.87773185  0.14470340  0.36215975  1
  O  O343  1  0.85794837  0.11177813  0.88574164  1
  O  O344  1  0.87341278  0.61761647  0.36234615  1
  O  O345  1  0.87010660  0.61935530  0.86651236  1
  O  O346  1  0.12092952  0.36771856  0.14325708  1
  O  O347  1  0.11335022  0.36062521  0.64259145  1
  O  O348  1  0.12434526  0.87762279  0.11687663  1
  O  O349  1  0.13493028  0.86772602  0.64486159  1
  O  O350  1  0.64322395  0.39718392  0.10998795  1
  O  O351  1  0.62188593  0.37507230  0.64619050  1
  O  O352  1  0.64887643  0.87838288  0.12452870  1
  O  O353  1  0.63353221  0.87176818  0.62420322  1
  O  O354  1  0.12877812  0.25463757  0.26389439  1
  O  O355  1  0.13124205  0.26508941  0.77493512  1
  O  O356  1  0.11218391  0.75167201  0.25673192  1
  O  O357  1  0.10379566  0.73979086  0.74885190  1
  O  O358  1  0.64552004  0.27257263  0.24524990  1
  O  O359  1  0.61162513  0.25969127  0.75560183  1
  O  O360  1  0.63261719  0.74500646  0.26726036  1
  O  O361  1  0.61156512  0.73569111  0.76355970  1
  O  O362  1  0.39253667  0.25911481  0.25227423  1
  O  O363  1  0.38496017  0.23579467  0.76068067  1
  O  O364  1  0.37426080  0.73879925  0.22772188  1
  O  O365  1  0.38726123  0.73072510  0.76626360  1
  O  O366  1  0.87436960  0.24321435  0.23404840  1
  O  O367  1  0.88115995  0.21918598  0.75123034  1
  O  O368  1  0.88147639  0.74045731  0.24205206  1
  O  O369  1  0.87709922  0.73631283  0.74464987  1
  O  O370  1  0.44170013  0.50190228  0.40973318  1
  O  O371  1  0.37071524  0.49252274  0.98777302  1
  O  O372  1  0.33477375  1.00138406  0.47243713  1
  O  O373  1  0.37515638  0.99719565  1.04954998  1
  O  O374  1  0.88175553  0.52143792  0.48182489  1
  O  O375  1  0.86962371  0.48973812  0.98678665  1
  O  O376  1  0.89099522  0.99082152  0.50098861  1
  O  O377  1  0.87909129  0.99066910  0.98909204  1
  O  O378  1  0.10590796  -0.00608366  0.00620962  1
  O  O379  1  0.11981207  0.02601197  0.52207327  1
  O  O380  1  0.15698196  0.50511007  0.01969750  1
  O  O381  1  0.13013221  0.51422993  0.49757568  1
  O  O382  1  0.63090512  0.00965256  0.00612553  1
  O  O383  1  0.62631719  -0.02080475  0.51078851  1
  O  O384  1  0.63361286  0.51775128  0.00841860  1
  O  O385  1  0.61636473  0.51759739  0.48718997  1
  O  O386  1  0.36587530  0.38019777  0.10947139  1
  O  O387  1  0.37442172  0.37667502  0.63058648  1
  O  O388  1  0.34949880  0.85196344  0.11772894  1
  O  O389  1  0.37133796  0.86993282  0.63148520  1
  O  O390  1  0.87696905  0.37041816  0.11629743  1
  O  O391  1  0.85466937  0.35430618  0.67296878  1
  O  O392  1  0.87279051  0.86897907  0.11737415  1
  O  O393  1  0.86020762  0.85362986  0.63018120  1
  O  O394  1  0.11881330  0.12843751  0.36211675  1
  O  O395  1  0.13001743  0.12709875  0.87429394  1
  O  O396  1  0.13684088  0.62643403  0.38817299  1
  O  O397  1  0.13612361  0.61968205  0.86321615  1
  O  O398  1  0.64512729  0.17424389  0.38134003  1
  O  O399  1  0.64025934  0.12158342  0.89073207  1
  O  O400  1  0.61885331  0.63577383  0.38397896  1
  O  O401  1  0.62994689  0.62744286  0.88716285  1
