# generated using pymatgen
data_V73Zn73O256
_symmetry_space_group_name_H-M   'P 1'
_cell_length_a   16.98219225
_cell_length_b   16.92204451
_cell_length_c   16.94934023
_cell_angle_alpha   90.00020969
_cell_angle_beta   89.69661316
_cell_angle_gamma   89.68686647
_symmetry_Int_Tables_number   1
_chemical_formula_structural   V73Zn73O256
_chemical_formula_sum   'V73 Zn73 O256'
_cell_volume   4870.64872459
_cell_formula_units_Z   1
loop_
 _symmetry_equiv_pos_site_id
 _symmetry_equiv_pos_as_xyz
  1  'x, y, z'
loop_
 _atom_site_type_symbol
 _atom_site_label
 _atom_site_symmetry_multiplicity
 _atom_site_fract_x
 _atom_site_fract_y
 _atom_site_fract_z
 _atom_site_occupancy
  V  V0  1  0.38375917  0.49482858  0.38032277  1
  V  V1  1  0.74618798  -0.00260295  0.25237423  1
  V  V2  1  0.18283194  0.41646757  0.20318653  1
  V  V3  1  0.12626344  0.75176456  0.38148202  1
  V  V4  1  0.36946737  0.53775526  0.85289746  1
  V  V5  1  0.87637307  0.74713617  0.12461371  1
  V  V6  1  0.74631171  0.87413867  0.12911908  1
  V  V7  1  0.74457631  -0.01644417  0.75160536  1
  V  V8  1  0.87211090  0.38544046  0.50204100  1
  V  V9  1  0.12091405  0.87791098  0.25025250  1
  V  V10  1  0.61285930  0.24918551  0.86844361  1
  V  V11  1  0.62926060  0.75016460  0.87128355  1
  V  V12  1  0.62411079  -0.00225993  0.13152979  1
  V  V13  1  0.87746031  0.74766180  0.60848853  1
  V  V14  1  0.38000540  0.14025802  0.73763979  1
  V  V15  1  0.87598718  0.63896259  0.75088353  1
  V  V16  1  0.01737033  0.61463826  0.12697146  1
  V  V17  1  0.02069452  0.50993009  0.50329161  1
  V  V18  1  -0.00561134  0.12840045  0.12111405  1
  V  V19  1  0.01599860  0.50186993  -0.01070923  1
  V  V20  1  -0.00339549  0.24758038  0.74390814  1
  V  V21  1  0.89162032  -0.01418066  0.38484239  1
  V  V22  1  0.10113668  0.12072463  0.49560502  1
  V  V23  1  0.49580492  0.12699280  0.13320020  1
  V  V24  1  0.75107613  0.36897322  0.62708171  1
  V  V25  1  0.88567431  0.00594705  0.86983138  1
  V  V26  1  0.59912475  0.13486619  0.52012103  1
  V  V27  1  0.25691595  0.12044133  0.87081420  1
  V  V28  1  0.12023566  0.00586910  0.12232409  1
  V  V29  1  0.24686900  0.62373406  0.38308719  1
  V  V30  1  0.75128161  0.74697618  0.00083582  1
  V  V31  1  -0.00358424  0.25609772  0.25869367  1
  V  V32  1  0.39712304  0.74465480  0.60260028  1
  V  V33  1  0.58088695  0.31523922  0.30951172  1
  V  V34  1  0.13640194  0.38408437  0.72938564  1
  V  V35  1  0.49676440  -0.00227063  0.00140514  1
  V  V36  1  0.50349202  0.87462156  0.86971532  1
  V  V37  1  0.87289584  0.62170911  0.25713596  1
  V  V38  1  0.50103261  0.61695980  0.12548900  1
  V  V39  1  0.51811077  0.76361427  0.25082816  1
  V  V40  1  0.01261886  0.85108773  0.87079576  1
  V  V41  1  0.62201726  0.62079619  0.00314451  1
  V  V42  1  0.60792066  0.37614840  0.75688002  1
  V  V43  1  0.86992400  0.12152067  0.25245016  1
  V  V44  1  0.25435148  0.84967020  0.59760609  1
  V  V45  1  0.60382598  -0.00302018  0.62922490  1
  V  V46  1  0.00037781  0.75329812  0.25172463  1
  V  V47  1  0.36933952  0.61737863  0.24783419  1
  V  V48  1  0.74780719  0.12399866  0.40134122  1
  V  V49  1  0.24762714  0.02722765  0.25352749  1
  V  V50  1  0.75065625  0.87046133  0.60576350  1
  V  V51  1  0.37642266  0.75207588  0.13146843  1
  V  V52  1  0.74917200  0.12052486  0.86395092  1
  V  V53  1  0.76570152  0.49322036  0.75927832  1
  V  V54  1  0.74154833  0.63713897  0.37759592  1
  V  V55  1  0.75273528  0.49015491  0.25274556  1
  V  V56  1  0.62565537  0.12464529  -0.00316142  1
  V  V57  1  0.12220630  0.12895775  -0.00354716  1
  V  V58  1  0.37712679  0.87668851  0.00204863  1
  V  V59  1  0.24521513  -0.03005908  0.75203027  1
  V  V60  1  0.62240196  0.63430461  0.50402703  1
  V  V61  1  0.12239550  0.26435834  0.87095594  1
  V  V62  1  0.24973403  0.26236191  0.00287023  1
  V  V63  1  0.63308408  0.48839569  0.12790573  1
  V  V64  1  0.39765364  0.37974626  -0.00789347  1
  V  V65  1  0.37678246  0.25211038  0.13019615  1
  V  V66  1  0.24961469  0.87985203  0.12551933  1
  V  V67  1  0.76094912  0.26201533  -0.01169066  1
  V  V68  1  0.87574424  0.23521523  0.62330120  1
  V  V69  1  0.86160519  0.25858680  0.12475659  1
  V  V70  1  0.21604373  0.25196901  0.50433990  1
  V  V71  1  0.23552365  0.72712544  0.00777390  1
  V  V72  1  0.49818903  0.73668481  0.74961327  1
  Zn  Zn73  1  -0.03683718  0.39336159  0.36020483  1
  Zn  Zn74  1  0.62120368  0.51239619  0.63233010  1
  Zn  Zn75  1  0.37877722  0.13109605  0.28800532  1
  Zn  Zn76  1  0.75656484  0.60826893  0.88461185  1
  Zn  Zn77  1  -0.00069697  -0.00248065  -0.00405712  1
  Zn  Zn78  1  0.88127880  0.39765527  -0.02634034  1
  Zn  Zn79  1  0.87707557  0.87586972  -0.00159840  1
  Zn  Zn80  1  0.50579636  0.49621551  0.50238374  1
  Zn  Zn81  1  0.38116863  0.12828078  0.52188703  1
  Zn  Zn82  1  0.19911734  0.22926059  0.20569464  1
  Zn  Zn83  1  0.19311844  0.19677872  0.67922808  1
  Zn  Zn84  1  0.19080377  0.69097976  0.19046592  1
  Zn  Zn85  1  0.19036229  0.69810344  0.66187823  1
  Zn  Zn86  1  0.69109425  0.18408450  0.18088733  1
  Zn  Zn87  1  0.68458351  0.18555530  0.68608608  1
  Zn  Zn88  1  0.68996217  0.68094705  0.18740714  1
  Zn  Zn89  1  0.69551550  0.68617035  0.68917864  1
  Zn  Zn90  1  0.29610238  0.31260509  0.33737518  1
  Zn  Zn91  1  0.31385975  0.31831276  0.81365659  1
  Zn  Zn92  1  0.31415339  0.81061096  0.33095737  1
  Zn  Zn93  1  0.30773856  0.77318551  0.81604200  1
  Zn  Zn94  1  0.76696871  0.32381204  0.33879752  1
  Zn  Zn95  1  0.81066334  0.30639976  0.81150298  1
  Zn  Zn96  1  0.81117065  0.81253432  0.31543079  1
  Zn  Zn97  1  0.82036102  0.81370227  0.81966850  1
  Zn  Zn98  1  0.18863109  0.43752359  0.41792519  1
  Zn  Zn99  1  0.19657435  0.44871284  0.93542620  1
  Zn  Zn100  1  0.18710054  0.94211568  0.43106234  1
  Zn  Zn101  1  0.18968339  0.93490024  0.93372133  1
  Zn  Zn102  1  0.68345361  0.44739970  0.43665469  1
  Zn  Zn103  1  0.67784185  0.43571055  0.93678499  1
  Zn  Zn104  1  0.68315256  0.95503486  0.44606435  1
  Zn  Zn105  1  0.68776680  0.93447249  0.94183436  1
  Zn  Zn106  1  0.30944339  0.06531667  0.06170478  1
  Zn  Zn107  1  0.22805455  0.04594294  0.57244040  1
  Zn  Zn108  1  0.29848459  0.54034525  0.07411081  1
  Zn  Zn109  1  0.32602272  0.57831970  0.55697552  1
  Zn  Zn110  1  0.81245298  0.06432242  0.05667020  1
  Zn  Zn111  1  0.82705503  0.04860561  0.56967035  1
  Zn  Zn112  1  0.81775310  0.55834606  0.06546154  1
  Zn  Zn113  1  0.80009254  0.56407810  0.56884105  1
  Zn  Zn114  1  0.44540398  0.43146449  0.19132400  1
  Zn  Zn115  1  0.44232620  0.48156140  0.69442409  1
  Zn  Zn116  1  0.41556661  0.92850595  0.24813225  1
  Zn  Zn117  1  0.38908988  0.97426317  0.62852127  1
  Zn  Zn118  1  0.93114388  0.43689780  0.17580482  1
  Zn  Zn119  1  0.94945502  0.43148754  0.68507086  1
  Zn  Zn120  1  0.93380489  0.93822025  0.18928907  1
  Zn  Zn121  1  0.92748680  0.91495636  0.70117190  1
  Zn  Zn122  1  0.06155212  0.07010883  0.31365939  1
  Zn  Zn123  1  0.07159328  0.06764272  0.80148571  1
  Zn  Zn124  1  0.05141506  0.56795861  0.32671824  1
  Zn  Zn125  1  0.05331752  0.55997676  0.79377367  1
  Zn  Zn126  1  0.56502108  0.14797602  0.32527882  1
  Zn  Zn127  1  0.55895980  0.05787723  0.81025593  1
  Zn  Zn128  1  0.56493528  0.56653842  0.30687735  1
  Zn  Zn129  1  0.55879729  0.55783863  0.82506891  1
  Zn  Zn130  1  0.44507286  0.31405316  0.43321287  1
  Zn  Zn131  1  0.43318856  0.18988292  0.94012103  1
  Zn  Zn132  1  0.45259704  0.68506504  0.42579570  1
  Zn  Zn133  1  0.43788949  0.68897721  0.94372478  1
  Zn  Zn134  1  0.93229823  0.18344624  0.44220399  1
  Zn  Zn135  1  0.93001225  0.20467839  0.92817278  1
  Zn  Zn136  1  0.94010468  0.67996673  0.43898455  1
  Zn  Zn137  1  0.94082952  0.67036172  0.93805652  1
  Zn  Zn138  1  0.05674383  0.31903179  0.06138327  1
  Zn  Zn139  1  0.05151832  0.32354319  0.56401111  1
  Zn  Zn140  1  0.05927311  0.81414535  0.05744185  1
  Zn  Zn141  1  0.06495987  0.80585821  0.57976644  1
  Zn  Zn142  1  0.56736406  0.30866050  0.06089422  1
  Zn  Zn143  1  0.56984523  0.33642583  0.56229865  1
  Zn  Zn144  1  0.56278324  0.80959069  0.06854269  1
  Zn  Zn145  1  0.57550084  0.81183546  0.56756665  1
  O  O146  1  0.11139158  0.12103493  0.11590395  1
  O  O147  1  0.14875052  0.12324382  0.60488386  1
  O  O148  1  0.11490766  0.62161231  0.14094665  1
  O  O149  1  0.17122919  0.58517238  0.62600008  1
  O  O150  1  0.61632575  0.12029373  0.11494100  1
  O  O151  1  0.61954122  0.11040850  0.62943807  1
  O  O152  1  0.61895748  0.61923626  0.11898263  1
  O  O153  1  0.63952590  0.62617410  0.61038023  1
  O  O154  1  0.37824750  0.39225460  0.36620407  1
  O  O155  1  0.37465851  0.37255012  0.89359752  1
  O  O156  1  0.37821068  0.89316966  0.34778555  1
  O  O157  1  0.39570835  0.86251102  0.89640806  1
  O  O158  1  0.85299701  0.36672042  0.40081046  1
  O  O159  1  0.85773124  0.30661841  0.91388946  1
  O  O160  1  0.87329534  0.88745036  0.36783127  1
  O  O161  1  0.88736493  0.88777992  0.87791702  1
  O  O162  1  0.23966811  0.00267260  0.34943536  1
  O  O163  1  0.24690482  0.01477650  0.87038378  1
  O  O164  1  0.26582943  0.51666590  0.37172589  1
  O  O165  1  0.27978457  0.50629836  0.89197372  1
  O  O166  1  0.74824417  0.00841807  0.36720694  1
  O  O167  1  0.75032877  0.00118119  0.86717132  1
  O  O168  1  0.74771846  0.50908527  0.35605762  1
  O  O169  1  0.75131594  0.49033610  0.86492962  1
  O  O170  1  0.24439527  0.47826712  0.15318775  1
  O  O171  1  0.23378670  0.54073074  0.62785213  1
  O  O172  1  0.23729751  1.00149746  0.13199575  1
  O  O173  1  0.23034647  0.94469879  0.64255023  1
  O  O174  1  0.73975026  0.50679838  0.13441581  1
  O  O175  1  0.74367454  0.48461489  0.64323998  1
  O  O176  1  0.74525626  0.99321925  0.12906367  1
  O  O177  1  0.75899733  0.98546108  0.64126093  1
  O  O178  1  -0.02311587  0.36100645  0.24974162  1
  O  O179  1  0.01784937  0.35969868  0.74562063  1
  O  O180  1  0.00977482  0.86570642  0.23929041  1
  O  O181  1  0.00088932  0.86981792  0.77094167  1
  O  O182  1  0.52174997  0.37647217  0.25675246  1
  O  O183  1  0.51198418  0.37819668  0.75113344  1
  O  O184  1  0.50393551  0.86270962  0.22799114  1
  O  O185  1  0.50376538  0.86823855  0.77237667  1
  O  O186  1  0.49575725  0.12177445  0.23613911  1
  O  O187  1  0.47290463  0.10666935  0.76130538  1
  O  O188  1  0.49242516  0.63560442  0.24051780  1
  O  O189  1  0.51501103  0.63811829  0.75015687  1
  O  O190  1  0.98628687  0.13234236  0.24176985  1
  O  O191  1  1.01373399  0.14753759  0.74669937  1
  O  O192  1  0.99154848  0.63091861  0.24255476  1
  O  O193  1  0.97173355  0.61649976  0.73798128  1
  O  O194  1  0.36946691  0.26172037  0.00595790  1
  O  O195  1  0.37395592  0.22521077  0.45290513  1
  O  O196  1  0.37541033  0.75811168  0.01915887  1
  O  O197  1  0.41597934  0.75997792  0.50559404  1
  O  O198  1  0.86519376  0.21987574  0.02439550  1
  O  O199  1  0.87734040  0.25660589  0.51994245  1
  O  O200  1  0.86602063  0.74286482  0.01064336  1
  O  O201  1  0.87268386  0.74167925  0.50863246  1
  O  O202  1  0.11084098  0.24330793  0.50612285  1
  O  O203  1  0.12711633  0.24614861  0.99480336  1
  O  O204  1  0.10738187  0.76053799  0.47777465  1
  O  O205  1  0.13665590  0.74184048  1.01927416  1
  O  O206  1  0.61703238  0.23295433  0.53412300  1
  O  O207  1  0.63516671  0.24118560  0.98913650  1
  O  O208  1  0.62386720  0.73555660  0.49937934  1
  O  O209  1  0.63388470  0.74020058  0.99949388  1
  O  O210  1  0.49674041  0.23330101  0.11583889  1
  O  O211  1  0.43555301  0.30153768  0.61253951  1
  O  O212  1  0.49343617  0.73880464  0.13104732  1
  O  O213  1  0.50358507  0.76596471  0.64386174  1
  O  O214  1  0.98449265  0.24157398  0.12883471  1
  O  O215  1  0.98616353  0.25413213  0.63408867  1
  O  O216  1  0.99350680  0.74054585  0.13258535  1
  O  O217  1  0.97639210  0.75430245  0.62422101  1
  O  O218  1  -0.02318326  0.25000201  0.35861403  1
  O  O219  1  0.01694875  0.24854689  0.86693796  1
  O  O220  1  0.01229411  0.73807051  0.35850154  1
  O  O221  1  -0.00006315  0.75221064  0.88434726  1
  O  O222  1  0.52032336  0.25230438  0.36561488  1
  O  O223  1  0.51571904  0.24092620  0.88110361  1
  O  O224  1  0.49953059  0.75216916  0.34885963  1
  O  O225  1  0.51063984  0.75368820  0.87030867  1
  O  O226  1  0.23734336  0.15905818  0.47368744  1
  O  O227  1  0.23818226  0.13042331  0.99328689  1
  O  O228  1  0.25445152  0.63103665  0.48115113  1
  O  O229  1  0.25385829  0.62903665  1.02076252  1
  O  O230  1  0.75888140  0.11777816  0.50021705  1
  O  O231  1  0.73734728  0.12551096  0.98948932  1
  O  O232  1  0.74510792  0.62001515  0.48186158  1
  O  O233  1  0.74364610  0.63328121  1.00369767  1
  O  O234  1  0.24795402  0.36277601  0.00321325  1
  O  O235  1  0.23451501  0.33387667  0.43547778  1
  O  O236  1  0.25993045  0.88626597  0.01475680  1
  O  O237  1  0.24136355  0.86697348  0.50063553  1
  O  O238  1  0.74212071  0.36079269  -0.00152409  1
  O  O239  1  0.74858367  0.37556368  0.52397548  1
  O  O240  1  0.75455346  0.86465884  0.01098653  1
  O  O241  1  0.74778870  0.88066567  0.50697143  1
  O  O242  1  0.12234231  0.49339023  0.26173383  1
  O  O243  1  0.12189785  0.48137758  0.75449547  1
  O  O244  1  0.12649582  0.99906347  0.23917338  1
  O  O245  1  0.14830405  1.00268147  0.75480362  1
  O  O246  1  0.63926015  0.50487619  0.23792844  1
  O  O247  1  0.62982988  0.48438485  0.75886306  1
  O  O248  1  0.63577715  1.00934284  0.23570182  1
  O  O249  1  0.63643066  1.00098765  0.74108796  1
  O  O250  1  0.35332301  0.02465848  0.23741580  1
  O  O251  1  0.33664670  0.02035979  0.72912300  1
  O  O252  1  0.38293179  0.51413838  0.25305800  1
  O  O253  1  0.35954419  0.51903927  0.75109746  1
  O  O254  1  0.86478362  0.00476599  0.25619255  1
  O  O255  1  0.86125742  -0.00535223  0.76401456  1
  O  O256  1  0.86316663  0.51190148  0.23733229  1
  O  O257  1  0.86649402  0.49707333  0.74658491  1
  O  O258  1  0.13220840  0.42126153  0.30903651  1
  O  O259  1  0.13226703  0.36329374  0.87863834  1
  O  O260  1  0.13109841  0.86306518  0.35984182  1
  O  O261  1  0.11010870  0.87379295  0.88621617  1
  O  O262  1  0.65515710  0.36141692  0.36668482  1
  O  O263  1  0.62556062  0.35949460  0.86748314  1
  O  O264  1  0.58216565  0.89371414  0.40999060  1
  O  O265  1  0.61289917  0.86054855  0.89304092  1
  O  O266  1  0.39273296  0.13115346  0.10894147  1
  O  O267  1  0.37896593  0.15262022  0.63867943  1
  O  O268  1  0.38190885  0.62726934  0.13476130  1
  O  O269  1  0.40035935  0.64240309  0.61170929  1
  O  O270  1  0.88063089  0.11635161  0.13572272  1
  O  O271  1  0.86894803  0.13657085  0.62860232  1
  O  O272  1  0.87609047  0.63684741  0.13675432  1
  O  O273  1  0.85192314  0.64203712  0.63516942  1
  O  O274  1  0.26834275  0.23561429  0.11184938  1
  O  O275  1  0.24851815  0.26364371  0.59924912  1
  O  O276  1  0.25672388  0.76047427  0.12038772  1
  O  O277  1  0.28703805  0.74104597  0.60632089  1
  O  O278  1  0.75678810  0.24678357  0.11307423  1
  O  O279  1  0.76521666  0.25950194  0.64469402  1
  O  O280  1  0.75626617  0.75532167  0.12090431  1
  O  O281  1  0.74658805  0.76834329  0.62557123  1
  O  O282  1  0.34740800  0.21220659  0.37122954  1
  O  O283  1  0.23702322  0.24204490  0.88699496  1
  O  O284  1  0.23606547  0.74012611  0.36638618  1
  O  O285  1  0.25569197  0.75743635  0.91458599  1
  O  O286  1  0.75767257  0.21908896  0.37440063  1
  O  O287  1  0.73526472  0.23471840  0.87577967  1
  O  O288  1  0.74674193  0.73690478  0.36772085  1
  O  O289  1  0.74453279  0.75518706  0.88981744  1
  O  O290  1  0.00640641  0.12783772  0.00599338  1
  O  O291  1  0.00106264  0.12119209  0.51028592  1
  O  O292  1  0.00217922  0.61874341  0.02118870  1
  O  O293  1  0.00928007  0.61157628  0.49575849  1
  O  O294  1  0.51106014  0.11575955  -0.00182960  1
  O  O295  1  0.50191510  0.12835585  0.51133649  1
  O  O296  1  0.51161092  0.63138811  0.01271627  1
  O  O297  1  0.51969874  0.61812401  0.49087165  1
  O  O298  1  0.51812702  0.38242297  0.47805889  1
  O  O299  1  0.49760194  0.37081174  0.99643589  1
  O  O300  1  0.53248794  0.88021246  0.46516154  1
  O  O301  1  0.49430050  0.88182644  1.00831034  1
  O  O302  1  0.97920826  0.38118010  0.49344099  1
  O  O303  1  0.99864400  0.39508003  1.00051713  1
  O  O304  1  1.02082058  0.91984782  0.55622883  1
  O  O305  1  0.99443801  0.87962850  0.99070743  1
  O  O306  1  0.48444548  0.51316144  0.37000108  1
  O  O307  1  0.46824534  0.51112080  0.87442004  1
  O  O308  1  0.49181726  1.03636235  0.37382883  1
  O  O309  1  0.51218875  0.98271717  0.88978576  1
  O  O310  1  0.99278169  0.49705304  0.39205222  1
  O  O311  1  1.00734305  0.52481114  0.89158547  1
  O  O312  1  0.98920213  0.99633703  0.36352502  1
  O  O313  1  0.98813366  1.01220548  0.86842532  1
  O  O314  1  0.00478722  0.00920550  0.12447514  1
  O  O315  1  0.00352344  -0.03483103  0.61479425  1
  O  O316  1  0.00136472  0.51270025  0.12751221  1
  O  O317  1  -0.00276099  0.49214104  0.60210905  1
  O  O318  1  0.51031513  0.01363593  0.11560399  1
  O  O319  1  0.50672294  -0.01519603  0.63431642  1
  O  O320  1  0.51732850  0.50994410  0.13593736  1
  O  O321  1  0.51558860  0.47297166  0.61696223  1
  O  O322  1  0.24186032  0.33544833  0.24178520  1
  O  O323  1  0.23505637  0.36735562  0.75068306  1
  O  O324  1  0.23646309  0.88078586  0.23478149  1
  O  O325  1  0.26076612  0.87558187  0.78261574  1
  O  O326  1  0.76377118  0.39096348  0.24625018  1
  O  O327  1  0.75175151  0.38179030  0.74868952  1
  O  O328  1  0.75326446  0.88485003  0.23950342  1
  O  O329  1  0.74629476  0.88320879  0.75715880  1
  O  O330  1  0.23633073  0.12784849  0.24991906  1
  O  O331  1  0.25519536  0.14179586  0.76790865  1
  O  O332  1  0.26645970  0.62798721  0.25047526  1
  O  O333  1  0.25033318  0.67582056  0.76223733  1
  O  O334  1  0.75664590  0.11232605  0.24795536  1
  O  O335  1  0.74358408  0.11284937  0.76022290  1
  O  O336  1  0.75680673  0.62104493  0.25794165  1
  O  O337  1  0.75456871  0.60503131  0.75335313  1
  O  O338  1  0.42070348  0.05667105  0.38683127  1
  O  O339  1  0.35664008  0.12525324  0.88627739  1
  O  O340  1  0.36723772  0.62716767  0.36210325  1
  O  O341  1  0.36973528  0.63919396  0.87210194  1
  O  O342  1  0.86553533  0.10889845  0.36918156  1
  O  O343  1  0.86239145  0.11401226  0.87819658  1
  O  O344  1  0.86582544  0.63038372  0.36238196  1
  O  O345  1  0.86666811  0.63391080  0.85823752  1
  O  O346  1  0.12320620  0.37008840  0.13817064  1
  O  O347  1  0.12819369  0.37656187  0.62931479  1
  O  O348  1  0.12831568  0.88778431  0.12755900  1
  O  O349  1  0.15949966  0.80525770  0.63824231  1
  O  O350  1  0.62472762  0.38981340  0.11907905  1
  O  O351  1  0.64045048  0.36143097  0.64838102  1
  O  O352  1  0.63750431  0.88472162  0.11732079  1
  O  O353  1  0.63900380  0.89086330  0.62282782  1
  O  O354  1  0.09437879  0.24457933  0.24748934  1
  O  O355  1  0.12392432  0.25810382  0.76006151  1
  O  O356  1  0.11748914  0.76034211  0.25030845  1
  O  O357  1  0.12061114  0.65859844  0.77796767  1
  O  O358  1  0.62649050  0.23956903  0.25430533  1
  O  O359  1  0.62516099  0.25525146  0.76245336  1
  O  O360  1  0.61725659  0.75081018  0.23868216  1
  O  O361  1  0.62638611  0.74577133  0.76703750  1
  O  O362  1  0.37304629  0.23441818  0.22842333  1
  O  O363  1  0.37942458  0.23697641  0.77025874  1
  O  O364  1  0.37637713  0.74216965  0.23894697  1
  O  O365  1  0.39788918  0.74891297  0.74922963  1
  O  O366  1  0.87132810  0.23573975  0.23309313  1
  O  O367  1  0.89036734  0.25417059  0.74485160  1
  O  O368  1  0.88255033  0.74559888  0.24372884  1
  O  O369  1  0.86490773  0.74254530  0.74193565  1
  O  O370  1  0.37920410  0.50546679  0.48433157  1
  O  O371  1  0.37532311  0.47484891  1.02344366  1
  O  O372  1  0.33588222  1.02812992  0.54279184  1
  O  O373  1  0.38695242  0.99099612  1.00973153  1
  O  O374  1  0.86305288  0.48565915  0.50931247  1
  O  O375  1  0.89049138  0.50520451  1.00100613  1
  O  O376  1  0.87947675  0.99683133  0.48468995  1
  O  O377  1  0.87498657  0.99947795  0.98385062  1
  O  O378  1  0.12314167  0.01079168  0.00801016  1
  O  O379  1  0.13634955  0.01820832  0.49725032  1
  O  O380  1  0.11650660  0.49863184  0.00070966  1
  O  O381  1  0.11952100  0.48708423  0.49195757  1
  O  O382  1  0.62105493  0.00663191  0.00938745  1
  O  O383  1  0.62427081  0.01451426  0.52485137  1
  O  O384  1  0.63466003  0.51085581  0.01298633  1
  O  O385  1  0.62959424  0.51333462  0.50674216  1
  O  O386  1  0.39138627  0.35505284  0.12281182  1
  O  O387  1  0.38658020  0.35129970  0.63537910  1
  O  O388  1  0.36499638  0.86911816  0.12495070  1
  O  O389  1  0.36071334  0.86004865  0.62104878  1
  O  O390  1  0.87390497  0.35758302  0.11267535  1
  O  O391  1  0.86404259  0.36885215  0.62087714  1
  O  O392  1  0.86707983  0.86341630  0.12495045  1
  O  O393  1  0.85929301  0.86195085  0.62627249  1
  O  O394  1  0.10678784  0.13345579  0.39280008  1
  O  O395  1  0.13173560  0.13328330  0.88417532  1
  O  O396  1  0.13839984  0.63641951  0.36531261  1
  O  O397  1  0.19213682  0.64388814  0.81062239  1
  O  O398  1  0.63657429  0.11961637  0.40888008  1
  O  O399  1  0.62816585  0.12821862  0.87848330  1
  O  O400  1  0.63672104  0.62254324  0.37918868  1
  O  O401  1  0.63060665  0.63006287  0.88837510  1
