# generated using pymatgen
data_V73Zn73O256
_symmetry_space_group_name_H-M   'P 1'
_cell_length_a   17.02655276
_cell_length_b   16.93825789
_cell_length_c   17.09207034
_cell_angle_alpha   89.76255924
_cell_angle_beta   89.70578376
_cell_angle_gamma   89.29375390
_symmetry_Int_Tables_number   1
_chemical_formula_structural   V73Zn73O256
_chemical_formula_sum   'V73 Zn73 O256'
_cell_volume   4928.87499790
_cell_formula_units_Z   1
loop_
 _symmetry_equiv_pos_site_id
 _symmetry_equiv_pos_as_xyz
  1  'x, y, z'
loop_
 _atom_site_type_symbol
 _atom_site_label
 _atom_site_symmetry_multiplicity
 _atom_site_fract_x
 _atom_site_fract_y
 _atom_site_fract_z
 _atom_site_occupancy
  V  V0  1  0.62675205  0.87401040  0.25013639  1
  V  V1  1  0.00367258  0.36871754  0.86205676  1
  V  V2  1  0.74698072  0.36927127  0.12280702  1
  V  V3  1  0.49639209  0.50501855  -0.00498873  1
  V  V4  1  0.87457981  0.88119380  -0.00852352  1
  V  V5  1  0.09010705  0.62986177  0.51773360  1
  V  V6  1  0.75308068  0.00078440  0.24818028  1
  V  V7  1  0.29542500  0.00195542  0.74527283  1
  V  V8  1  0.60429730  0.51379473  0.63359089  1
  V  V9  1  0.50102629  0.87755813  0.87669620  1
  V  V10  1  0.87011279  0.49671843  0.86972016  1
  V  V11  1  0.75843260  0.74923737  0.49834088  1
  V  V12  1  0.24258427  -0.02483591  0.24804978  1
  V  V13  1  0.36302215  0.75081945  0.11843624  1
  V  V14  1  0.50543705  0.00767471  0.49984990  1
  V  V15  1  0.88721827  0.24243151  0.11436198  1
  V  V16  1  0.76158848  0.49351496  0.24909823  1
  V  V17  1  0.37138252  0.88286733  0.00732920  1
  V  V18  1  0.74119960  0.50470813  0.75007394  1
  V  V19  1  0.87923918  0.63788027  0.74186174  1
  V  V20  1  0.09976891  0.13217466  0.00028139  1
  V  V21  1  0.62319717  0.75864213  0.86723240  1
  V  V22  1  0.37538593  0.01008932  0.36636258  1
  V  V23  1  0.62348299  0.36696333  0.26281124  1
  V  V24  1  0.12951676  0.36988915  0.22016243  1
  V  V25  1  0.00423280  0.24854071  0.26116789  1
  V  V26  1  0.40523156  0.37468004  0.50301621  1
  V  V27  1  0.49621723  0.87531806  0.37221777  1
  V  V28  1  0.72396982  0.12837235  0.87717258  1
  V  V29  1  0.73377953  0.13013124  0.37699073  1
  V  V30  1  0.49406804  0.25195700  0.26282158  1
  V  V31  1  0.62652694  0.49811764  0.12468417  1
  V  V32  1  0.62519358  0.01159021  0.12394576  1
  V  V33  1  0.36515341  0.87810604  0.50331125  1
  V  V34  1  0.86601326  0.37145972  -0.00846890  1
  V  V35  1  0.50189760  0.00423082  0.00388972  1
  V  V36  1  0.75344656  0.75225118  0.00281695  1
  V  V37  1  0.25935766  0.51020523  0.75460508  1
  V  V38  1  0.87689828  0.00529068  0.37061398  1
  V  V39  1  0.61899325  0.01296436  0.62236191  1
  V  V40  1  0.12744011  0.10977379  0.50552752  1
  V  V41  1  0.00208862  0.48944186  0.01014018  1
  V  V42  1  0.87466852  0.00582467  0.87127427  1
  V  V43  1  0.11398562  0.50904144  0.63569087  1
  V  V44  1  0.74520058  0.87159688  0.63119215  1
  V  V45  1  0.00216026  0.86823921  0.36270442  1
  V  V46  1  0.87547852  0.87419625  0.50164529  1
  V  V47  1  0.75251150  0.87090880  0.12449344  1
  V  V48  1  0.24699140  0.13342741  0.37057752  1
  V  V49  1  0.11860608  -0.00284591  0.64374334  1
  V  V50  1  0.29341914  0.12606051  0.87529961  1
  V  V51  1  0.11762120  0.74512151  0.37858593  1
  V  V52  1  0.22612643  0.26139747  0.50427084  1
  V  V53  1  0.72733550  0.24560515  -0.00439945  1
  V  V54  1  0.49827634  0.24118896  0.74910371  1
  V  V55  1  0.49938874  0.74772110  0.24036503  1
  V  V56  1  0.36896760  0.36578311  0.00477334  1
  V  V57  1  0.38993687  0.65647605  0.74910885  1
  V  V58  1  0.12819960  0.76380293  0.84913989  1
  V  V59  1  0.14853369  0.36092857  0.74434890  1
  V  V60  1  0.49250395  0.37701752  0.87395136  1
  V  V61  1  0.26197320  0.73257291  0.50739714  1
  V  V62  1  0.49669629  0.51566987  0.47923840  1
  V  V63  1  0.75414757  0.61403420  0.37618419  1
  V  V64  1  0.74169932  0.00931847  0.74833819  1
  V  V65  1  0.74774718  0.37168281  0.62152302  1
  V  V66  1  0.38974714  0.24263613  0.61774991  1
  V  V67  1  -0.03426098  0.23933730  0.74698264  1
  V  V68  1  0.88636506  0.63270274  0.24676318  1
  V  V69  1  0.74826462  0.62752592  0.87778749  1
  V  V70  1  0.48721320  0.13469256  0.12692122  1
  V  V71  1  0.61952745  0.63240352  0.50404353  1
  V  V72  1  0.61737140  0.37608050  0.75757845  1
  Zn  Zn73  1  0.62455321  0.62908255  0.00563883  1
  Zn  Zn74  1  0.62752330  0.74984566  0.37372411  1
  Zn  Zn75  1  0.25045550  0.86774697  0.64872723  1
  Zn  Zn76  1  0.89048354  0.11558688  0.23448625  1
  Zn  Zn77  1  0.50111332  0.62036097  0.13478256  1
  Zn  Zn78  1  -0.00549652  0.00491409  0.50382644  1
  Zn  Zn79  1  0.89206385  0.39112947  0.49416538  1
  Zn  Zn80  1  0.25105620  0.62740160  -0.12197063  1
  Zn  Zn81  1  0.34799777  0.25805021  0.14984906  1
  Zn  Zn82  1  0.16820240  0.17449631  0.18096360  1
  Zn  Zn83  1  0.20769090  0.17458167  0.68339662  1
  Zn  Zn84  1  0.21142978  0.71339379  0.01310610  1
  Zn  Zn85  1  0.19499856  0.68571765  0.68326713  1
  Zn  Zn86  1  0.68758377  0.18922800  0.19192915  1
  Zn  Zn87  1  0.67865590  0.18993615  0.68301350  1
  Zn  Zn88  1  0.69353141  0.68300828  0.18755278  1
  Zn  Zn89  1  0.68520284  0.69129546  0.68716556  1
  Zn  Zn90  1  0.30931806  0.32651600  0.32662621  1
  Zn  Zn91  1  0.32037334  0.30953061  0.81519656  1
  Zn  Zn92  1  0.30783749  0.78917324  0.31817603  1
  Zn  Zn93  1  0.30820190  0.81219056  0.82955787  1
  Zn  Zn94  1  0.83054648  0.29904491  0.31253051  1
  Zn  Zn95  1  0.79920083  0.30792831  0.80814305  1
  Zn  Zn96  1  0.81879626  0.80530455  0.31797663  1
  Zn  Zn97  1  0.80977025  0.81558868  0.81327220  1
  Zn  Zn98  1  0.17303619  0.45304416  0.44130625  1
  Zn  Zn99  1  0.21012561  0.48372430  0.96584338  1
  Zn  Zn100  1  0.18580306  0.93822710  0.42427594  1
  Zn  Zn101  1  0.21179154  0.94700470  0.91228981  1
  Zn  Zn102  1  0.73140750  0.40227485  0.41717450  1
  Zn  Zn103  1  0.68157344  0.43739054  0.93723360  1
  Zn  Zn104  1  0.68746184  0.93945653  0.43447411  1
  Zn  Zn105  1  0.68492308  0.94159947  0.93946218  1
  Zn  Zn106  1  0.27731562  0.09776376  0.08373575  1
  Zn  Zn107  1  0.31354128  0.06164081  0.56383866  1
  Zn  Zn108  1  0.33487272  0.57970869  0.05101620  1
  Zn  Zn109  1  0.31952279  0.55702700  0.58361341  1
  Zn  Zn110  1  0.80586977  0.06508973  0.05585180  1
  Zn  Zn111  1  0.79893070  0.05674865  0.55012689  1
  Zn  Zn112  1  0.86099245  0.59441344  0.04053586  1
  Zn  Zn113  1  0.80598900  0.55912253  0.56888695  1
  Zn  Zn114  1  0.44112771  0.42959029  0.18191936  1
  Zn  Zn115  1  0.42761649  0.42931794  0.68389662  1
  Zn  Zn116  1  0.43468154  0.93931384  0.18358516  1
  Zn  Zn117  1  0.45391965  0.90042001  0.67705988  1
  Zn  Zn118  1  0.97889976  0.46942949  0.22099300  1
  Zn  Zn119  1  0.92793461  0.43789838  0.68433533  1
  Zn  Zn120  1  0.93375366  0.91958914  0.18578875  1
  Zn  Zn121  1  0.92601453  0.95026142  0.68213913  1
  Zn  Zn122  1  0.06402622  0.06312037  0.31361230  1
  Zn  Zn123  1  0.05702099  0.06321179  0.81715569  1
  Zn  Zn124  1  0.09324101  0.55950483  0.31141000  1
  Zn  Zn125  1  0.06363989  0.56934008  0.80926474  1
  Zn  Zn126  1  0.55917658  0.06440775  0.30559042  1
  Zn  Zn127  1  0.55251466  0.05455506  0.80845314  1
  Zn  Zn128  1  0.57429607  0.56166126  0.31276763  1
  Zn  Zn129  1  0.55679763  0.57250125  0.81792307  1
  Zn  Zn130  1  0.52948403  0.20657597  0.46111253  1
  Zn  Zn131  1  0.45382502  0.19053534  0.93967395  1
  Zn  Zn132  1  0.43046331  0.68953856  0.42246794  1
  Zn  Zn133  1  0.43345844  0.69190686  0.93000765  1
  Zn  Zn134  1  0.97754251  0.22442599  0.46815065  1
  Zn  Zn135  1  0.92496770  0.18413739  0.92720660  1
  Zn  Zn136  1  0.93279765  0.56790915  0.43873068  1
  Zn  Zn137  1  1.03942005  0.67144816  0.95397176  1
  Zn  Zn138  1  0.19901502  0.29231090  0.04098434  1
  Zn  Zn139  1  0.05890314  0.31671893  0.58738865  1
  Zn  Zn140  1  0.07575202  0.84509036  -0.01819495  1
  Zn  Zn141  1  0.06741029  0.82510014  0.56520621  1
  Zn  Zn142  1  0.55556288  0.31656353  0.06681744  1
  Zn  Zn143  1  0.57722386  0.32637771  0.56768758  1
  Zn  Zn144  1  0.57022499  0.81741749  0.05934117  1
  Zn  Zn145  1  0.56733510  0.81891940  0.55932139  1
  O  O146  1  0.12958096  0.10909233  0.09598327  1
  O  O147  1  0.13732370  0.10650347  0.61479187  1
  O  O148  1  0.06444548  0.67811381  0.14122438  1
  O  O149  1  0.11499478  0.62047726  0.63003551  1
  O  O150  1  0.61966214  0.11458186  0.13397231  1
  O  O151  1  0.62595829  0.11229537  0.61729624  1
  O  O152  1  0.62657844  0.61136737  0.12437148  1
  O  O153  1  0.62699211  0.62588208  0.61399692  1
  O  O154  1  0.35750077  0.37781094  0.41567575  1
  O  O155  1  0.38641988  0.37839562  0.88522315  1
  O  O156  1  0.38503459  0.88398777  0.38053824  1
  O  O157  1  0.39493416  0.86375521  0.89724783  1
  O  O158  1  0.83558336  0.36253014  0.40005053  1
  O  O159  1  0.85977271  0.38123262  0.87721684  1
  O  O160  1  0.88418392  0.87981069  0.38072209  1
  O  O161  1  0.85502175  0.88957599  0.88444902  1
  O  O162  1  0.26091844  0.00704128  0.36471512  1
  O  O163  1  0.28321559  0.00967862  0.85330578  1
  O  O164  1  0.18963251  0.51963346  0.35695215  1
  O  O165  1  0.23813886  0.50539494  0.85673301  1
  O  O166  1  0.75647614  -0.00004080  0.36276632  1
  O  O167  1  0.73940271  0.01022654  0.86457037  1
  O  O168  1  0.73688886  0.50750271  0.36021665  1
  O  O169  1  0.74750330  0.50726372  0.86915592  1
  O  O170  1  0.30469873  0.51550725  0.22156766  1
  O  O171  1  0.23504168  0.50617122  0.64512320  1
  O  O172  1  0.26379712  1.00785759  0.15494921  1
  O  O173  1  0.24944516  1.00183551  0.64207407  1
  O  O174  1  0.74015964  0.48422610  0.13206379  1
  O  O175  1  0.73075258  0.50058189  0.64098328  1
  O  O176  1  0.74296909  0.99337980  0.13083027  1
  O  O177  1  0.73952527  1.00142584  0.63029195  1
  O  O178  1  0.01073993  0.35401245  0.23610151  1
  O  O179  1  -0.01657560  0.36210757  0.75667088  1
  O  O180  1  -0.00076750  0.87279745  0.26365529  1
  O  O181  1  -0.01083729  0.84702215  0.71930908  1
  O  O182  1  0.51518074  0.36585287  0.24643169  1
  O  O183  1  0.50171549  0.37930165  0.75983002  1
  O  O184  1  0.50985056  0.87184856  0.25263018  1
  O  O185  1  0.49981306  0.88725265  0.78045400  1
  O  O186  1  0.50364227  0.14163966  0.23976255  1
  O  O187  1  0.50706888  0.14275096  0.75037626  1
  O  O188  1  0.51235015  0.64462641  0.25394793  1
  O  O189  1  0.49071158  0.64125723  0.76136511  1
  O  O190  1  1.00397158  0.13674082  0.24782250  1
  O  O191  1  0.99508307  0.14569847  0.77481289  1
  O  O192  1  0.98166255  0.59148285  0.26473079  1
  O  O193  1  0.97679242  0.61866912  0.75356506  1
  O  O194  1  0.38326961  0.26634631  -0.00404722  1
  O  O195  1  0.41726752  0.26609898  0.51149617  1
  O  O196  1  0.38796731  0.76239134  0.01403026  1
  O  O197  1  0.36437356  0.76527622  0.49526959  1
  O  O198  1  0.85759615  0.25361795  0.00056975  1
  O  O199  1  0.87434083  0.20364897  0.54695400  1
  O  O200  1  0.85627014  0.77049244  -0.00820258  1
  O  O201  1  0.85949613  0.75905802  0.50169734  1
  O  O202  1  0.12926477  0.23221936  0.51950496  1
  O  O203  1  0.12619250  0.22849756  0.98507058  1
  O  O204  1  0.11989374  0.73421197  0.51827365  1
  O  O205  1  0.10332617  0.74167120  1.01753632  1
  O  O206  1  0.61778151  0.24809659  0.50458501  1
  O  O207  1  0.62904139  0.25697958  1.00018725  1
  O  O208  1  0.63230647  0.74640615  0.49711354  1
  O  O209  1  0.63863037  0.74732625  0.99580564  1
  O  O210  1  0.49893597  0.24063532  0.13083604  1
  O  O211  1  0.49677754  0.26140671  0.63844433  1
  O  O212  1  0.51536200  0.75011966  0.13680195  1
  O  O213  1  0.50077959  0.80250608  0.64296006  1
  O  O214  1  0.98204531  0.24639175  0.10616470  1
  O  O215  1  1.00177034  0.24488622  0.65402832  1
  O  O216  1  1.02674125  0.73450108  0.16622228  1
  O  O217  1  0.99794198  0.79401316  0.66639675  1
  O  O218  1  -0.01089678  0.25025530  0.35799860  1
  O  O219  1  -0.02031080  0.26667207  0.86531918  1
  O  O220  1  0.00612282  0.76541611  0.37968483  1
  O  O221  1  0.02865731  0.75942112  0.87202925  1
  O  O222  1  0.50034348  0.24445695  0.35921098  1
  O  O223  1  0.49498205  0.26309016  0.85738636  1
  O  O224  1  0.50459728  0.76320052  0.35938058  1
  O  O225  1  0.51771824  0.76173556  0.88910922  1
  O  O226  1  0.24051041  0.12397666  0.49380018  1
  O  O227  1  0.27397116  0.10870925  0.97350865  1
  O  O228  1  0.26510744  0.63342601  0.50976811  1
  O  O229  1  0.24146170  0.59735167  0.99770554  1
  O  O230  1  0.74841313  0.12181497  0.47547818  1
  O  O231  1  0.73910597  0.13037180  0.98553866  1
  O  O232  1  0.74024348  0.63103825  0.49479667  1
  O  O233  1  0.76090560  0.63467912  0.99108859  1
  O  O234  1  0.26511998  0.38208615  -0.00532787  1
  O  O235  1  0.21308620  0.36047294  0.49273004  1
  O  O236  1  0.27342864  0.89002532  -0.00403826  1
  O  O237  1  0.26566166  0.88770840  0.49095109  1
  O  O238  1  0.74849543  0.36641944  0.00175304  1
  O  O239  1  0.72073320  0.38946421  0.52753620  1
  O  O240  1  0.74662829  0.87180954  0.01035292  1
  O  O241  1  0.75706134  0.86881812  0.49721787  1
  O  O242  1  0.10004511  0.47163253  0.23121532  1
  O  O243  1  0.13094166  0.49715857  0.74498894  1
  O  O244  1  0.14480009  0.99641380  0.26382312  1
  O  O245  1  0.11900694  1.00188298  0.74228322  1
  O  O246  1  0.62898803  0.48750787  0.24054973  1
  O  O247  1  0.62554095  0.50280945  0.75175205  1
  O  O248  1  0.63251738  0.99058543  0.24322268  1
  O  O249  1  0.62514298  1.00168159  0.73039057  1
  O  O250  1  0.37315088  -0.00511702  0.26512836  1
  O  O251  1  0.39201813  -0.00353142  0.72496284  1
  O  O252  1  0.36713106  0.47112732  0.26010712  1
  O  O253  1  0.35842919  0.49237332  0.74864730  1
  O  O254  1  0.86879922  -0.00571876  0.25060211  1
  O  O255  1  0.85408877  -0.00428586  0.75981517  1
  O  O256  1  0.86073692  0.48445588  0.24735085  1
  O  O257  1  0.85585502  0.50126981  0.75590261  1
  O  O258  1  0.04868301  0.42982944  0.41603839  1
  O  O259  1  0.10439140  0.37101873  0.84890361  1
  O  O260  1  0.10702027  0.86588125  0.38822900  1
  O  O261  1  0.13580072  0.86743477  0.88725092  1
  O  O262  1  0.63316926  0.37563741  0.35955347  1
  O  O263  1  0.61238716  0.38162831  0.86431644  1
  O  O264  1  0.61633489  0.87896843  0.36379200  1
  O  O265  1  0.62033409  0.86478682  0.88247420  1
  O  O266  1  0.38888554  0.12892292  0.13160382  1
  O  O267  1  0.38379828  0.14378751  0.61093926  1
  O  O268  1  0.38758716  0.64439042  0.12335433  1
  O  O269  1  0.37578282  0.62552031  0.65317915  1
  O  O270  1  0.86389250  0.13810651  0.12018011  1
  O  O271  1  0.87461591  0.14438334  0.59331085  1
  O  O272  1  0.87308576  0.61781778  0.14842413  1
  O  O273  1  0.85720144  0.62310174  0.64525498  1
  O  O274  1  0.25342328  0.21565040  0.11289672  1
  O  O275  1  0.27129007  0.24629832  0.59905035  1
  O  O276  1  0.26524176  0.74625404  0.11302087  1
  O  O277  1  0.24479653  0.75911496  0.60686775  1
  O  O278  1  0.74473920  0.25596103  0.11487319  1
  O  O279  1  0.73725937  0.27270867  0.63542303  1
  O  O280  1  0.74411594  0.76136414  0.11832979  1
  O  O281  1  0.74100024  0.76696797  0.61704327  1
  O  O282  1  0.26002511  0.23820251  0.40075701  1
  O  O283  1  0.26624617  0.22557735  0.86446985  1
  O  O284  1  0.22225223  0.76248797  0.41158433  1
  O  O285  1  0.23418463  0.74703963  0.89459658  1
  O  O286  1  0.75049206  0.22483770  0.34839738  1
  O  O287  1  0.74322724  0.23504024  0.87952339  1
  O  O288  1  0.74811613  0.73922625  0.38296126  1
  O  O289  1  0.73931125  0.74690328  0.88266561  1
  O  O290  1  -0.00046427  0.12727839  -0.00955614  1
  O  O291  1  0.02302445  0.12267801  0.49252702  1
  O  O292  1  -0.02839386  0.59321004  -0.00440258  1
  O  O293  1  -0.00742365  0.62695354  0.51884751  1
  O  O294  1  0.50066385  0.11976013  0.01835310  1
  O  O295  1  0.49312253  0.10492514  0.49161174  1
  O  O296  1  0.49873973  0.61135677  -0.00069073  1
  O  O297  1  0.50391932  0.62672268  0.48613883  1
  O  O298  1  0.50732668  0.39917431  0.49949008  1
  O  O299  1  0.49505325  0.38297350  0.99224172  1
  O  O300  1  0.49336342  0.88269898  0.48540629  1
  O  O301  1  0.50081095  0.88600476  0.99996085  1
  O  O302  1  0.98289317  0.32803960  0.50861192  1
  O  O303  1  0.97972389  0.38110199  0.97396434  1
  O  O304  1  0.98429787  0.87693922  0.50182729  1
  O  O305  1  0.97198094  0.88145055  0.99905821  1
  O  O306  1  0.49865092  0.50781807  0.38143051  1
  O  O307  1  0.50556819  0.49536791  0.89110669  1
  O  O308  1  0.49133484  0.99660799  0.37662020  1
  O  O309  1  0.51357223  0.98860099  0.89265241  1
  O  O310  1  1.01101326  0.48887089  0.38090664  1
  O  O311  1  0.98140990  0.48402974  0.86355636  1
  O  O312  1  0.99213657  0.98910746  0.37671070  1
  O  O313  1  0.97241212  0.99880623  0.86378283  1
  O  O314  1  0.03577107  -0.03341594  0.12313090  1
  O  O315  1  0.01289526  -0.00285645  0.62374427  1
  O  O316  1  -0.01596360  0.47676728  0.10518110  1
  O  O317  1  0.01481159  0.49374643  0.63645464  1
  O  O318  1  0.50675898  0.01277358  0.12663024  1
  O  O319  1  0.51212351  -0.00807849  0.60863130  1
  O  O320  1  0.50964866  0.49940920  0.11754426  1
  O  O321  1  0.50561504  0.50521723  0.63935122  1
  O  O322  1  0.21389231  0.36122026  0.27602133  1
  O  O323  1  0.24644491  0.38338318  0.75861926  1
  O  O324  1  0.25795815  0.87557353  0.26137013  1
  O  O325  1  0.26845913  0.89675597  0.75777357  1
  O  O326  1  0.73826553  0.37404152  0.23898906  1
  O  O327  1  0.73466744  0.38700813  0.74868165  1
  O  O328  1  0.74714406  0.87959452  0.24422229  1
  O  O329  1  0.74795222  0.88365598  0.73401805  1
  O  O330  1  0.24100771  0.13959937  0.27229277  1
  O  O331  1  0.26618188  0.11037276  0.75582708  1
  O  O332  1  0.27518420  0.56913773  0.26336768  1
  O  O333  1  0.25935650  0.61919940  0.75307755  1
  O  O334  1  0.75084443  0.10679815  0.24892701  1
  O  O335  1  0.73433704  0.11842647  0.76021165  1
  O  O336  1  0.75801283  0.61447558  0.25691202  1
  O  O337  1  0.74513131  0.61912046  0.76055146  1
  O  O338  1  0.36164291  0.11041299  0.37815934  1
  O  O339  1  0.39387897  0.12588321  0.86991141  1
  O  O340  1  0.34747009  0.68920180  0.35179286  1
  O  O341  1  0.36811966  0.63628186  0.85956978  1
  O  O342  1  0.86587895  0.10648131  0.36218182  1
  O  O343  1  0.85252507  0.10886388  0.87733000  1
  O  O344  1  0.85989176  0.61763035  0.36420160  1
  O  O345  1  0.85710749  0.61100260  0.86186265  1
  O  O346  1  0.15342402  0.36168188  0.12461443  1
  O  O347  1  0.12685680  0.38774096  0.64319783  1
  O  O348  1  0.09126119  0.92028803  0.10443773  1
  O  O349  1  0.13870209  0.89598819  0.61861119  1
  O  O350  1  0.63100709  0.38141667  0.12665344  1
  O  O351  1  0.62318476  0.39568844  0.64498591  1
  O  O352  1  0.63389161  0.88523358  0.13531451  1
  O  O353  1  0.64498497  0.89394419  0.60948657  1
  O  O354  1  0.10881052  0.25117727  0.24018744  1
  O  O355  1  0.14915650  0.26179816  0.73469196  1
  O  O356  1  0.13712362  0.73106786  0.28668011  1
  O  O357  1  0.14486140  0.76530431  0.75098947  1
  O  O358  1  0.61548200  0.26181333  0.24565497  1
  O  O359  1  0.60792970  0.26584586  0.74233989  1
  O  O360  1  0.62413588  0.76219756  0.25026473  1
  O  O361  1  0.63029696  0.75025132  0.76950168  1
  O  O362  1  0.38920198  0.27255217  0.25533459  1
  O  O363  1  0.38800396  0.26155859  0.72939488  1
  O  O364  1  0.39544216  0.76354540  0.22757905  1
  O  O365  1  0.36839325  0.75624677  0.74904835  1
  O  O366  1  0.88873350  0.24914798  0.22766735  1
  O  O367  1  0.86529831  0.24204975  0.74423432  1
  O  O368  1  0.88256039  0.73327626  0.25548973  1
  O  O369  1  0.86312219  0.73691101  0.75600399  1
  O  O370  1  0.39743471  0.50006706  0.51339715  1
  O  O371  1  0.39301776  0.48871303  1.01040397  1
  O  O372  1  0.38505203  0.99296075  0.48911321  1
  O  O373  1  0.39529092  0.98738756  1.01179153  1
  O  O374  1  0.86776029  0.50102681  0.49822978  1
  O  O375  1  0.86648647  0.48554204  0.98513679  1
  O  O376  1  0.87332002  0.99208251  0.48697230  1
  O  O377  1  0.85672137  0.99145169  0.98400977  1
  O  O378  1  0.13123645  0.02915565  -0.04814619  1
  O  O379  1  0.12573385  0.00489966  0.50216168  1
  O  O380  1  0.09973067  0.48844322  -0.00708849  1
  O  O381  1  0.12730261  0.52336317  0.52436822  1
  O  O382  1  0.61601815  -0.00509173  0.01661515  1
  O  O383  1  0.61235709  -0.00211181  0.50110721  1
  O  O384  1  0.61500898  0.50053224  0.00922640  1
  O  O385  1  0.60270807  0.51874900  0.51440957  1
  O  O386  1  0.37824614  0.36679193  0.10967008  1
  O  O387  1  0.37090352  0.37007687  0.60381029  1
  O  O388  1  0.38198746  0.86535668  0.11500235  1
  O  O389  1  0.36626336  0.88347028  0.60361948  1
  O  O390  1  0.85826758  0.35797166  0.10636205  1
  O  O391  1  0.85008255  0.38647431  0.62006825  1
  O  O392  1  0.86000293  0.88498871  0.10894242  1
  O  O393  1  0.85366122  0.89082563  0.61096581  1
  O  O394  1  0.14112734  0.11799510  0.38987655  1
  O  O395  1  0.13669584  0.09505836  0.89438594  1
  O  O396  1  0.10364308  0.63866807  0.40775551  1
  O  O397  1  0.12508540  0.64305752  0.86993680  1
  O  O398  1  0.63328745  0.11811909  0.36828886  1
  O  O399  1  0.62586743  0.12183062  0.87393010  1
  O  O400  1  0.63519096  0.62796581  0.38620017  1
  O  O401  1  0.63444690  0.63591107  0.88351242  1
