# generated using pymatgen
data_V73Zn73O256
_symmetry_space_group_name_H-M   'P 1'
_cell_length_a   16.86390241
_cell_length_b   16.89707939
_cell_length_c   16.88216573
_cell_angle_alpha   90.04323923
_cell_angle_beta   89.95796832
_cell_angle_gamma   89.90457376
_symmetry_Int_Tables_number   1
_chemical_formula_structural   V73Zn73O256
_chemical_formula_sum   'V73 Zn73 O256'
_cell_volume   4810.57556454
_cell_formula_units_Z   1
loop_
 _symmetry_equiv_pos_site_id
 _symmetry_equiv_pos_as_xyz
  1  'x, y, z'
loop_
 _atom_site_type_symbol
 _atom_site_label
 _atom_site_symmetry_multiplicity
 _atom_site_fract_x
 _atom_site_fract_y
 _atom_site_fract_z
 _atom_site_occupancy
  V  V0  1  0.00616096  0.61789573  0.12214728  1
  V  V1  1  0.61490323  0.26554520  0.86800544  1
  V  V2  1  0.49790704  0.13947324  0.13107712  1
  V  V3  1  -0.00986408  0.37688994  0.85868000  1
  V  V4  1  0.10943192  0.62007964  0.50199657  1
  V  V5  1  0.74984218  0.39498433  0.64978198  1
  V  V6  1  0.25025635  0.24057345  0.49951726  1
  V  V7  1  0.27082201  0.49722654  0.25964469  1
  V  V8  1  0.72555119  0.61311908  0.88710134  1
  V  V9  1  0.73385240  0.12588319  0.39129064  1
  V  V10  1  0.36189243  -0.00324141  0.35873739  1
  V  V11  1  0.87559238  0.13067898  0.23960713  1
  V  V12  1  0.12691715  0.24657428  0.37248992  1
  V  V13  1  0.36900858  0.14464524  0.24958303  1
  V  V14  1  0.74801921  -0.00001214  0.25036617  1
  V  V15  1  0.36682008  0.38582378  0.49378662  1
  V  V16  1  0.12814254  0.64657047  -0.00625499  1
  V  V17  1  0.51000325  0.35410206  0.39127915  1
  V  V18  1  0.38042018  0.74126854  0.12179553  1
  V  V19  1  0.37125753  0.61545250  0.73959556  1
  V  V20  1  0.49692019  -0.00612943  -0.00690122  1
  V  V21  1  0.73754113  0.27394125  0.50458201  1
  V  V22  1  0.25340018  -0.00475749  0.74412159  1
  V  V23  1  0.24117210  0.74320408  0.50796763  1
  V  V24  1  0.24866547  0.13251620  0.87573022  1
  V  V25  1  0.13361352  0.50267399  0.63488176  1
  V  V26  1  0.12859293  0.38604653  0.23721184  1
  V  V27  1  0.11685459  0.74371341  0.36620930  1
  V  V28  1  0.50169582  -0.00542437  0.49204639  1
  V  V29  1  0.87584007  0.00785807  0.37796766  1
  V  V30  1  0.74251268  0.86768311  0.62362563  1
  V  V31  1  0.37930224  0.13240152  0.74622171  1
  V  V32  1  0.24870803  0.25895979  0.00272687  1
  V  V33  1  0.49596751  0.75292875  0.76415043  1
  V  V34  1  0.88217134  0.61996529  0.24951551  1
  V  V35  1  0.38377725  0.36606401  0.01536406  1
  V  V36  1  0.12595343  -0.00518583  0.62266018  1
  V  V37  1  0.87407832  0.87292644  0.50697393  1
  V  V38  1  0.37954890  0.48697877  0.88442290  1
  V  V39  1  0.37525422  0.25459435  0.62263115  1
  V  V40  1  0.00253642  0.37918265  0.39008924  1
  V  V41  1  0.62317633  0.75643892  0.36596092  1
  V  V42  1  0.12536466  0.25228475  0.86443801  1
  V  V43  1  0.02633683  0.11979497  0.12009039  1
  V  V44  1  -0.00467910  0.86801629  0.36930477  1
  V  V45  1  0.62263586  0.52095574  0.62613309  1
  V  V46  1  0.00082202  0.00483809  0.50245509  1
  V  V47  1  0.38152035  0.75759324  0.61978370  1
  V  V48  1  0.02131744  0.49040511  0.00209021  1
  V  V49  1  0.86564656  0.62103699  0.77805177  1
  V  V50  1  0.15603244  0.37662005  0.74389752  1
  V  V51  1  0.62408133  0.00094132  0.12822087  1
  V  V52  1  0.10663157  0.87313604  0.76385675  1
  V  V53  1  0.74955456  0.49930343  0.25474428  1
  V  V54  1  0.75937729  0.24678240  -0.00490905  1
  V  V55  1  0.13385029  0.88547568  0.24498066  1
  V  V56  1  0.75559760  0.87690903  0.12699270  1
  V  V57  1  0.61623886  0.87319361  0.76671539  1
  V  V58  1  -0.00702315  0.62934115  0.64512239  1
  V  V59  1  0.61161937  0.50298040  0.13054277  1
  V  V60  1  0.88184543  0.74737061  0.12756915  1
  V  V61  1  0.24685772  0.62817514  0.86915430  1
  V  V62  1  0.87949951  0.49510270  0.38548155  1
  V  V63  1  0.62354779  0.35414992  0.26110261  1
  V  V64  1  0.73150914  0.74630073  0.00048680  1
  V  V65  1  0.75777979  0.36546582  0.13210917  1
  V  V66  1  0.36278554  0.87724202  0.49216810  1
  V  V67  1  0.50809919  0.12400146  0.61852946  1
  V  V68  1  0.62552519  0.12987615  -0.00790538  1
  V  V69  1  0.50745246  0.51566405  0.48454102  1
  V  V70  1  0.87933635  0.87620608  -0.01717033  1
  V  V71  1  0.75237165  0.00378026  0.76323729  1
  V  V72  1  0.87677757  0.38448583  0.00450697  1
  Zn  Zn73  1  0.62730423  0.00283689  0.62243358  1
  Zn  Zn74  1  -0.00804915  0.25733070  0.24050717  1
  Zn  Zn75  1  0.87486763  0.25711080  0.63155350  1
  Zn  Zn76  1  0.12907438  0.11903374  0.49559176  1
  Zn  Zn77  1  0.88153834  0.75638514  0.64141461  1
  Zn  Zn78  1  0.38176638  0.00042835  0.87410205  1
  Zn  Zn79  1  0.89041849  0.12851051  0.76005360  1
  Zn  Zn80  1  0.00229618  0.13812045  0.63269149  1
  Zn  Zn81  1  -0.01451060  0.00520841  -0.00318883  1
  Zn  Zn82  1  0.19057945  0.19129036  0.19152005  1
  Zn  Zn83  1  0.18826921  0.18423344  0.68279554  1
  Zn  Zn84  1  0.18921484  0.67639827  0.18758788  1
  Zn  Zn85  1  0.18447038  0.69424677  0.68889099  1
  Zn  Zn86  1  0.69269111  0.18142442  0.18564420  1
  Zn  Zn87  1  0.72686336  0.20765308  0.71039968  1
  Zn  Zn88  1  0.69576772  0.67936080  0.18225406  1
  Zn  Zn89  1  0.68840177  0.68774164  0.69796461  1
  Zn  Zn90  1  0.30958094  0.32077912  0.31784229  1
  Zn  Zn91  1  0.45127256  0.31958162  0.79593796  1
  Zn  Zn92  1  0.30696817  0.79991805  0.31821820  1
  Zn  Zn93  1  0.30192765  0.80489315  0.80669429  1
  Zn  Zn94  1  0.81169374  0.30789971  0.32785514  1
  Zn  Zn95  1  0.80881456  0.31996146  0.81546400  1
  Zn  Zn96  1  0.82139111  0.81434997  0.30856355  1
  Zn  Zn97  1  0.80196978  0.80209611  0.81303545  1
  Zn  Zn98  1  0.18517056  0.44242100  0.43400557  1
  Zn  Zn99  1  0.19918742  0.43591512  0.92391566  1
  Zn  Zn100  1  0.18467628  0.93212686  0.42965484  1
  Zn  Zn101  1  0.19942387  0.93373490  0.92648903  1
  Zn  Zn102  1  0.68294629  0.44740267  0.43786615  1
  Zn  Zn103  1  0.67611032  0.43542683  0.94818652  1
  Zn  Zn104  1  0.69199006  0.94161190  0.44046768  1
  Zn  Zn105  1  0.68479380  0.93366914  0.94436737  1
  Zn  Zn106  1  0.31709414  0.07252349  0.06089393  1
  Zn  Zn107  1  0.31425903  0.06256212  0.56153031  1
  Zn  Zn108  1  0.30425832  0.55188290  0.06116371  1
  Zn  Zn109  1  0.31276594  0.56702752  0.55723173  1
  Zn  Zn110  1  0.81188005  0.06259942  0.05674634  1
  Zn  Zn111  1  0.81199198  0.06320882  0.57564959  1
  Zn  Zn112  1  0.80748858  0.55850202  0.06437761  1
  Zn  Zn113  1  0.80435398  0.57319964  0.56158062  1
  Zn  Zn114  1  0.43730411  0.39987864  0.19196175  1
  Zn  Zn115  1  0.44763989  0.44479015  0.66853641  1
  Zn  Zn116  1  0.44147028  0.93645727  0.17976747  1
  Zn  Zn117  1  0.43568007  0.93754854  0.68184582  1
  Zn  Zn118  1  0.94313952  0.43444142  0.18890200  1
  Zn  Zn119  1  0.93136851  0.45340972  0.67833183  1
  Zn  Zn120  1  0.94172860  0.94135090  0.18558264  1
  Zn  Zn121  1  0.93292278  0.94712473  0.69152546  1
  Zn  Zn122  1  0.06070231  0.06135100  0.31042940  1
  Zn  Zn123  1  0.06247811  0.06411788  0.80746443  1
  Zn  Zn124  1  0.06233756  0.56056599  0.31204361  1
  Zn  Zn125  1  0.06014566  0.55883129  0.81556446  1
  Zn  Zn126  1  0.55387289  0.06338564  0.31320692  1
  Zn  Zn127  1  0.56748324  0.06642070  0.80817011  1
  Zn  Zn128  1  0.48230505  0.52339913  0.27841904  1
  Zn  Zn129  1  0.55364445  0.56516738  0.81035958  1
  Zn  Zn130  1  0.43353572  0.17871654  0.43623482  1
  Zn  Zn131  1  0.43917117  0.18742441  0.93860935  1
  Zn  Zn132  1  0.44527669  0.66756032  0.37705029  1
  Zn  Zn133  1  0.43332424  0.67942489  0.93185815  1
  Zn  Zn134  1  0.94403174  0.21432783  0.47492738  1
  Zn  Zn135  1  0.95248278  0.19042903  0.94374108  1
  Zn  Zn136  1  0.91525354  0.67422333  0.45245942  1
  Zn  Zn137  1  0.93803032  0.69366350  0.94038402  1
  Zn  Zn138  1  0.06396415  0.30304508  0.05967544  1
  Zn  Zn139  1  0.06745221  0.31823094  0.56815505  1
  Zn  Zn140  1  0.05833823  0.81787393  0.05963169  1
  Zn  Zn141  1  0.05733352  0.81511870  0.56980162  1
  Zn  Zn142  1  0.57197933  0.31883144  0.06432030  1
  Zn  Zn143  1  0.56524686  0.32033838  0.60532959  1
  Zn  Zn144  1  0.55719255  0.82166975  0.08380286  1
  Zn  Zn145  1  0.55439333  0.81720263  0.56252009  1
  O  O146  1  0.12380115  0.11328818  0.13928222  1
  O  O147  1  0.12399393  0.11223146  0.61752313  1
  O  O148  1  0.11762143  0.63467082  0.10671069  1
  O  O149  1  0.11702608  0.62082964  0.62435731  1
  O  O150  1  0.61813270  0.11943391  0.11883749  1
  O  O151  1  0.60739965  0.12330853  0.62353236  1
  O  O152  1  0.62930186  0.60217024  0.13620015  1
  O  O153  1  0.64222861  0.62120097  0.61816201  1
  O  O154  1  0.39173575  0.36444325  0.38958179  1
  O  O155  1  0.38158600  0.38675941  0.86474684  1
  O  O156  1  0.37042829  0.88028021  0.38482511  1
  O  O157  1  0.35248400  0.87980930  0.89024785  1
  O  O158  1  0.89112020  0.38188349  0.37203256  1
  O  O159  1  0.88715434  0.36976012  0.88541468  1
  O  O160  1  0.87647355  0.88289721  0.38375999  1
  O  O161  1  0.86917467  0.86427372  0.88498700  1
  O  O162  1  0.26250628  -0.00172423  0.37371018  1
  O  O163  1  0.25292600  0.01785417  0.86229880  1
  O  O164  1  0.24850575  0.49874307  0.36055589  1
  O  O165  1  0.26861306  0.51119415  0.87173817  1
  O  O166  1  0.75549645  0.00369863  0.36756501  1
  O  O167  1  0.73869156  -0.00865837  0.86289030  1
  O  O168  1  0.76706037  0.49062983  0.36242881  1
  O  O169  1  0.74066204  0.51415080  0.89789089  1
  O  O170  1  0.25585194  0.50274724  0.14848178  1
  O  O171  1  0.23264689  0.51194075  0.62214732  1
  O  O172  1  0.23401771  0.98736341  0.08676861  1
  O  O173  1  0.24451596  1.00667368  0.63729266  1
  O  O174  1  0.74520137  0.48432290  0.13616529  1
  O  O175  1  0.74208165  0.50270550  0.62073243  1
  O  O176  1  0.74629485  0.99834235  0.13254735  1
  O  O177  1  0.74379179  0.98497273  0.63810056  1
  O  O178  1  0.01212579  0.37071478  0.25735792  1
  O  O179  1  -0.01261823  0.38051644  0.75942237  1
  O  O180  1  -0.00125479  0.87706401  0.26476327  1
  O  O181  1  0.00713376  0.88079482  0.74838551  1
  O  O182  1  0.51623745  0.36253689  0.26897851  1
  O  O183  1  0.50627174  0.35767823  0.70598988  1
  O  O184  1  0.51865995  0.85660531  0.19173377  1
  O  O185  1  0.50511764  0.86563492  0.74416794  1
  O  O186  1  0.49254769  0.12152269  0.23648701  1
  O  O187  1  0.48927109  0.11542703  0.73242134  1
  O  O188  1  0.49769205  0.63235346  0.28485660  1
  O  O189  1  0.48049745  0.64341636  0.75156730  1
  O  O190  1  0.98678653  0.12182761  0.24126259  1
  O  O191  1  1.00568904  0.13756709  0.74639026  1
  O  O192  1  0.99534074  0.61513914  0.23330175  1
  O  O193  1  0.99046964  0.62587842  0.75197314  1
  O  O194  1  0.36256409  0.25870894  -0.01011745  1
  O  O195  1  0.36224710  0.25191064  0.49986285  1
  O  O196  1  0.37306112  0.74305915  0.01678803  1
  O  O197  1  0.36138143  0.76023197  0.50772781  1
  O  O198  1  0.86405601  0.25363352  -0.00644940  1
  O  O199  1  0.83912856  0.23370414  0.51575696  1
  O  O200  1  0.86730898  0.75954575  0.01010644  1
  O  O201  1  0.88971370  0.77268803  0.51027324  1
  O  O202  1  0.13888951  0.25429814  0.49393568  1
  O  O203  1  0.13883298  0.26283158  0.97804266  1
  O  O204  1  0.12794086  0.74067612  0.50850979  1
  O  O205  1  0.12673184  0.74607331  0.99406591  1
  O  O206  1  0.63782596  0.25946228  0.51683983  1
  O  O207  1  0.63207427  0.24701888  0.99370068  1
  O  O208  1  0.61489253  0.76025474  0.47095512  1
  O  O209  1  0.63445751  0.75621765  1.02307062  1
  O  O210  1  0.50895066  0.23782632  0.12553463  1
  O  O211  1  0.48707919  0.23022726  0.60560631  1
  O  O212  1  0.48431099  0.73073653  0.11705503  1
  O  O213  1  0.48415412  0.74879483  0.62196190  1
  O  O214  1  1.00875075  0.22786307  0.12837460  1
  O  O215  1  0.98616647  0.24469801  0.58543648  1
  O  O216  1  0.98840836  0.73421304  0.11254403  1
  O  O217  1  1.00222938  0.73495398  0.63137650  1
  O  O218  1  0.01022396  0.26295934  0.38394666  1
  O  O219  1  0.01416457  0.26850334  0.87987302  1
  O  O220  1  0.00642993  0.75908257  0.38784865  1
  O  O221  1  0.02360262  0.73579126  0.88461845  1
  O  O222  1  0.50694089  0.25434606  0.39161658  1
  O  O223  1  0.50824843  0.24997192  0.87051123  1
  O  O224  1  0.51950006  0.76766451  0.36029761  1
  O  O225  1  0.48331833  0.75565124  0.86308448  1
  O  O226  1  0.25101867  0.13701389  0.49486710  1
  O  O227  1  0.25902073  0.13552398  0.98138418  1
  O  O228  1  0.23801354  0.63809938  0.50079751  1
  O  O229  1  0.23337667  0.61723584  0.99155834  1
  O  O230  1  0.74088052  0.10275384  0.48956377  1
  O  O231  1  0.74252304  0.13995366  1.00653741  1
  O  O232  1  0.80461670  0.65022203  0.48333113  1
  O  O233  1  0.74833086  0.63694528  1.00006955  1
  O  O234  1  0.26065147  0.36334171  -0.00962646  1
  O  O235  1  0.26329086  0.37195387  0.49071863  1
  O  O236  1  0.29953886  0.87796873  -0.04962156  1
  O  O237  1  0.25603354  0.86694974  0.49828992  1
  O  O238  1  0.75804792  0.36645092  0.01093532  1
  O  O239  1  0.75359157  0.37149405  0.48459973  1
  O  O240  1  0.75791327  0.86309912  0.00741209  1
  O  O241  1  0.75743220  0.88199328  0.51537870  1
  O  O242  1  0.12549576  0.48786127  0.24956848  1
  O  O243  1  0.12822482  0.49160029  0.74318604  1
  O  O244  1  0.12613777  0.98563588  0.25761667  1
  O  O245  1  0.13559462  0.99555181  0.74354134  1
  O  O246  1  0.64614815  0.48576916  0.25329536  1
  O  O247  1  0.60556892  0.51231856  0.72536852  1
  O  O248  1  0.63457622  1.00812331  0.24000639  1
  O  O249  1  0.61977715  0.98089349  0.74567100  1
  O  O250  1  0.37786327  -0.01473630  0.25814463  1
  O  O251  1  0.36591415  0.00669368  0.74888202  1
  O  O252  1  0.37442985  0.47796514  0.25882324  1
  O  O253  1  0.38089241  0.51507771  0.73625953  1
  O  O254  1  0.86813889  0.00992566  0.25746036  1
  O  O255  1  0.85610973  0.00494448  0.75368034  1
  O  O256  1  0.86917540  0.50182746  0.25076114  1
  O  O257  1  0.87292011  0.52365187  0.75171411  1
  O  O258  1  0.11557461  0.37044795  0.36943362  1
  O  O259  1  0.12388222  0.37315436  0.85344258  1
  O  O260  1  0.11283654  0.86332108  0.36585013  1
  O  O261  1  0.11629196  0.89514373  0.86479735  1
  O  O262  1  0.62156128  0.37127078  0.37016637  1
  O  O263  1  0.61925013  0.36548052  0.88024179  1
  O  O264  1  0.63338686  0.86165929  0.36487782  1
  O  O265  1  0.62043983  0.87178606  0.86514325  1
  O  O266  1  0.38803430  0.12585707  0.13458598  1
  O  O267  1  0.37590535  0.13322996  0.62992002  1
  O  O268  1  0.37217854  0.63663512  0.12430547  1
  O  O269  1  0.36497026  0.64011665  0.63394247  1
  O  O270  1  0.86516241  0.12687704  0.13952613  1
  O  O271  1  0.88040777  0.12614966  0.63684205  1
  O  O272  1  0.88236378  0.62741141  0.12782547  1
  O  O273  1  0.88859576  0.62577176  0.63153922  1
  O  O274  1  0.23887527  0.24303156  0.10053411  1
  O  O275  1  0.25725881  0.24931303  0.60856888  1
  O  O276  1  0.27412250  0.74211659  0.12911333  1
  O  O277  1  0.25447193  0.75124222  0.61291950  1
  O  O278  1  0.74318010  0.25877374  0.11334373  1
  O  O279  1  0.74092328  0.28443984  0.62240881  1
  O  O280  1  0.75910414  0.75610669  0.12132648  1
  O  O281  1  0.75323546  0.76503808  0.63471719  1
  O  O282  1  0.23653238  0.25630337  0.38533143  1
  O  O283  1  0.24338116  0.24040805  0.87503340  1
  O  O284  1  0.21927162  0.75742023  0.39435252  1
  O  O285  1  0.25745722  0.72849437  0.87787622  1
  O  O286  1  0.74794509  0.23308694  0.39174052  1
  O  O287  1  0.73874082  0.25928306  0.89337532  1
  O  O288  1  0.72880631  0.75524545  0.37118784  1
  O  O289  1  0.73899259  0.74386870  0.89591860  1
  O  O290  1  0.01547798  0.12328629  0.01402177  1
  O  O291  1  0.00189931  0.10874947  0.49069848  1
  O  O292  1  0.01659118  0.61076228  0.00044558  1
  O  O293  1  0.00760649  0.62817212  0.51410801  1
  O  O294  1  0.50762165  0.12257913  0.01216832  1
  O  O295  1  0.48609711  0.10540455  0.50851638  1
  O  O296  1  0.48058106  0.62179115  0.01061547  1
  O  O297  1  0.47861659  0.61166610  0.46900833  1
  O  O298  1  0.49732591  0.37943244  0.49478774  1
  O  O299  1  0.48396825  0.36382286  1.00630520  1
  O  O300  1  0.48036168  0.88607609  0.50450602  1
  O  O301  1  0.51028004  0.89497388  1.00584321  1
  O  O302  1  1.01048532  0.38514037  0.48855967  1
  O  O303  1  0.99292513  0.37729845  1.00156170  1
  O  O304  1  0.99568216  0.88661785  0.49399062  1
  O  O305  1  0.98491600  0.88253690  0.99924101  1
  O  O306  1  0.50271384  0.47853050  0.38364577  1
  O  O307  1  0.47739829  0.51203061  0.87369515  1
  O  O308  1  0.48701841  0.99974932  0.38649092  1
  O  O309  1  0.50191130  1.00799946  0.88757254  1
  O  O310  1  0.99260778  0.48770317  0.37023847  1
  O  O311  1  1.00726384  0.48034214  0.88531384  1
  O  O312  1  0.99143875  0.99111578  0.38093919  1
  O  O313  1  0.97353767  1.03602086  0.88173970  1
  O  O314  1  -0.00833513  0.01660202  0.11826068  1
  O  O315  1  0.00759245  0.00126490  0.61499421  1
  O  O316  1  -0.00245583  0.50827109  0.11339844  1
  O  O317  1  0.01464594  0.51906834  0.63211031  1
  O  O318  1  0.50920071  0.01034770  0.11622402  1
  O  O319  1  0.49676404  0.00727353  0.61286664  1
  O  O320  1  0.51362117  0.49052896  0.16653602  1
  O  O321  1  0.51184714  0.51053302  0.59801244  1
  O  O322  1  0.23750945  0.38230254  0.25314460  1
  O  O323  1  0.25082112  0.38119347  0.74377911  1
  O  O324  1  0.23301520  0.86287903  0.25847913  1
  O  O325  1  0.24948555  0.89426599  0.75693198  1
  O  O326  1  0.75013493  0.37450777  0.25002862  1
  O  O327  1  0.74474501  0.39205049  0.74958225  1
  O  O328  1  0.76136917  0.88921239  0.24093311  1
  O  O329  1  0.73307205  0.87607779  0.74603076  1
  O  O330  1  0.27096682  0.12545342  0.23910881  1
  O  O331  1  0.26012373  0.12071126  0.75380095  1
  O  O332  1  0.25047260  0.60143187  0.24482546  1
  O  O333  1  0.25890933  0.62997099  0.75631853  1
  O  O334  1  0.75929976  0.11788644  0.26050229  1
  O  O335  1  0.72542447  0.09996063  0.74760343  1
  O  O336  1  0.76383140  0.60635039  0.24432891  1
  O  O337  1  0.75175794  0.62918166  0.77877495  1
  O  O338  1  0.38126469  0.11013896  0.35581173  1
  O  O339  1  0.36829211  0.12835610  0.86169833  1
  O  O340  1  0.34595341  0.69919074  0.35264944  1
  O  O341  1  0.36505961  0.61699252  0.86090747  1
  O  O342  1  0.86584555  0.11158402  0.37233303  1
  O  O343  1  0.91370152  0.09922649  0.88037856  1
  O  O344  1  0.89471056  0.60655826  0.35817935  1
  O  O345  1  0.86775222  0.62302050  0.88097404  1
  O  O346  1  0.11980039  0.36716006  0.13946110  1
  O  O347  1  0.12410776  0.39030339  0.63524025  1
  O  O348  1  0.11216421  0.86229129  0.14803148  1
  O  O349  1  0.12142898  0.88991305  0.63503084  1
  O  O350  1  0.63344218  0.37638352  0.14767643  1
  O  O351  1  0.64356481  0.40379290  0.61235112  1
  O  O352  1  0.64711260  0.89078906  0.11662549  1
  O  O353  1  0.63384655  0.87145443  0.62469726  1
  O  O354  1  0.12781442  0.25904548  0.26474350  1
  O  O355  1  0.13694593  0.26669121  0.74964417  1
  O  O356  1  0.12458934  0.73904256  0.26568430  1
  O  O357  1  0.13736857  0.77700965  0.75045917  1
  O  O358  1  0.63753955  0.25629288  0.25470288  1
  O  O359  1  0.63602838  0.24719359  0.77140992  1
  O  O360  1  0.62949173  0.75007346  0.26230113  1
  O  O361  1  0.60536947  0.75766829  0.74766348  1
  O  O362  1  0.37464145  0.24383238  0.25962856  1
  O  O363  1  0.37599429  0.24248239  0.73461887  1
  O  O364  1  0.38447788  0.75103950  0.22705747  1
  O  O365  1  0.37947072  0.75461748  0.73592634  1
  O  O366  1  0.87524864  0.23288665  0.26279276  1
  O  O367  1  0.83829719  0.23420366  0.74682518  1
  O  O368  1  0.86845378  0.73431146  0.24024638  1
  O  O369  1  0.86741874  0.72924800  0.75376799  1
  O  O370  1  0.38056700  0.48912033  0.50358608  1
  O  O371  1  0.36872992  0.47986464  0.99314696  1
  O  O372  1  0.37202489  0.98882961  0.49250724  1
  O  O373  1  0.39247268  1.00894857  0.99955557  1
  O  O374  1  0.87275236  0.50320307  0.48263504  1
  O  O375  1  0.88005472  0.48697184  1.00352601  1
  O  O376  1  0.88140317  0.99307084  0.49555745  1
  O  O377  1  0.86278625  0.97940078  1.00038697  1
  O  O378  1  0.17643890  -0.02320848  0.03582448  1
  O  O379  1  0.11995692  -0.00360532  0.50323314  1
  O  O380  1  0.12154807  0.48605814  -0.00150302  1
  O  O381  1  0.12712132  0.51590486  0.50892913  1
  O  O382  1  0.62154410  0.01161448  0.00773048  1
  O  O383  1  0.60519247  -0.01319659  0.49938452  1
  O  O384  1  0.61212778  0.47975664  0.03178205  1
  O  O385  1  0.61437006  0.51707582  0.49378727  1
  O  O386  1  0.36772185  0.36402578  0.11406943  1
  O  O387  1  0.37957649  0.36359633  0.60239025  1
  O  O388  1  0.38194040  0.84664208  0.11746443  1
  O  O389  1  0.37158533  0.86482658  0.61503757  1
  O  O390  1  0.86840077  0.37267010  0.12013909  1
  O  O391  1  0.85575327  0.38421938  0.63029650  1
  O  O392  1  0.87074799  0.86572043  0.12460614  1
  O  O393  1  0.86385624  0.87774936  0.62441808  1
  O  O394  1  0.11666095  0.14314908  0.37489766  1
  O  O395  1  0.14001250  0.13580067  0.86400048  1
  O  O396  1  0.10849953  0.63434468  0.39131698  1
  O  O397  1  0.13704939  0.61621510  0.88102592  1
  O  O398  1  0.63647918  0.11640585  0.37080538  1
  O  O399  1  0.61929456  0.13490566  0.88843161  1
  O  O400  1  0.62362487  0.65293392  0.37311716  1
  O  O401  1  0.62616392  0.62253470  0.87884066  1
