# generated using pymatgen
data_V73Zn73O256
_symmetry_space_group_name_H-M   'P 1'
_cell_length_a   16.88909992
_cell_length_b   16.85216016
_cell_length_c   16.87179407
_cell_angle_alpha   90.11516564
_cell_angle_beta   90.00121378
_cell_angle_gamma   89.91943490
_symmetry_Int_Tables_number   1
_chemical_formula_structural   V73Zn73O256
_chemical_formula_sum   'V73 Zn73 O256'
_cell_volume   4801.99874650
_cell_formula_units_Z   1
loop_
 _symmetry_equiv_pos_site_id
 _symmetry_equiv_pos_as_xyz
  1  'x, y, z'
loop_
 _atom_site_type_symbol
 _atom_site_label
 _atom_site_symmetry_multiplicity
 _atom_site_fract_x
 _atom_site_fract_y
 _atom_site_fract_z
 _atom_site_occupancy
  V  V0  1  0.74749765  0.00667447  0.25340703  1
  V  V1  1  0.74447758  0.49600000  0.74883117  1
  V  V2  1  0.37811149  -0.00390451  0.37639724  1
  V  V3  1  0.25416447  0.61940136  0.34828163  1
  V  V4  1  0.73706948  0.37964535  0.62848153  1
  V  V5  1  0.00242072  0.50258810  0.48836817  1
  V  V6  1  0.35367818  0.75930599  0.11520938  1
  V  V7  1  -0.00209945  0.12753468  0.12356405  1
  V  V8  1  0.87987669  0.63180421  0.75092389  1
  V  V9  1  0.00922465  0.24676793  0.26576583  1
  V  V10  1  0.37178717  0.86242445  0.49888740  1
  V  V11  1  0.00533951  0.62605897  0.63001361  1
  V  V12  1  0.24876455  0.87566162  0.62233536  1
  V  V13  1  0.87854588  0.88013595  -0.01426225  1
  V  V14  1  0.61442140  0.00540311  0.12231114  1
  V  V15  1  0.00346731  0.61815369  0.11206105  1
  V  V16  1  0.11258232  0.26333342  0.86362007  1
  V  V17  1  0.87579230  0.38450470  0.49428136  1
  V  V18  1  0.61486254  0.26367561  0.87699111  1
  V  V19  1  0.39330559  0.12935410  0.73709791  1
  V  V20  1  0.23742181  0.12534113  0.38644955  1
  V  V21  1  0.24273221  0.48912497  0.74080971  1
  V  V22  1  0.62586097  0.63033375  -0.00918504  1
  V  V23  1  0.87374020  0.61941446  0.26041741  1
  V  V24  1  0.38034462  0.12572275  0.25245960  1
  V  V25  1  0.11486436  0.87000535  0.74612861  1
  V  V26  1  0.11297390  0.75151075  0.88143144  1
  V  V27  1  0.48283564  0.88166270  0.87763668  1
  V  V28  1  0.75629978  0.48691654  0.25359483  1
  V  V29  1  0.12509562  0.12557914  -0.00389727  1
  V  V30  1  0.87321754  0.00703963  0.38267712  1
  V  V31  1  0.50870025  0.61253641  0.62676929  1
  V  V32  1  0.75129046  0.87697675  0.12521456  1
  V  V33  1  0.75983391  0.26082296  0.01180642  1
  V  V34  1  0.87235844  0.86800576  0.49702923  1
  V  V35  1  0.00495641  0.74934168  0.25281754  1
  V  V36  1  0.50391077  0.74855106  0.75951762  1
  V  V37  1  0.87641805  0.10984303  0.75418756  1
  V  V38  1  0.25197845  -0.00469159  0.24255432  1
  V  V39  1  0.24753153  0.63603623  0.89125297  1
  V  V40  1  0.24534383  0.37469848  0.12878805  1
  V  V41  1  0.13183932  0.87504696  0.24287715  1
  V  V42  1  0.63330423  0.87347703  0.75970202  1
  V  V43  1  0.12371351  0.49900431  0.10907967  1
  V  V44  1  0.50446478  0.84680091  0.37659287  1
  V  V45  1  0.74334507  0.11592856  0.87643380  1
  V  V46  1  0.63608798  0.48807902  0.12645292  1
  V  V47  1  0.87199949  0.12911052  0.24503601  1
  V  V48  1  0.73845958  0.24264043  0.49474337  1
  V  V49  1  0.38619819  0.61128359  0.23838912  1
  V  V50  1  0.25630723  0.12427752  0.86680219  1
  V  V51  1  0.51108584  0.63601677  0.12592498  1
  V  V52  1  0.74925125  0.62760247  0.87435921  1
  V  V53  1  0.37189097  0.48555100  0.89066231  1
  V  V54  1  0.50559835  0.00722862  0.50352906  1
  V  V55  1  0.88031377  0.24919013  0.63686038  1
  V  V56  1  0.62699452  0.01058826  0.62658739  1
  V  V57  1  0.12060168  0.37961953  0.26537397  1
  V  V58  1  0.00120986  0.88005205  0.37874888  1
  V  V59  1  0.37198124  0.74818929  0.62845766  1
  V  V60  1  0.38844321  0.27074200  0.61784265  1
  V  V61  1  0.62446599  0.85868279  0.25518409  1
  V  V62  1  0.89015003  0.48808002  0.88229017  1
  V  V63  1  0.62653947  0.61883544  0.48638177  1
  V  V64  1  0.25123867  0.00050663  0.74591640  1
  V  V65  1  0.13536620  0.63029839  0.50045151  1
  V  V66  1  0.73940082  0.86598991  0.61094323  1
  V  V67  1  0.37136441  0.62243248  0.75560384  1
  V  V68  1  0.37966954  0.24922148  0.12276948  1
  V  V69  1  0.25016269  0.25716928  -0.00159474  1
  V  V70  1  0.50160900  0.26833196  0.25819896  1
  V  V71  1  0.87851990  0.75127477  0.12077586  1
  V  V72  1  -0.00580076  -0.00098824  -0.01379820  1
  Zn  Zn73  1  0.13066388  -0.00397835  0.11902746  1
  Zn  Zn74  1  0.87525299  0.75125420  0.62490660  1
  Zn  Zn75  1  0.62312268  0.22770662  0.37064137  1
  Zn  Zn76  1  0.69052012  0.78385954  0.43411107  1
  Zn  Zn77  1  0.74809903  0.75556513  -0.00749774  1
  Zn  Zn78  1  0.25786001  0.25519890  0.50290577  1
  Zn  Zn79  1  0.14587209  0.75879653  0.38125519  1
  Zn  Zn80  1  0.49892351  -0.00361550  -0.00061790  1
  Zn  Zn81  1  0.51589934  0.47554222  -0.00700560  1
  Zn  Zn82  1  0.19018042  0.18221900  0.19038800  1
  Zn  Zn83  1  0.19714966  0.20896480  0.68418704  1
  Zn  Zn84  1  0.18611497  0.68869862  0.17964465  1
  Zn  Zn85  1  0.18646609  0.68625528  0.69166255  1
  Zn  Zn86  1  0.67815843  0.19384343  0.18152221  1
  Zn  Zn87  1  0.68669237  0.19683844  0.70045491  1
  Zn  Zn88  1  0.69697090  0.68178584  0.18689342  1
  Zn  Zn89  1  0.68844604  0.68758527  0.68830438  1
  Zn  Zn90  1  0.30319969  0.30889205  0.31459478  1
  Zn  Zn91  1  0.31616996  0.30831207  0.80596432  1
  Zn  Zn92  1  0.32053594  0.79906508  0.30230381  1
  Zn  Zn93  1  0.30796739  0.81161167  0.81293241  1
  Zn  Zn94  1  0.81096241  0.31342810  0.31105774  1
  Zn  Zn95  1  0.80722605  0.30780795  0.82258696  1
  Zn  Zn96  1  0.81745859  0.81560892  0.30786534  1
  Zn  Zn97  1  0.80779487  0.81171962  0.80822157  1
  Zn  Zn98  1  0.18711482  0.45018320  0.43705080  1
  Zn  Zn99  1  0.18986976  0.44094670  0.92960452  1
  Zn  Zn100  1  0.18748825  0.94213965  0.43696560  1
  Zn  Zn101  1  0.17478598  0.94461291  0.92090809  1
  Zn  Zn102  1  0.71297659  0.48301007  0.46150663  1
  Zn  Zn103  1  0.69879416  0.43575742  0.94023124  1
  Zn  Zn104  1  0.68753092  1.05721729  0.43739698  1
  Zn  Zn105  1  0.68786243  0.94236017  0.94182442  1
  Zn  Zn106  1  0.32299986  0.06659296  0.05715654  1
  Zn  Zn107  1  0.31758794  0.05868578  0.56525817  1
  Zn  Zn108  1  0.31055222  0.56364437  0.06857892  1
  Zn  Zn109  1  0.32277465  0.54906727  0.56419548  1
  Zn  Zn110  1  0.80876035  0.06861040  0.06004930  1
  Zn  Zn111  1  0.81101267  0.06220371  0.57350004  1
  Zn  Zn112  1  0.81497344  0.55843728  0.06075169  1
  Zn  Zn113  1  0.81447303  0.56896437  0.56541028  1
  Zn  Zn114  1  0.44974388  0.42944547  0.15342696  1
  Zn  Zn115  1  0.44063923  0.43201400  0.69836475  1
  Zn  Zn116  1  0.43786244  0.92558055  0.19404093  1
  Zn  Zn117  1  0.43846282  0.93986861  0.69185415  1
  Zn  Zn118  1  0.94465973  0.43655913  0.19315044  1
  Zn  Zn119  1  0.92694614  0.44889193  0.67770089  1
  Zn  Zn120  1  0.94084298  0.94275761  0.18599519  1
  Zn  Zn121  1  0.91952272  0.92554671  0.70014317  1
  Zn  Zn122  1  0.06174812  0.05961826  0.31133937  1
  Zn  Zn123  1  0.06552310  0.06650145  0.80207821  1
  Zn  Zn124  1  0.06470356  0.56498614  0.31209759  1
  Zn  Zn125  1  0.06757263  0.56274048  0.81641355  1
  Zn  Zn126  1  0.55763752  0.05259649  0.30536301  1
  Zn  Zn127  1  0.57105423  0.06036328  0.81379441  1
  Zn  Zn128  1  0.56756811  0.55403833  0.30931686  1
  Zn  Zn129  1  0.54619088  0.52990841  0.80316348  1
  Zn  Zn130  1  0.43721470  0.19070879  0.43676057  1
  Zn  Zn131  1  0.44168041  0.16975893  0.94452331  1
  Zn  Zn132  1  0.42544917  0.65881322  0.44488436  1
  Zn  Zn133  1  0.43811424  0.68704416  0.94099414  1
  Zn  Zn134  1  0.91306920  0.20911324  0.42517554  1
  Zn  Zn135  1  0.93156956  0.18900469  0.93019997  1
  Zn  Zn136  1  0.93910328  0.68924561  0.43853320  1
  Zn  Zn137  1  0.93585378  0.68517559  0.93367988  1
  Zn  Zn138  1  0.06413384  0.30560101  0.06726781  1
  Zn  Zn139  1  0.05220049  0.31479242  0.56444157  1
  Zn  Zn140  1  0.06254947  0.81331324  0.06077821  1
  Zn  Zn141  1  0.06024241  0.81005360  0.56300793  1
  Zn  Zn142  1  0.56756941  0.31166107  0.04218574  1
  Zn  Zn143  1  0.55690076  0.32427202  0.55558905  1
  Zn  Zn144  1  0.56325257  0.81454935  0.05764499  1
  Zn  Zn145  1  0.55738268  0.80186112  0.56266823  1
  O  O146  1  0.12211504  0.12381408  0.11022387  1
  O  O147  1  0.12923072  0.18089738  0.58689112  1
  O  O148  1  0.11444333  0.61064752  0.12989946  1
  O  O149  1  0.11341941  0.63254891  0.61564604  1
  O  O150  1  0.61917017  0.10339090  0.13905836  1
  O  O151  1  0.63311679  0.10865453  0.63842869  1
  O  O152  1  0.62344329  0.62541951  0.11636421  1
  O  O153  1  0.61023552  0.62275201  0.63795564  1
  O  O154  1  0.33028462  0.38113010  0.40487504  1
  O  O155  1  0.36931320  0.38652412  0.87490951  1
  O  O156  1  0.38226682  0.87542437  0.37855270  1
  O  O157  1  0.38360014  0.87964126  0.86780751  1
  O  O158  1  0.87451190  0.36625866  0.39581212  1
  O  O159  1  0.87622382  0.38950706  0.86374476  1
  O  O160  1  0.88168565  0.88643379  0.37883979  1
  O  O161  1  0.86884135  0.87028991  0.88650882  1
  O  O162  1  0.26246194  0.00186422  0.36862143  1
  O  O163  1  0.24907988  0.01715380  0.86731760  1
  O  O164  1  0.25112397  0.52328824  0.37849640  1
  O  O165  1  0.25720312  0.51389640  0.86915912  1
  O  O166  1  0.76259750  -0.00225732  0.36560979  1
  O  O167  1  0.74430383  0.01412131  0.87514471  1
  O  O168  1  0.74710960  0.48934356  0.35381200  1
  O  O169  1  0.75992239  0.50634809  0.86350713  1
  O  O170  1  0.23328622  0.49040597  0.12181060  1
  O  O171  1  0.25947869  0.50254083  0.64057122  1
  O  O172  1  0.25417551  1.00983746  0.13911283  1
  O  O173  1  0.25393966  0.98658381  0.63156465  1
  O  O174  1  0.74349519  0.50769506  0.13266413  1
  O  O175  1  0.76174897  0.49005109  0.63789056  1
  O  O176  1  0.74289956  0.99275864  0.13103855  1
  O  O177  1  0.73324663  0.98566116  0.61571334  1
  O  O178  1  0.00615931  0.35626553  0.24898479  1
  O  O179  1  0.02956801  0.38588845  0.71880474  1
  O  O180  1  0.00717171  0.86940032  0.25582857  1
  O  O181  1  0.01560845  0.88276529  0.73335525  1
  O  O182  1  0.49170642  0.36647493  0.24701330  1
  O  O183  1  0.52186115  0.42070728  0.77122357  1
  O  O184  1  0.50881013  0.87136035  0.26945332  1
  O  O185  1  0.50673742  0.86874634  0.76005172  1
  O  O186  1  0.48285090  0.12398111  0.25073447  1
  O  O187  1  0.49002506  0.11655606  0.75307535  1
  O  O188  1  0.49640509  0.62027079  0.23768100  1
  O  O189  1  0.49191947  0.62928115  0.75018681  1
  O  O190  1  0.99568253  0.13029586  0.24504827  1
  O  O191  1  0.97890619  0.11791064  0.75154700  1
  O  O192  1  0.99490230  0.63247042  0.24187133  1
  O  O193  1  0.99634789  0.61892716  0.73611374  1
  O  O194  1  0.36436671  0.24220306  0.01683215  1
  O  O195  1  0.37841393  0.25052582  0.51077539  1
  O  O196  1  0.38300793  0.74883964  0.01725457  1
  O  O197  1  0.38099343  0.75552733  0.51272675  1
  O  O198  1  0.86200377  0.24467443  -0.00316842  1
  O  O199  1  0.85828833  0.26034721  0.50989044  1
  O  O200  1  0.87929145  0.76000585  0.00849256  1
  O  O201  1  0.87477115  0.76421938  0.49819869  1
  O  O202  1  0.13566837  0.24134599  0.53181012  1
  O  O203  1  0.13132026  0.24277755  0.99340711  1
  O  O204  1  0.11706855  0.73536656  0.49303027  1
  O  O205  1  0.12501253  0.76434587  0.98119751  1
  O  O206  1  0.63617038  0.26125966  0.49447034  1
  O  O207  1  0.64134983  0.24385234  0.99606581  1
  O  O208  1  0.63022908  0.73105956  0.51248078  1
  O  O209  1  0.63025097  0.73571500  0.99956793  1
  O  O210  1  0.48058886  0.24617782  0.13841577  1
  O  O211  1  0.49163211  0.25781194  0.61928294  1
  O  O212  1  0.50813204  0.73755929  0.12544131  1
  O  O213  1  0.48878493  0.74821061  0.64208503  1
  O  O214  1  1.00421719  0.23274481  0.13555470  1
  O  O215  1  0.97795441  0.24539477  0.61655402  1
  O  O216  1  0.99856585  0.74210031  0.13185383  1
  O  O217  1  0.99225100  0.73340707  0.61656726  1
  O  O218  1  0.00598997  0.23790266  0.36674630  1
  O  O219  1  0.01443288  0.24759292  0.88121262  1
  O  O220  1  -0.00286376  0.76100609  0.36245273  1
  O  O221  1  0.01346476  0.74063605  0.87082370  1
  O  O222  1  0.50147290  0.25157579  0.36324087  1
  O  O223  1  0.51605243  0.23731524  0.89955067  1
  O  O224  1  0.48490698  0.75045487  0.38214887  1
  O  O225  1  0.49572251  0.76045946  0.86609493  1
  O  O226  1  0.25591521  0.11259142  0.48710485  1
  O  O227  1  0.24403375  0.13124417  0.98768780  1
  O  O228  1  0.23305987  0.62313427  0.51061365  1
  O  O229  1  0.24778347  0.62394784  0.98975834  1
  O  O230  1  0.74786908  0.13849330  0.50213823  1
  O  O231  1  0.75624345  0.13153419  0.98331510  1
  O  O232  1  0.73415472  0.60449439  0.49623394  1
  O  O233  1  0.74285076  0.62672016  0.99243138  1
  O  O234  1  0.24204315  0.36396828  0.01027635  1
  O  O235  1  0.27627341  0.37676152  0.46484860  1
  O  O236  1  0.25999748  0.89209716  -0.00430114  1
  O  O237  1  0.26145917  0.87909149  0.50702038  1
  O  O238  1  0.75648889  0.36344254  0.00499586  1
  O  O239  1  0.76012147  0.38459698  0.51232120  1
  O  O240  1  0.75936736  0.87606724  0.00905418  1
  O  O241  1  0.75233958  0.86775568  0.50675507  1
  O  O242  1  0.11083319  0.48216839  0.24331882  1
  O  O243  1  0.14404080  0.50896914  0.75325516  1
  O  O244  1  0.13497822  0.99183397  0.24831769  1
  O  O245  1  0.13803122  0.98593380  0.75539407  1
  O  O246  1  0.64380907  0.50433956  0.23829491  1
  O  O247  1  0.64765307  0.51138370  0.75195717  1
  O  O248  1  0.63195793  0.98236560  0.24341254  1
  O  O249  1  0.61483691  0.98165448  0.73348477  1
  O  O250  1  0.37128985  0.00237523  0.25827759  1
  O  O251  1  0.36286179  0.01403965  0.74520620  1
  O  O252  1  0.38025549  0.51231271  0.22004676  1
  O  O253  1  0.36770222  0.50965191  0.76562737  1
  O  O254  1  0.86708948  0.00654133  0.25762158  1
  O  O255  1  0.86156038  0.00990931  0.74042632  1
  O  O256  1  0.87270878  0.51084081  0.24217288  1
  O  O257  1  0.86990778  0.51255262  0.75741735  1
  O  O258  1  0.12761242  0.37921268  0.36469902  1
  O  O259  1  0.12587902  0.36270301  0.87933162  1
  O  O260  1  0.11725722  0.87545950  0.36811815  1
  O  O261  1  0.12654357  0.86457316  0.85804792  1
  O  O262  1  0.53892742  0.42252630  0.41404315  1
  O  O263  1  0.61739264  0.36681681  0.89537506  1
  O  O264  1  0.61153617  0.85688827  0.37401504  1
  O  O265  1  0.63030944  0.87730505  0.86100848  1
  O  O266  1  0.35280673  0.14530378  0.14372464  1
  O  O267  1  0.38147077  0.12390621  0.63440220  1
  O  O268  1  0.39247948  0.62965223  0.12076351  1
  O  O269  1  0.38333357  0.63325147  0.63826699  1
  O  O270  1  0.88383422  0.11605544  0.13702440  1
  O  O271  1  0.85933858  0.13992473  0.64000732  1
  O  O272  1  0.88817175  0.63250920  0.12740605  1
  O  O273  1  0.88240821  0.62850081  0.63349790  1
  O  O274  1  0.24498100  0.25665847  0.11672783  1
  O  O275  1  0.27429887  0.25348119  0.61811618  1
  O  O276  1  0.25250753  0.74688336  0.11162747  1
  O  O277  1  0.26443536  0.75885200  0.63530808  1
  O  O278  1  0.75084836  0.24010528  0.11299589  1
  O  O279  1  0.74913521  0.26517928  0.61600816  1
  O  O280  1  0.76431140  0.75896033  0.12381646  1
  O  O281  1  0.75394255  0.76321207  0.62910279  1
  O  O282  1  0.24981516  0.22996725  0.38352816  1
  O  O283  1  0.24296439  0.24305264  0.88158861  1
  O  O284  1  0.25686079  0.72902753  0.37050618  1
  O  O285  1  0.24554790  0.74081557  0.87617655  1
  O  O286  1  0.74548510  0.25772140  0.38960343  1
  O  O287  1  0.73768815  0.24729216  0.88783452  1
  O  O288  1  0.76247197  0.74113337  0.36476663  1
  O  O289  1  0.75204813  0.73319640  0.87345792  1
  O  O290  1  0.00427611  0.11630614  0.00397817  1
  O  O291  1  0.01860023  0.06156964  0.56327727  1
  O  O292  1  0.00109396  0.63057448  0.01408119  1
  O  O293  1  0.00330293  0.61707558  0.50380214  1
  O  O294  1  0.42297194  0.07702107  0.00454832  1
  O  O295  1  0.49307406  0.10492772  0.49707900  1
  O  O296  1  0.51605436  0.62491287  0.00863033  1
  O  O297  1  0.51175640  0.63672367  0.52310129  1
  O  O298  1  0.49493715  0.38872379  0.47092701  1
  O  O299  1  0.48366868  0.38319499  1.04737364  1
  O  O300  1  0.49341977  0.87350962  0.48935395  1
  O  O301  1  0.50305622  0.87475097  0.98210013  1
  O  O302  1  0.98996123  0.39023928  0.50706095  1
  O  O303  1  0.96206946  0.36951891  1.03642977  1
  O  O304  1  0.99129327  0.87218079  0.48771392  1
  O  O305  1  0.99346175  0.89107157  1.00540109  1
  O  O306  1  0.49853420  0.47491570  0.37032096  1
  O  O307  1  0.47621028  0.51476660  0.89253072  1
  O  O308  1  0.49169306  0.98835966  0.38520143  1
  O  O309  1  0.50687467  0.98400182  0.87312246  1
  O  O310  1  0.99836758  0.50571364  0.38836288  1
  O  O311  1  0.98988633  0.50491628  0.87160677  1
  O  O312  1  0.98570444  0.99096799  0.36695709  1
  O  O313  1  1.00378228  1.00495350  0.88796057  1
  O  O314  1  0.00707279  0.01221340  0.12022100  1
  O  O315  1  0.06345585  0.04222422  0.50587040  1
  O  O316  1  0.00682708  0.51080470  0.12470750  1
  O  O317  1  -0.00660921  0.51867959  0.61083196  1
  O  O318  1  0.51299842  -0.01720798  0.12913496  1
  O  O319  1  0.51064562  -0.01179310  0.61144234  1
  O  O320  1  0.52455773  0.51674649  0.12472261  1
  O  O321  1  0.49053891  0.51499839  0.62910892  1
  O  O322  1  0.22801389  0.36307634  0.24151456  1
  O  O323  1  0.25224490  0.38903056  0.75466018  1
  O  O324  1  0.24183662  0.88158988  0.26018276  1
  O  O325  1  0.24768472  0.88288207  0.74170760  1
  O  O326  1  0.77244919  0.38791421  0.23603412  1
  O  O327  1  0.75233785  0.38560174  0.74009004  1
  O  O328  1  0.74788648  0.88493101  0.24180190  1
  O  O329  1  0.73750001  0.87300111  0.73895128  1
  O  O330  1  0.25543614  0.11553553  0.26542404  1
  O  O331  1  0.24357713  0.11983569  0.75581796  1
  O  O332  1  0.25176042  0.61515403  0.24482426  1
  O  O333  1  0.26084333  0.62271355  0.75616349  1
  O  O334  1  0.75776927  0.11460386  0.24208083  1
  O  O335  1  0.76087205  0.13630732  0.76481922  1
  O  O336  1  0.77029381  0.61815087  0.24606006  1
  O  O337  1  0.75947905  0.61828627  0.75390042  1
  O  O338  1  0.37052939  0.11142233  0.37082299  1
  O  O339  1  0.35872263  0.13824382  0.85663844  1
  O  O340  1  0.36840344  0.62594855  0.34348468  1
  O  O341  1  0.36249505  0.62724348  0.87234950  1
  O  O342  1  0.88015841  0.11243257  0.36944613  1
  O  O343  1  0.86506454  0.12574649  0.86134281  1
  O  O344  1  0.88572751  0.62537379  0.35856702  1
  O  O345  1  0.86803512  0.61824821  0.86852820  1
  O  O346  1  0.12449965  0.38442176  0.12886878  1
  O  O347  1  0.08490706  0.37728443  0.66756464  1
  O  O348  1  0.12144030  0.87613744  0.13848767  1
  O  O349  1  0.13860881  0.86150058  0.63348002  1
  O  O350  1  0.62979888  0.39045902  0.12317020  1
  O  O351  1  0.63869564  0.38129925  0.61806896  1
  O  O352  1  0.63744446  0.87575522  0.13024738  1
  O  O353  1  0.63278766  0.87467214  0.62581837  1
  O  O354  1  0.11400007  0.25308940  0.24970359  1
  O  O355  1  0.12691807  0.24527333  0.76437766  1
  O  O356  1  0.11856799  0.75608126  0.25124714  1
  O  O357  1  0.12841524  0.76341313  0.75656862  1
  O  O358  1  0.60598499  0.25048590  0.24956491  1
  O  O359  1  0.62505778  0.25760164  0.77395000  1
  O  O360  1  0.63493612  0.76031390  0.24282328  1
  O  O361  1  0.61594957  0.76385881  0.74513235  1
  O  O362  1  0.38059351  0.24515404  0.25259911  1
  O  O363  1  0.37659452  0.23840156  0.73555290  1
  O  O364  1  0.36917111  0.72838765  0.22454552  1
  O  O365  1  0.38221378  0.74289118  0.74810723  1
  O  O366  1  0.88640928  0.23604452  0.26222908  1
  O  O367  1  0.87275089  0.25697116  0.73845987  1
  O  O368  1  0.88664649  0.74289810  0.23764834  1
  O  O369  1  0.87459146  0.73747892  0.75017334  1
  O  O370  1  0.38698033  0.55570993  0.47798378  1
  O  O371  1  0.36051309  0.49480135  0.99189350  1
  O  O372  1  0.38613269  0.98431964  0.49514244  1
  O  O373  1  0.32035579  0.93558112  1.00690907  1
  O  O374  1  0.88141124  0.49164972  0.50122792  1
  O  O375  1  0.87203027  0.50265802  0.98202087  1
  O  O376  1  0.86525352  0.99488057  0.48776545  1
  O  O377  1  0.88715642  0.99556028  1.00391995  1
  O  O378  1  0.11522690  0.00690099  -0.00109638  1
  O  O379  1  0.12174187  -0.01374115  0.52499428  1
  O  O380  1  0.12078235  0.49456570  0.01033370  1
  O  O381  1  0.11214685  0.51179506  0.49948033  1
  O  O382  1  0.62042502  -0.00313955  0.01732959  1
  O  O383  1  0.61454862  0.00035575  0.50954646  1
  O  O384  1  0.63278644  0.51062558  0.01054108  1
  O  O385  1  0.61144750  0.51624923  0.50250225  1
  O  O386  1  0.35383078  0.35663385  0.14097115  1
  O  O387  1  0.38187072  0.37232084  0.62503026  1
  O  O388  1  0.37029140  0.85856400  0.13590981  1
  O  O389  1  0.37088290  0.86833704  0.61945984  1
  O  O390  1  0.90986533  0.37418880  0.09154373  1
  O  O391  1  0.86816302  0.36602942  0.61753613  1
  O  O392  1  0.87027548  0.87010395  0.12182379  1
  O  O393  1  0.86070886  0.87869749  0.61412856  1
  O  O394  1  0.13796877  0.10960828  0.37915837  1
  O  O395  1  0.13235240  0.13129429  0.88238306  1
  O  O396  1  0.13689413  0.62809702  0.38059589  1
  O  O397  1  0.13815176  0.63961147  0.86935670  1
  O  O398  1  0.62694975  0.11537821  0.36523550  1
  O  O399  1  0.63793446  0.13216096  0.86996005  1
  O  O400  1  0.60902836  0.62604327  0.38667363  1
  O  O401  1  0.63193949  0.61282346  0.88733198  1
