# generated using pymatgen
data_V73Zn73O256
_symmetry_space_group_name_H-M   'P 1'
_cell_length_a   16.91711440
_cell_length_b   16.97998895
_cell_length_c   16.86023348
_cell_angle_alpha   90.03105095
_cell_angle_beta   89.98539225
_cell_angle_gamma   90.15674150
_symmetry_Int_Tables_number   1
_chemical_formula_structural   V73Zn73O256
_chemical_formula_sum   'V73 Zn73 O256'
_cell_volume   4843.12380570
_cell_formula_units_Z   1
loop_
 _symmetry_equiv_pos_site_id
 _symmetry_equiv_pos_as_xyz
  1  'x, y, z'
loop_
 _atom_site_type_symbol
 _atom_site_label
 _atom_site_symmetry_multiplicity
 _atom_site_fract_x
 _atom_site_fract_y
 _atom_site_fract_z
 _atom_site_occupancy
  V  V0  1  0.50295650  0.63097649  0.61471215  1
  V  V1  1  0.37610840  0.25434715  0.12473072  1
  V  V2  1  0.00471791  0.11975107  0.63374195  1
  V  V3  1  0.86964001  -0.00474687  0.38623401  1
  V  V4  1  0.90800051  0.49998977  0.37933213  1
  V  V5  1  0.39024594  0.73574560  0.13156010  1
  V  V6  1  0.51293550  0.75251344  0.75703540  1
  V  V7  1  0.62403674  -0.00015267  0.12427739  1
  V  V8  1  -0.00093796  0.87387097  0.37508257  1
  V  V9  1  0.37324856  0.11366344  0.73491438  1
  V  V10  1  0.11284293  0.12151942  0.00739296  1
  V  V11  1  0.61827956  0.12213811  0.50909847  1
  V  V12  1  0.37953192  0.38378573  -0.01916552  1
  V  V13  1  0.49786037  0.13088788  0.12581273  1
  V  V14  1  0.87343207  0.76015618  0.62263369  1
  V  V15  1  -0.00560982  0.38487774  0.86661534  1
  V  V16  1  0.74788097  0.50017221  0.26861645  1
  V  V17  1  0.62353986  -0.01770819  0.63325760  1
  V  V18  1  -0.00703550  0.61681651  0.11939894  1
  V  V19  1  -0.00220518  0.75040766  0.24976620  1
  V  V20  1  0.11732727  0.38146324  0.25338089  1
  V  V21  1  0.87104855  0.61887666  0.25632725  1
  V  V22  1  0.10170388  0.49159598  0.63580631  1
  V  V23  1  0.25621638  0.11067973  0.87089192  1
  V  V24  1  0.74559206  0.77011582  -0.01022641  1
  V  V25  1  0.87465385  0.12735553  0.25186967  1
  V  V26  1  0.37288819  0.87514475  0.49668451  1
  V  V27  1  0.12044309  0.25725463  0.85645329  1
  V  V28  1  -0.00350295  0.24917960  0.24817116  1
  V  V29  1  0.75061441  0.33681394  0.61976049  1
  V  V30  1  0.62581868  0.24881665  0.37926114  1
  V  V31  1  0.78284520  -0.00049866  0.77381893  1
  V  V32  1  0.89193097  0.24250846  0.64853526  1
  V  V33  1  0.23964940  0.88376685  0.63000327  1
  V  V34  1  0.26006365  0.61931102  0.87122436  1
  V  V35  1  0.74986549  0.37567354  0.11240100  1
  V  V36  1  0.24300026  0.75081780  0.00386053  1
  V  V37  1  0.36314602  0.01154194  0.36200053  1
  V  V38  1  0.50330563  0.87537880  0.87257763  1
  V  V39  1  0.61524580  0.50602195  0.12191695  1
  V  V40  1  0.24952094  0.25459551  -0.01203670  1
  V  V41  1  0.49048698  0.00524070  -0.00657224  1
  V  V42  1  0.61842108  0.27888672  0.87405198  1
  V  V43  1  0.62965102  0.13416684  -0.01419952  1
  V  V44  1  0.13055355  0.11530497  0.49833879  1
  V  V45  1  0.65002176  0.53068621  0.62446479  1
  V  V46  1  0.11613109  0.62594104  -0.01021994  1
  V  V47  1  0.49780161  0.25178023  0.25619907  1
  V  V48  1  -0.00145892  -0.00538687  0.50228125  1
  V  V49  1  0.24871487  0.38342583  0.12459929  1
  V  V50  1  0.62470386  0.37397055  0.25924712  1
  V  V51  1  0.12988966  0.88566395  0.76093264  1
  V  V52  1  0.49751813  0.47440520  0.50052226  1
  V  V53  1  0.24642896  0.73719580  0.50078001  1
  V  V54  1  0.74533179  0.61197521  0.87542711  1
  V  V55  1  0.89001585  0.36375539  0.49067393  1
  V  V56  1  -0.01031508  0.88122967  0.88515861  1
  V  V57  1  0.74480293  0.74293863  0.49613054  1
  V  V58  1  0.37172341  0.75325399  0.63449907  1
  V  V59  1  0.12781023  0.74914677  0.37684473  1
  V  V60  1  0.74648812  0.12688709  0.38437781  1
  V  V61  1  0.12094229  0.50294203  0.11698771  1
  V  V62  1  0.61987351  0.73897244  0.37056451  1
  V  V63  1  0.36632168  0.87638389  0.00325591  1
  V  V64  1  0.50065729  0.50400705  -0.02250773  1
  V  V65  1  0.49694837  -0.00133203  0.50069587  1
  V  V66  1  0.86595917  0.61906561  0.74958228  1
  V  V67  1  0.86724152  0.25205151  0.11743523  1
  V  V68  1  0.36905603  0.26426083  0.62271845  1
  V  V69  1  0.00530868  0.74375232  0.75317550  1
  V  V70  1  0.74192368  -0.00353852  0.24899740  1
  V  V71  1  0.86510491  0.75794380  0.11890663  1
  V  V72  1  0.12377236  0.23705845  0.37381024  1
  Zn  Zn73  1  0.49835848  0.87323357  0.35853857  1
  Zn  Zn74  1  0.61928709  0.86526367  0.24258263  1
  Zn  Zn75  1  0.25989902  0.25810162  0.49130731  1
  Zn  Zn76  1  0.79313267  0.91278651  0.58078132  1
  Zn  Zn77  1  0.37699647  0.61993921  0.75510299  1
  Zn  Zn78  1  0.63201150  0.38044086  0.74374430  1
  Zn  Zn79  1  0.10341190  0.61514516  0.50686281  1
  Zn  Zn80  1  0.61858278  0.63893590  -0.00643368  1
  Zn  Zn81  1  0.29234771  0.58106941  0.32043834  1
  Zn  Zn82  1  0.18372282  0.19319481  0.17654459  1
  Zn  Zn83  1  0.20047787  0.19137205  0.68451534  1
  Zn  Zn84  1  0.22033700  0.72005047  0.21201156  1
  Zn  Zn85  1  0.18255218  0.67748223  0.68602064  1
  Zn  Zn86  1  0.68591095  0.18538569  0.18900763  1
  Zn  Zn87  1  0.70276594  0.16654336  0.79424995  1
  Zn  Zn88  1  0.68737890  0.68439226  0.18891616  1
  Zn  Zn89  1  0.69602035  0.70336008  0.68920814  1
  Zn  Zn90  1  0.29496322  0.29498782  0.29797708  1
  Zn  Zn91  1  0.49310150  0.25435023  0.74817541  1
  Zn  Zn92  1  0.31559963  0.82477817  0.30584975  1
  Zn  Zn93  1  0.30997732  0.81201531  0.82136905  1
  Zn  Zn94  1  0.81135433  0.31693622  0.31581006  1
  Zn  Zn95  1  0.80670106  0.30967101  0.81385283  1
  Zn  Zn96  1  0.80474847  0.81072367  0.31887261  1
  Zn  Zn97  1  0.81364986  0.82016531  0.80918943  1
  Zn  Zn98  1  0.14371055  0.43517024  0.44192567  1
  Zn  Zn99  1  0.18479017  0.43810564  0.92951072  1
  Zn  Zn100  1  0.18775058  0.93107583  0.43379327  1
  Zn  Zn101  1  0.17707662  0.93796814  0.94342780  1
  Zn  Zn102  1  0.69099747  0.43623507  0.45739870  1
  Zn  Zn103  1  0.81901733  0.44360349  0.92934284  1
  Zn  Zn104  1  0.68189253  0.92780032  0.43545704  1
  Zn  Zn105  1  0.68500611  0.94631833  0.93388477  1
  Zn  Zn106  1  0.31063514  0.07121834  0.05698824  1
  Zn  Zn107  1  0.30831491  0.05897893  0.55630191  1
  Zn  Zn108  1  0.31228729  0.56443043  0.05900792  1
  Zn  Zn109  1  0.32306043  0.55904586  0.56107241  1
  Zn  Zn110  1  0.80117995  0.07570290  0.06796160  1
  Zn  Zn111  1  0.77307053  0.11025720  0.61276295  1
  Zn  Zn112  1  0.80086284  0.56820785  0.06537101  1
  Zn  Zn113  1  0.92916436  0.56949590  0.56858453  1
  Zn  Zn114  1  0.44058372  0.43214953  0.18571960  1
  Zn  Zn115  1  0.44580184  0.43193167  0.68099971  1
  Zn  Zn116  1  0.43456917  0.93517597  0.18255340  1
  Zn  Zn117  1  0.43634547  0.93855357  0.68646896  1
  Zn  Zn118  1  0.93891058  0.42963114  0.05624233  1
  Zn  Zn119  1  0.92571242  0.43010944  0.69268553  1
  Zn  Zn120  1  0.91034644  0.92177995  0.21026021  1
  Zn  Zn121  1  0.94738775  0.93790737  0.69678079  1
  Zn  Zn122  1  0.05709607  0.05807523  0.30587299  1
  Zn  Zn123  1  0.06940628  0.06338066  0.82378189  1
  Zn  Zn124  1  0.10221444  0.59200922  0.28591431  1
  Zn  Zn125  1  0.05513724  0.56007790  0.81051300  1
  Zn  Zn126  1  0.55312219  0.06041875  0.31421167  1
  Zn  Zn127  1  0.54748263  0.06380835  0.80654913  1
  Zn  Zn128  1  0.55917275  0.55125215  0.32077054  1
  Zn  Zn129  1  0.57251938  0.56245838  0.80164262  1
  Zn  Zn130  1  0.43539037  0.18470945  0.44030002  1
  Zn  Zn131  1  0.43889788  0.19600935  0.92898205  1
  Zn  Zn132  1  0.43474067  0.69256734  0.43039404  1
  Zn  Zn133  1  0.43564384  0.68957221  0.94146622  1
  Zn  Zn134  1  0.94311764  0.18203434  0.43617006  1
  Zn  Zn135  1  0.95788567  0.23459563  0.95865833  1
  Zn  Zn136  1  0.93227276  0.69175149  0.43884726  1
  Zn  Zn137  1  0.93021293  0.69340359  0.93066446  1
  Zn  Zn138  1  0.06554953  0.30576193  0.06378369  1
  Zn  Zn139  1  0.06824987  0.31124375  0.56872263  1
  Zn  Zn140  1  0.05725693  0.81246239  0.06984044  1
  Zn  Zn141  1  0.05842257  0.80795608  0.56662592  1
  Zn  Zn142  1  0.56357014  0.31974751  0.05890388  1
  Zn  Zn143  1  0.55199339  0.29596715  0.57187435  1
  Zn  Zn144  1  0.56047998  0.81593014  0.06091581  1
  Zn  Zn145  1  0.56178129  0.81004498  0.55577411  1
  O  O146  1  0.11528490  0.13721583  0.10849006  1
  O  O147  1  0.11488028  0.13260024  0.60600111  1
  O  O148  1  0.10960637  0.61435707  0.11717504  1
  O  O149  1  0.12639635  0.60465293  0.62357531  1
  O  O150  1  0.61397311  0.12632200  0.11232930  1
  O  O151  1  0.62541296  0.11729775  0.60779771  1
  O  O152  1  0.63582183  0.60707670  0.12059496  1
  O  O153  1  0.61652005  0.63419922  0.63228562  1
  O  O154  1  0.29432164  0.41480868  0.40185002  1
  O  O155  1  0.37362583  0.37973380  0.88585852  1
  O  O156  1  0.37617488  0.87735622  0.38566944  1
  O  O157  1  0.38296963  0.87024097  0.89291527  1
  O  O158  1  0.87406613  0.38861398  0.38308830  1
  O  O159  1  0.88386185  0.36664704  0.87645040  1
  O  O160  1  0.88349395  0.88608365  0.36647915  1
  O  O161  1  0.88959824  0.87770218  0.87687416  1
  O  O162  1  0.26378343  -0.00868043  0.37720005  1
  O  O163  1  0.24782506  0.01321106  0.88256979  1
  O  O164  1  0.24755637  0.47639282  0.37163024  1
  O  O165  1  0.24343565  0.52029917  0.87956836  1
  O  O166  1  0.75344494  0.00809430  0.37031710  1
  O  O167  1  0.75479681  0.00970568  0.87218257  1
  O  O168  1  0.73414103  0.49791388  0.36858757  1
  O  O169  1  0.74961649  0.51300354  0.87142974  1
  O  O170  1  0.23923463  0.49070229  0.11629451  1
  O  O171  1  0.25610001  0.50524047  0.64446665  1
  O  O172  1  0.25553829  1.04213423  0.16324582  1
  O  O173  1  0.24880778  0.98149387  0.62219370  1
  O  O174  1  0.74062781  0.48669394  0.13699209  1
  O  O175  1  0.74559271  0.52354516  0.62062678  1
  O  O176  1  0.73608700  1.01253764  0.13621242  1
  O  O177  1  0.72974554  0.99964351  0.61425737  1
  O  O178  1  0.01667604  0.35905575  0.24013273  1
  O  O179  1  -0.00582609  0.37507003  0.76604086  1
  O  O180  1  -0.00671746  0.86247804  0.26024443  1
  O  O181  1  0.01630688  0.86706807  0.75813372  1
  O  O182  1  0.51367460  0.36453121  0.24811006  1
  O  O183  1  0.51976769  0.36443596  0.72489032  1
  O  O184  1  0.50570601  0.87803475  0.24447204  1
  O  O185  1  0.48964617  0.86651187  0.76362419  1
  O  O186  1  0.50497015  0.13758849  0.23525536  1
  O  O187  1  0.47393618  0.13663884  0.76337128  1
  O  O188  1  0.44415186  0.57670790  0.27392988  1
  O  O189  1  0.49746720  0.64123257  0.74743514  1
  O  O190  1  0.98341162  0.13065180  0.25219553  1
  O  O191  1  1.01756043  0.11400043  0.73122868  1
  O  O192  1  0.99007317  0.62714172  0.23754523  1
  O  O193  1  0.98351382  0.63873300  0.76270144  1
  O  O194  1  0.37167505  0.26785939  0.00494885  1
  O  O195  1  0.37323292  0.24411597  0.50948912  1
  O  O196  1  0.36932961  0.75943853  0.00663828  1
  O  O197  1  0.36516734  0.75821314  0.50873199  1
  O  O198  1  0.86202022  0.23507594  0.01909696  1
  O  O199  1  0.87769180  0.26281727  0.48350873  1
  O  O200  1  0.86236870  0.74565252  0.01234049  1
  O  O201  1  0.86671917  0.75141983  0.51523503  1
  O  O202  1  0.11930035  0.24056093  0.48319617  1
  O  O203  1  0.13530511  0.24456914  0.99331639  1
  O  O204  1  0.13738876  0.75047219  0.50075492  1
  O  O205  1  0.13568640  0.73942458  1.01376651  1
  O  O206  1  0.61239301  0.23084874  0.48927740  1
  O  O207  1  0.61505546  0.24177594  0.98887324  1
  O  O208  1  0.63466145  0.75449938  0.48855276  1
  O  O209  1  0.64162814  0.75153326  1.01193180  1
  O  O210  1  0.49457699  0.25033093  0.13071335  1
  O  O211  1  0.47598885  0.23686514  0.62671687  1
  O  O212  1  0.49058251  0.74674405  0.11587153  1
  O  O213  1  0.49383700  0.75079345  0.63792877  1
  O  O214  1  0.97791609  0.25362907  0.13376749  1
  O  O215  1  0.99781155  0.23567261  0.62352081  1
  O  O216  1  0.98770968  0.74035299  0.13134191  1
  O  O217  1  0.98690717  0.75637059  0.64047194  1
  O  O218  1  0.01124953  0.24460741  0.36062684  1
  O  O219  1  0.01643108  0.25031657  0.86217863  1
  O  O220  1  -0.00136952  0.75969915  0.37076456  1
  O  O221  1  -0.00670846  0.76214665  0.85956359  1
  O  O222  1  0.50836126  0.24029756  0.36324405  1
  O  O223  1  0.51095622  0.26184742  0.87367060  1
  O  O224  1  0.51466799  0.75630423  0.38167658  1
  O  O225  1  0.49645133  0.75997515  0.86643571  1
  O  O226  1  0.23101294  0.12052859  0.49761253  1
  O  O227  1  0.24385822  0.13726997  0.99060397  1
  O  O228  1  0.25682169  0.63769420  0.50628563  1
  O  O229  1  0.23813139  0.63228135  0.99262144  1
  O  O230  1  0.73338528  0.11903318  0.49125077  1
  O  O231  1  0.72791598  0.12511464  0.99809983  1
  O  O232  1  0.74848104  0.64716009  0.50745060  1
  O  O233  1  0.74494449  0.63301424  0.98544213  1
  O  O234  1  0.25983829  0.37481042  0.00390101  1
  O  O235  1  0.25759154  0.38609147  0.47007126  1
  O  O236  1  0.25598698  0.86432477  -0.00510031  1
  O  O237  1  0.25461917  0.86721925  0.51338734  1
  O  O238  1  0.74427846  0.37966830  0.01471910  1
  O  O239  1  0.77231388  0.38122099  0.52190331  1
  O  O240  1  0.74588469  0.86934635  -0.00312781  1
  O  O241  1  0.75523368  0.86293180  0.48968412  1
  O  O242  1  0.11643865  0.48424774  0.23815765  1
  O  O243  1  0.11722328  0.50260489  0.73740420  1
  O  O244  1  0.11829243  0.98912129  0.23011781  1
  O  O245  1  0.12812545  0.98340728  0.75296120  1
  O  O246  1  0.62747029  0.49183554  0.24494245  1
  O  O247  1  0.62497672  0.49618995  0.72200783  1
  O  O248  1  0.62921820  1.00946442  0.24060038  1
  O  O249  1  0.60922962  1.00236656  0.73177795  1
  O  O250  1  0.37759387  -0.00530599  0.26286454  1
  O  O251  1  0.37873332  0.01270007  0.74968044  1
  O  O252  1  0.39513147  0.51772178  0.25504053  1
  O  O253  1  0.36380053  0.50304363  0.72853054  1
  O  O254  1  0.86471318  0.01083633  0.25810800  1
  O  O255  1  0.88330558  0.00557171  0.76121985  1
  O  O256  1  0.86466839  0.50379333  0.27044635  1
  O  O257  1  0.87261568  0.52002899  0.74284999  1
  O  O258  1  0.12279219  0.36129500  0.35826405  1
  O  O259  1  0.11414257  0.36397429  0.87912083  1
  O  O260  1  0.11049077  0.86285007  0.38021872  1
  O  O261  1  0.13160072  0.86842919  0.86285956  1
  O  O262  1  0.63543717  0.35991825  0.37118190  1
  O  O263  1  0.62936585  0.37645359  0.86814528  1
  O  O264  1  0.61947474  0.86565577  0.36546793  1
  O  O265  1  0.60228408  0.88045233  0.88291651  1
  O  O266  1  0.38498423  0.14586695  0.11229400  1
  O  O267  1  0.36797718  0.11604352  0.63242052  1
  O  O268  1  0.37614705  0.63572888  0.11790940  1
  O  O269  1  0.38783324  0.63936628  0.62799061  1
  O  O270  1  0.85812072  0.14123822  0.14281219  1
  O  O271  1  0.89276358  0.13573029  0.62022053  1
  O  O272  1  0.87960830  0.63021666  0.13356085  1
  O  O273  1  0.87128968  0.64301863  0.64216553  1
  O  O274  1  0.25787020  0.26036963  0.11342863  1
  O  O275  1  0.25802030  0.24758834  0.60781439  1
  O  O276  1  0.26462356  0.74367292  0.10598892  1
  O  O277  1  0.25596111  0.75355469  0.61851162  1
  O  O278  1  0.75481268  0.26487181  0.13740316  1
  O  O279  1  0.77902741  0.23543001  0.61941761  1
  O  O280  1  0.76220084  0.74687971  0.12227188  1
  O  O281  1  0.76188717  0.76274245  0.61856343  1
  O  O282  1  0.23143540  0.24492600  0.37394199  1
  O  O283  1  0.24034507  0.25539679  0.88528714  1
  O  O284  1  0.24316244  0.75432931  0.39552476  1
  O  O285  1  0.25473690  0.73799613  0.89453225  1
  O  O286  1  0.73849428  0.23799998  0.36962268  1
  O  O287  1  0.72949845  0.24870228  0.87121301  1
  O  O288  1  0.74174556  0.74522416  0.38494791  1
  O  O289  1  0.75399097  0.75499607  0.88819122  1
  O  O290  1  0.01511685  0.13694957  -0.01505757  1
  O  O291  1  0.00796269  0.11196258  0.50160453  1
  O  O292  1  0.00917779  0.63887332  0.00437367  1
  O  O293  1  -0.00499912  0.64308386  0.51511684  1
  O  O294  1  0.50082360  0.12128032  0.00359563  1
  O  O295  1  0.51059683  0.11102639  0.49259740  1
  O  O296  1  0.50414245  0.60963051  -0.00947074  1
  O  O297  1  0.50287879  0.64395339  0.51643168  1
  O  O298  1  0.49769664  0.37602115  0.51293291  1
  O  O299  1  0.48754083  0.38830512  1.00434570  1
  O  O300  1  0.48380221  0.87970101  0.50221993  1
  O  O301  1  0.48909682  0.88492574  0.99273504  1
  O  O302  1  0.98935953  0.36994941  0.50201566  1
  O  O303  1  0.99152135  0.35119056  0.98949740  1
  O  O304  1  1.00461699  0.88566773  0.49276202  1
  O  O305  1  1.01090977  0.86549388  0.98374477  1
  O  O306  1  0.52209031  0.48632361  0.40318747  1
  O  O307  1  0.50866339  0.49854497  0.87879442  1
  O  O308  1  0.48733083  0.99499997  0.38492543  1
  O  O309  1  0.49438238  0.99122299  0.88510636  1
  O  O310  1  1.00419903  0.49816563  0.36789757  1
  O  O311  1  1.00336805  0.48355532  0.88139392  1
  O  O312  1  0.99082562  0.99242780  0.37911097  1
  O  O313  1  1.01310314  0.98015471  0.87336033  1
  O  O314  1  0.07778145  -0.04345255  0.16774062  1
  O  O315  1  -0.00470280  0.00986385  0.61359926  1
  O  O316  1  0.00672861  0.50679569  0.11715389  1
  O  O317  1  -0.00382887  0.49455605  0.62751869  1
  O  O318  1  0.50275722  0.01472837  0.11538995  1
  O  O319  1  0.50812829  -0.00676875  0.61015172  1
  O  O320  1  0.51464637  0.50133709  0.13411474  1
  O  O321  1  0.50117074  0.52575995  0.61898939  1
  O  O322  1  0.23173403  0.36596853  0.23368620  1
  O  O323  1  0.28566582  0.47598056  0.71138128  1
  O  O324  1  0.22054331  0.82539862  0.25193753  1
  O  O325  1  0.24104545  0.86375766  0.74047935  1
  O  O326  1  0.73948439  0.38305810  0.24999304  1
  O  O327  1  0.75546154  0.36764749  0.72126713  1
  O  O328  1  0.75018969  0.89384763  0.25362287  1
  O  O329  1  0.75794894  0.90271440  0.74952826  1
  O  O330  1  0.24981987  0.09815482  0.21570042  1
  O  O331  1  0.25765599  0.12341947  0.76252303  1
  O  O332  1  0.21332495  0.61637590  0.25328680  1
  O  O333  1  0.25168860  0.63817700  0.76854149  1
  O  O334  1  0.75376493  0.11849644  0.26262617  1
  O  O335  1  0.75273998  0.09468585  0.72965762  1
  O  O336  1  0.76311185  0.61185503  0.24380226  1
  O  O337  1  0.75693986  0.63772908  0.76203064  1
  O  O338  1  0.37379740  0.11099486  0.37591159  1
  O  O339  1  0.35757210  0.13160240  0.87916923  1
  O  O340  1  0.38318274  0.61334898  0.37453202  1
  O  O341  1  0.36491465  0.62357410  0.87608251  1
  O  O342  1  0.86575222  0.11650355  0.37190361  1
  O  O343  1  0.89464446  0.04680514  0.94004423  1
  O  O344  1  0.88746494  0.61248733  0.36576289  1
  O  O345  1  0.86021614  0.63196623  0.86309124  1
  O  O346  1  0.12935673  0.38218245  0.12486839  1
  O  O347  1  0.12351881  0.39112726  0.62282334  1
  O  O348  1  0.11875245  0.89722193  0.13402870  1
  O  O349  1  0.13546063  0.86859739  0.63419461  1
  O  O350  1  0.63325804  0.37919394  0.13520051  1
  O  O351  1  0.65019791  0.33767714  0.61347051  1
  O  O352  1  0.61811420  0.89759761  0.12120512  1
  O  O353  1  0.62070439  0.88315795  0.62356663  1
  O  O354  1  0.11857674  0.24880906  0.25464554  1
  O  O355  1  0.13657088  0.25136036  0.75858900  1
  O  O356  1  0.10001369  0.73582082  0.25976639  1
  O  O357  1  0.10775099  0.74663347  0.74393006  1
  O  O358  1  0.61838746  0.25551780  0.25751987  1
  O  O359  1  0.61991126  0.24757651  0.76867383  1
  O  O360  1  0.63848792  0.75202159  0.26296138  1
  O  O361  1  0.61062634  0.75680817  0.74848203  1
  O  O362  1  0.38433091  0.26102917  0.23980953  1
  O  O363  1  0.36344948  0.23400462  0.72741141  1
  O  O364  1  0.37122147  0.75171844  0.23141062  1
  O  O365  1  0.37878785  0.75217168  0.74231802  1
  O  O366  1  0.87955932  0.24453678  0.25426725  1
  O  O367  1  0.88251073  0.24362436  0.74638585  1
  O  O368  1  0.87716358  0.73997632  0.24533603  1
  O  O369  1  0.87888819  0.74986229  0.74109068  1
  O  O370  1  0.39883679  0.50055915  0.50566650  1
  O  O371  1  0.38838538  0.49364929  1.00128228  1
  O  O372  1  0.37892198  0.99134222  0.49444468  1
  O  O373  1  0.37747720  0.98896323  1.01142227  1
  O  O374  1  0.88798313  0.49569192  0.48329952  1
  O  O375  1  0.87130690  0.50376455  1.00768453  1
  O  O376  1  0.88244528  1.00079726  0.48937821  1
  O  O377  1  0.88110092  1.01078982  1.00354713  1
  O  O378  1  0.12933558  0.02138491  0.00060146  1
  O  O379  1  0.11551329  0.00933992  0.48955509  1
  O  O380  1  0.12686944  0.51571217  0.00495888  1
  O  O381  1  0.13102232  0.50562784  0.52142536  1
  O  O382  1  0.61182517  0.01408445  0.00440087  1
  O  O383  1  0.61446827  0.00457678  0.50107717  1
  O  O384  1  0.60705088  0.49358215  0.01503131  1
  O  O385  1  0.61707071  0.48674367  0.53121135  1
  O  O386  1  0.36481354  0.37114553  0.12450894  1
  O  O387  1  0.36960518  0.36372605  0.62767454  1
  O  O388  1  0.37786214  0.86524438  0.10825550  1
  O  O389  1  0.36431107  0.86864411  0.62055969  1
  O  O390  1  0.86021417  0.36367148  0.12489764  1
  O  O391  1  0.87970660  0.35016940  0.61834146  1
  O  O392  1  0.87965142  0.85760847  0.12542246  1
  O  O393  1  0.88366153  0.86709206  0.62998932  1
  O  O394  1  0.11812004  0.12975710  0.37839722  1
  O  O395  1  0.13961031  0.13957848  0.87802379  1
  O  O396  1  0.11349598  0.64529046  0.38954588  1
  O  O397  1  0.12270430  0.62559732  0.88827023  1
  O  O398  1  0.63023630  0.12904542  0.37704921  1
  O  O399  1  0.61828615  0.12206496  0.88234580  1
  O  O400  1  0.61454418  0.63867569  0.36620033  1
  O  O401  1  0.63974477  0.62599312  0.87067448  1
