# generated using pymatgen
data_V73Zn73O256
_symmetry_space_group_name_H-M   'P 1'
_cell_length_a   16.85189098
_cell_length_b   16.84713121
_cell_length_c   16.86202065
_cell_angle_alpha   90.07499717
_cell_angle_beta   89.87639311
_cell_angle_gamma   89.96722687
_symmetry_Int_Tables_number   1
_chemical_formula_structural   V73Zn73O256
_chemical_formula_sum   'V73 Zn73 O256'
_cell_volume   4787.21311599
_cell_formula_units_Z   1
loop_
 _symmetry_equiv_pos_site_id
 _symmetry_equiv_pos_as_xyz
  1  'x, y, z'
loop_
 _atom_site_type_symbol
 _atom_site_label
 _atom_site_symmetry_multiplicity
 _atom_site_fract_x
 _atom_site_fract_y
 _atom_site_fract_z
 _atom_site_occupancy
  V  V0  1  0.37480583  0.60766573  0.74654676  1
  V  V1  1  0.13510984  0.88259342  0.23878890  1
  V  V2  1  0.12290206  0.26101700  0.38581750  1
  V  V3  1  0.49685030  0.37204954  0.89318411  1
  V  V4  1  -0.00227026  0.88229901  0.87295672  1
  V  V5  1  0.25465310  0.36979176  0.11034806  1
  V  V6  1  0.11985866  0.50167598  0.12083480  1
  V  V7  1  0.63700994  0.24214728  0.37530977  1
  V  V8  1  0.62942128  0.49991961  0.63215453  1
  V  V9  1  0.62948668  0.75643885  0.37656321  1
  V  V10  1  0.01545669  0.00926651  0.01451856  1
  V  V11  1  0.11934578  0.74878272  0.87199519  1
  V  V12  1  0.50544116  0.36388780  0.36252369  1
  V  V13  1  -0.00220077  0.38480597  0.88100446  1
  V  V14  1  0.25232260  0.00562985  0.74115522  1
  V  V15  1  0.36870305  0.35565271  0.49501746  1
  V  V16  1  0.49877099  0.49597538  0.49920598  1
  V  V17  1  0.12285354  0.23953557  0.88631588  1
  V  V18  1  0.87902363  0.88311701  0.49313472  1
  V  V19  1  0.00630570  0.74435959  0.25681539  1
  V  V20  1  0.49016728  0.75479900  0.74589606  1
  V  V21  1  0.11560972  0.37730143  0.25397853  1
  V  V22  1  0.75773042  0.10501221  0.88110117  1
  V  V23  1  0.26374863  0.76642345  0.51329001  1
  V  V24  1  0.86793486  0.24725551  0.62256952  1
  V  V25  1  0.24971293  0.61661077  0.86846248  1
  V  V26  1  0.86764175  0.74556974  0.13037746  1
  V  V27  1  0.60976536  0.01531812  0.11968483  1
  V  V28  1  0.49474180  0.62247192  0.62409847  1
  V  V29  1  0.61737146  0.36996759  0.75059582  1
  V  V30  1  0.88510345  0.74733948  0.62888927  1
  V  V31  1  0.62867587  0.74828464  0.86580244  1
  V  V32  1  0.38049798  0.49561952  0.89326675  1
  V  V33  1  -0.00279107  0.62609150  0.12198038  1
  V  V34  1  0.24636815  0.37471169  0.62078951  1
  V  V35  1  0.13834896  0.12282767  0.50355178  1
  V  V36  1  0.49521493  0.86995024  0.89100811  1
  V  V37  1  0.61893102  0.61716265  0.00267721  1
  V  V38  1  0.63320214  0.87011843  0.23715491  1
  V  V39  1  0.00551820  0.89265541  0.37567232  1
  V  V40  1  0.76585306  0.12260698  0.37933090  1
  V  V41  1  0.86671135  0.37823889  0.01239073  1
  V  V42  1  0.38518977  0.23002317  0.12665954  1
  V  V43  1  0.85532372  0.50298423  0.87821822  1
  V  V44  1  0.87040140  0.88055773  0.00098617  1
  V  V45  1  0.12991329  0.62511392  0.51076412  1
  V  V46  1  0.49157105  0.75136869  0.25394814  1
  V  V47  1  0.25682479  0.76086667  0.00193603  1
  V  V48  1  0.87802530  0.37809540  0.49040253  1
  V  V49  1  0.74966515  0.37067239  0.62522064  1
  V  V50  1  0.12971914  0.87207094  0.74428137  1
  V  V51  1  0.87382544  0.23321083  0.13175677  1
  V  V52  1  0.37889070  0.01783191  0.38673949  1
  V  V53  1  0.37283074  -0.01345435  0.88029475  1
  V  V54  1  0.24769074  0.12871122  0.34770165  1
  V  V55  1  0.25589111  0.12480250  0.88578055  1
  V  V56  1  0.12210294  0.62261621  -0.00143614  1
  V  V57  1  0.86621253  0.61430935  0.74994020  1
  V  V58  1  0.25394000  0.50457512  0.24837231  1
  V  V59  1  0.63085665  0.62051693  0.49145390  1
  V  V60  1  0.49363059  0.61413536  0.12609040  1
  V  V61  1  0.63964219  0.38342525  0.23299649  1
  V  V62  1  -0.00024935  0.11667926  0.61695517  1
  V  V63  1  0.37719180  0.50472096  0.36891028  1
  V  V64  1  0.63198088  0.24755521  0.88342423  1
  V  V65  1  0.12558315  0.38767171  0.74401606  1
  V  V66  1  0.62450128  0.00235027  0.62021354  1
  V  V67  1  0.76425152  0.52320269  0.25944278  1
  V  V68  1  0.75588060  0.00160313  0.24647741  1
  V  V69  1  0.24814205  0.63667430  0.37167622  1
  V  V70  1  0.75424294  0.74537058  0.50281211  1
  V  V71  1  0.75011709  0.74375754  -0.00399387  1
  V  V72  1  -0.00373198  0.24562447  0.75313529  1
  Zn  Zn73  1  0.87207867  0.10986589  0.75557894  1
  Zn  Zn74  1  0.74229657  0.24773586  0.01385079  1
  Zn  Zn75  1  -0.00048113  0.24657509  0.24751247  1
  Zn  Zn76  1  0.01708692  0.61834203  0.64376549  1
  Zn  Zn77  1  0.90034308  0.10147325  0.24846717  1
  Zn  Zn78  1  0.36214052  0.22784353  0.65470173  1
  Zn  Zn79  1  0.37128528  0.75119956  0.12507834  1
  Zn  Zn80  1  0.12681601  -0.01867164  0.60905099  1
  Zn  Zn81  1  0.01022568  0.49072631  0.50948473  1
  Zn  Zn82  1  0.17671280  0.18988262  0.17147702  1
  Zn  Zn83  1  0.18387137  0.19301068  0.69186571  1
  Zn  Zn84  1  0.18840450  0.69465808  0.18726779  1
  Zn  Zn85  1  0.20043367  0.69547964  0.68328680  1
  Zn  Zn86  1  0.68466562  0.19129951  0.19409790  1
  Zn  Zn87  1  0.68740611  0.18441238  0.70388210  1
  Zn  Zn88  1  0.68738002  0.67417460  0.18693998  1
  Zn  Zn89  1  0.69074874  0.68435631  0.68418022  1
  Zn  Zn90  1  0.30695079  0.31166747  0.30255823  1
  Zn  Zn91  1  0.30684815  0.31130747  0.81851005  1
  Zn  Zn92  1  0.31882893  0.83121084  0.32480198  1
  Zn  Zn93  1  0.30937191  0.80615598  0.80691230  1
  Zn  Zn94  1  0.80860034  0.31571371  0.30494833  1
  Zn  Zn95  1  0.80971066  0.31808825  0.80692417  1
  Zn  Zn96  1  0.81300120  0.80946077  0.31763679  1
  Zn  Zn97  1  0.81552614  0.81798981  0.81039589  1
  Zn  Zn98  1  0.19297793  0.44311345  0.43915177  1
  Zn  Zn99  1  0.18372939  0.43843473  0.93116224  1
  Zn  Zn100  1  0.19088183  0.94074384  0.42242260  1
  Zn  Zn101  1  0.18427460  0.94111595  0.93646486  1
  Zn  Zn102  1  0.69553220  0.43500073  0.43658789  1
  Zn  Zn103  1  0.68439008  0.43280933  0.94402702  1
  Zn  Zn104  1  0.69697909  0.93568019  0.43414487  1
  Zn  Zn105  1  0.67884395  0.92965283  0.94463738  1
  Zn  Zn106  1  0.31630527  0.05427870  0.06169624  1
  Zn  Zn107  1  0.31237173  0.06165275  0.56356637  1
  Zn  Zn108  1  0.30848115  0.56801475  0.06467320  1
  Zn  Zn109  1  0.31040516  0.55640423  0.55864116  1
  Zn  Zn110  1  0.79986292  0.06202473  0.06488553  1
  Zn  Zn111  1  0.81582828  0.06230554  0.56237087  1
  Zn  Zn112  1  0.80444858  0.55796189  0.06777670  1
  Zn  Zn113  1  0.81448527  0.55865317  0.56245623  1
  Zn  Zn114  1  0.43640310  0.42933544  0.18335090  1
  Zn  Zn115  1  0.41241169  0.40147777  0.70703512  1
  Zn  Zn116  1  0.44217098  0.94086158  0.21809543  1
  Zn  Zn117  1  0.44253351  1.06616262  0.70216208  1
  Zn  Zn118  1  0.93368426  0.44653639  0.19511794  1
  Zn  Zn119  1  0.93856841  0.43802502  0.68608039  1
  Zn  Zn120  1  0.94137824  0.92590519  0.18450625  1
  Zn  Zn121  1  0.95007601  0.92270071  0.67619931  1
  Zn  Zn122  1  0.07416215  0.06248151  0.30777134  1
  Zn  Zn123  1  0.06234106  0.05946108  0.81217507  1
  Zn  Zn124  1  0.06737615  0.56949136  0.31310429  1
  Zn  Zn125  1  0.05181965  0.56740257  0.81067594  1
  Zn  Zn126  1  0.56524406  0.05899856  0.31532336  1
  Zn  Zn127  1  0.53869070  0.08397093  0.86937069  1
  Zn  Zn128  1  0.56530178  0.56215148  0.30805269  1
  Zn  Zn129  1  0.56167162  0.56079173  0.81506865  1
  Zn  Zn130  1  0.44792921  0.17466609  0.42586412  1
  Zn  Zn131  1  0.43355399  0.19461662  0.95963661  1
  Zn  Zn132  1  0.43825086  0.68705782  0.43499592  1
  Zn  Zn133  1  0.43715714  0.68347171  0.93645233  1
  Zn  Zn134  1  0.93915451  0.19172624  0.43506538  1
  Zn  Zn135  1  0.93099294  0.18637400  0.94317761  1
  Zn  Zn136  1  0.94044260  0.68079949  0.44129757  1
  Zn  Zn137  1  0.93558419  0.68604417  0.93454602  1
  Zn  Zn138  1  0.05738086  0.31143830  0.06494808  1
  Zn  Zn139  1  0.05562082  0.31002306  0.56670303  1
  Zn  Zn140  1  0.06134937  0.81335531  0.06041984  1
  Zn  Zn141  1  0.06587086  0.79896714  0.55104990  1
  Zn  Zn142  1  0.55424780  0.30439346  0.06861713  1
  Zn  Zn143  1  0.57105376  0.31695558  0.54995893  1
  Zn  Zn144  1  0.56233778  0.80498776  0.06561467  1
  Zn  Zn145  1  0.56502099  0.80392678  0.56518416  1
  O  O146  1  0.08420134  0.14089949  0.13756046  1
  O  O147  1  0.11372663  0.13259941  0.61482689  1
  O  O148  1  0.11977693  0.62136302  0.11714927  1
  O  O149  1  0.13615604  0.62590960  0.61723188  1
  O  O150  1  0.61750792  0.11540136  0.13837347  1
  O  O151  1  0.63789465  0.10600506  0.62711641  1
  O  O152  1  0.61150357  0.63635841  0.11010390  1
  O  O153  1  0.61730276  0.61655461  0.61762311  1
  O  O154  1  0.38435084  0.37927659  0.37816430  1
  O  O155  1  0.38341664  0.38582158  0.87884288  1
  O  O156  1  0.38519567  0.92710614  0.33034194  1
  O  O157  1  0.37946061  0.87755294  0.86880710  1
  O  O158  1  0.86750338  0.36048707  0.39266186  1
  O  O159  1  0.88136856  0.38498419  0.87636839  1
  O  O160  1  0.88957435  0.86906078  0.38358861  1
  O  O161  1  0.89036971  0.86409919  0.88709436  1
  O  O162  1  0.25613295  0.02232722  0.36927571  1
  O  O163  1  0.25425927  0.00482742  0.86622188  1
  O  O164  1  0.25881687  0.50730283  0.36621921  1
  O  O165  1  0.26144234  0.50771098  0.87796889  1
  O  O166  1  0.74400544  0.01257764  0.36256512  1
  O  O167  1  0.74206556  0.00630652  0.88580620  1
  O  O168  1  0.74400872  0.49850470  0.36078808  1
  O  O169  1  0.75711617  0.49473159  0.87296764  1
  O  O170  1  0.23735932  0.50044594  0.13058047  1
  O  O171  1  0.25661673  0.47701868  0.62086397  1
  O  O172  1  0.29561939  0.95103104  0.12994343  1
  O  O173  1  0.24235370  1.00092983  0.63718070  1
  O  O174  1  0.74435576  0.51724956  0.15120916  1
  O  O175  1  0.73591596  0.49009732  0.61949995  1
  O  O176  1  0.73295987  1.00262116  0.14175445  1
  O  O177  1  0.73140074  0.99824836  0.61659023  1
  O  O178  1  0.01384545  0.38526903  0.25287091  1
  O  O179  1  0.00407569  0.36686128  0.75944489  1
  O  O180  1  0.00310895  0.86380748  0.26042904  1
  O  O181  1  0.00981300  0.87796286  0.76566568  1
  O  O182  1  0.50645244  0.38021688  0.26105564  1
  O  O183  1  0.51589323  0.38360388  0.75615141  1
  O  O184  1  0.52054980  0.85878908  0.25123390  1
  O  O185  1  0.49192141  0.85276339  0.75058570  1
  O  O186  1  0.47340101  0.10677467  0.24427540  1
  O  O187  1  0.52793878  0.10198084  0.76047897  1
  O  O188  1  0.51144586  0.64006873  0.23628818  1
  O  O189  1  0.49259275  0.62424412  0.74186912  1
  O  O190  1  1.01023827  0.12993796  0.24590547  1
  O  O191  1  0.99584956  0.12837582  0.74371903  1
  O  O192  1  1.00605641  0.63574187  0.23653412  1
  O  O193  1  0.97833701  0.63166499  0.75420538  1
  O  O194  1  0.36778835  0.25578622  0.02312717  1
  O  O195  1  0.37890876  0.25756034  0.48501538  1
  O  O196  1  0.36022272  0.74706934  -0.00555541  1
  O  O197  1  0.36368592  0.74737604  0.49313335  1
  O  O198  1  0.87344964  0.26347745  0.01244370  1
  O  O199  1  0.88130228  0.25616277  0.51660841  1
  O  O200  1  0.86656736  0.75105266  0.00289077  1
  O  O201  1  0.86926590  0.74080054  0.50800471  1
  O  O202  1  0.12064975  0.24589673  0.49018390  1
  O  O203  1  0.11744240  0.25520222  0.98453429  1
  O  O204  1  0.14952079  0.73684198  0.50111247  1
  O  O205  1  0.13377843  0.74180812  0.99239293  1
  O  O206  1  0.63348661  0.25820576  0.47550075  1
  O  O207  1  0.62738130  0.26262898  0.98756937  1
  O  O208  1  0.63087544  0.74144783  0.49599647  1
  O  O209  1  0.63316431  0.74757778  0.98944914  1
  O  O210  1  0.48865704  0.23297544  0.12231957  1
  O  O211  1  0.50709375  0.22158885  0.58989082  1
  O  O212  1  0.49059636  0.74966067  0.13697163  1
  O  O213  1  0.50796200  0.73525470  0.63700008  1
  O  O214  1  0.97861849  0.26201017  0.12808843  1
  O  O215  1  0.99160399  0.23796693  0.63539728  1
  O  O216  1  0.99128941  0.74287535  0.13118333  1
  O  O217  1  0.98832189  0.73767871  0.62030519  1
  O  O218  1  0.01972149  0.24577848  0.36914676  1
  O  O219  1  0.00435435  0.25492807  0.87081104  1
  O  O220  1  -0.00995200  0.74183768  0.35699786  1
  O  O221  1  0.01306765  0.75899055  0.88348922  1
  O  O222  1  0.51020774  0.25898002  0.37248725  1
  O  O223  1  0.50961166  0.26699602  0.88138970  1
  O  O224  1  0.51082091  0.74089774  0.36085274  1
  O  O225  1  0.50233271  0.75477327  0.86605435  1
  O  O226  1  0.23704220  0.13482079  0.50863940  1
  O  O227  1  0.24553615  0.11253149  0.98443674  1
  O  O228  1  0.24960488  0.62852787  0.48901968  1
  O  O229  1  0.23982649  0.63089035  0.98847139  1
  O  O230  1  0.76305940  0.11980736  0.47960117  1
  O  O231  1  0.75588505  0.13287173  0.98626254  1
  O  O232  1  0.73834755  0.62821697  0.50616038  1
  O  O233  1  0.73611033  0.63529154  1.00134845  1
  O  O234  1  0.23607735  0.38027358  0.01195463  1
  O  O235  1  0.26133623  0.37117664  0.49885111  1
  O  O236  1  0.24452130  0.85933158  -0.00935753  1
  O  O237  1  0.24960855  0.86321129  0.48276522  1
  O  O238  1  0.76348768  0.37246903  0.00027501  1
  O  O239  1  0.75752043  0.37182993  0.51569285  1
  O  O240  1  0.76338851  0.86066224  -0.00808966  1
  O  O241  1  0.77129225  0.86289623  0.49029653  1
  O  O242  1  0.13107179  0.49632934  0.24509210  1
  O  O243  1  0.11504394  0.48656095  0.75501614  1
  O  O244  1  0.12939230  0.98334288  0.24953551  1
  O  O245  1  0.13193959  0.98512740  0.75207567  1
  O  O246  1  0.62655806  0.48688857  0.25088923  1
  O  O247  1  0.62192334  0.49496683  0.73916414  1
  O  O248  1  0.62694929  0.98428795  0.24831954  1
  O  O249  1  0.62695885  0.98512597  0.72157493  1
  O  O250  1  0.41375927  0.05822828  0.24884361  1
  O  O251  1  0.35823599  -0.00013250  0.75734839  1
  O  O252  1  0.36526080  0.49236229  0.25743717  1
  O  O253  1  0.37712713  0.50410166  0.75613095  1
  O  O254  1  0.85993364  -0.01042432  0.24064126  1
  O  O255  1  0.86328194  -0.02698832  0.74391250  1
  O  O256  1  0.86633502  0.50913974  0.25523598  1
  O  O257  1  0.87170116  0.50684743  0.76046553  1
  O  O258  1  0.13066357  0.36999926  0.36857779  1
  O  O259  1  0.11263129  0.36858546  0.86743675  1
  O  O260  1  0.10951198  0.87567306  0.36683480  1
  O  O261  1  0.11645400  0.86762032  0.86825529  1
  O  O262  1  0.61344749  0.37153225  0.37161306  1
  O  O263  1  0.61518566  0.37711319  0.86744028  1
  O  O264  1  0.62563379  0.86096627  0.37807606  1
  O  O265  1  0.60727351  0.86049855  0.87789367  1
  O  O266  1  0.35622715  0.13140376  0.12824886  1
  O  O267  1  0.37918826  0.12144898  0.62974541  1
  O  O268  1  0.38832028  0.62918543  0.12153009  1
  O  O269  1  0.38645247  0.61249258  0.62975145  1
  O  O270  1  0.87523263  0.13028975  0.12877410  1
  O  O271  1  0.88427895  0.12628128  0.63040491  1
  O  O272  1  0.88572802  0.63621030  0.11230030  1
  O  O273  1  0.87085829  0.63097213  0.63649772  1
  O  O274  1  0.24560252  0.26853475  0.12700265  1
  O  O275  1  0.25173287  0.26359525  0.63285036  1
  O  O276  1  0.25483095  0.74460786  0.10910302  1
  O  O277  1  0.26132889  0.76376719  0.61533229  1
  O  O278  1  0.76572005  0.24682743  0.12818083  1
  O  O279  1  0.75912629  0.25217983  0.63585024  1
  O  O280  1  0.76251658  0.74206862  0.11681821  1
  O  O281  1  0.75618338  0.75011778  0.61158331  1
  O  O282  1  0.23306004  0.24242791  0.36524975  1
  O  O283  1  0.23566319  0.23684733  0.87052329  1
  O  O284  1  0.26351019  0.73651578  0.37132897  1
  O  O285  1  0.24136162  0.73881296  0.88158937  1
  O  O286  1  0.74634695  0.23475898  0.36554552  1
  O  O287  1  0.73630833  0.26271599  0.87714994  1
  O  O288  1  0.74278868  0.74760729  0.38855337  1
  O  O289  1  0.73499285  0.75877934  0.87338250  1
  O  O290  1  -0.00787291  0.10579594  -0.00621079  1
  O  O291  1  0.00320697  0.12787655  0.51351280  1
  O  O292  1  0.01223776  0.63323209  0.00740614  1
  O  O293  1  0.02693945  0.63721514  0.50386243  1
  O  O294  1  0.50142873  0.11020419  -0.03120497  1
  O  O295  1  0.50599670  0.16648428  0.53615898  1
  O  O296  1  0.50813538  0.63151477  0.01158101  1
  O  O297  1  0.50626693  0.61663713  0.50554455  1
  O  O298  1  0.49190925  0.37926681  0.48773866  1
  O  O299  1  0.50599573  0.38175025  0.99109891  1
  O  O300  1  0.47168137  0.86907347  0.51776839  1
  O  O301  1  0.49287325  0.86184017  0.98966753  1
  O  O302  1  0.98575199  0.37395316  0.50293939  1
  O  O303  1  0.98789540  0.37244587  0.98545030  1
  O  O304  1  0.99613273  0.86609416  0.48408567  1
  O  O305  1  0.99248018  0.88173952  0.99235364  1
  O  O306  1  0.49575822  0.49371651  0.38065766  1
  O  O307  1  0.48793169  0.49233378  0.87567624  1
  O  O308  1  0.47934199  1.05633943  0.39479351  1
  O  O309  1  0.48546173  0.97721293  0.86933113  1
  O  O310  1  0.98353982  0.52971205  0.38848731  1
  O  O311  1  0.99383439  0.48687735  0.87482848  1
  O  O312  1  0.99969345  0.99184949  0.37087375  1
  O  O313  1  1.00431669  0.98599277  0.88554093  1
  O  O314  1  -0.00611699  -0.00615042  0.11245831  1
  O  O315  1  0.00742647  0.01326325  0.63134780  1
  O  O316  1  0.01122618  0.51170696  0.13118105  1
  O  O317  1  -0.00648627  0.50944876  0.62098675  1
  O  O318  1  0.51340599  -0.01388370  0.13648257  1
  O  O319  1  0.52220303  0.01821562  0.61635040  1
  O  O320  1  0.49718006  0.51513367  0.13328545  1
  O  O321  1  0.50943205  0.50431833  0.61189144  1
  O  O322  1  0.23731021  0.39047369  0.24187261  1
  O  O323  1  0.22910709  0.37478620  0.74885761  1
  O  O324  1  0.23200415  0.85921994  0.25748572  1
  O  O325  1  0.23697273  0.88346865  0.75457754  1
  O  O326  1  0.74322270  0.38628932  0.24385842  1
  O  O327  1  0.73510977  0.37562483  0.73698084  1
  O  O328  1  0.73964994  0.88438489  0.26164793  1
  O  O329  1  0.80067271  0.92663934  0.75683400  1
  O  O330  1  0.23786033  0.12749157  0.24958930  1
  O  O331  1  0.23524770  0.10968834  0.75911357  1
  O  O332  1  0.24371841  0.61700800  0.25856813  1
  O  O333  1  0.26068732  0.63077884  0.76012775  1
  O  O334  1  0.75288996  0.10980584  0.25583218  1
  O  O335  1  0.75572507  0.12429861  0.77065715  1
  O  O336  1  0.74925882  0.62627131  0.26600670  1
  O  O337  1  0.76561670  0.63149332  0.75301514  1
  O  O338  1  0.35114680  0.13253497  0.37434570  1
  O  O339  1  0.35909136  0.11559507  0.87281091  1
  O  O340  1  0.36760453  0.61177064  0.37587693  1
  O  O341  1  0.37136861  0.61120498  0.86889015  1
  O  O342  1  0.87060880  0.13038975  0.36318949  1
  O  O343  1  0.86477223  0.12054136  0.87405746  1
  O  O344  1  0.91870505  0.57772859  0.38607143  1
  O  O345  1  0.87554901  0.61089448  0.86981594  1
  O  O346  1  0.12639458  0.38456124  0.13408048  1
  O  O347  1  0.12664516  0.36916335  0.63677437  1
  O  O348  1  0.12147910  0.86742341  0.13840199  1
  O  O349  1  0.10854807  0.86922991  0.64028491  1
  O  O350  1  0.62020058  0.37057351  0.13504726  1
  O  O351  1  0.62608619  0.37676798  0.63235464  1
  O  O352  1  0.63374103  0.86899812  0.13611608  1
  O  O353  1  0.61524987  0.89652691  0.61090092  1
  O  O354  1  0.12357633  0.27124959  0.25441139  1
  O  O355  1  0.11061316  0.25712180  0.76070193  1
  O  O356  1  0.10956023  0.75435203  0.24873392  1
  O  O357  1  0.13467557  0.76108149  0.75933481  1
  O  O358  1  0.63330052  0.27103538  0.26344251  1
  O  O359  1  0.62240979  0.26338660  0.76181003  1
  O  O360  1  0.63056211  0.75859748  0.25681444  1
  O  O361  1  0.61428614  0.73947172  0.76096467  1
  O  O362  1  0.37205738  0.26569480  0.22542878  1
  O  O363  1  0.38587253  0.29296154  0.74178218  1
  O  O364  1  0.39004692  0.76184222  0.25492068  1
  O  O365  1  0.38533250  0.73164049  0.75583848  1
  O  O366  1  0.87719139  0.25159915  0.23819426  1
  O  O367  1  0.88485168  0.25145691  0.74428957  1
  O  O368  1  0.88037562  0.75576177  0.23459556  1
  O  O369  1  0.86797389  0.75179325  0.73265810  1
  O  O370  1  0.38445446  0.49253062  0.48761119  1
  O  O371  1  0.37504467  0.50581993  0.99135106  1
  O  O372  1  0.36052490  0.99775981  0.48283249  1
  O  O373  1  0.36603650  0.99208213  0.97930923  1
  O  O374  1  0.87241592  0.48126186  0.50283214  1
  O  O375  1  0.86753492  0.49261101  0.98803664  1
  O  O376  1  0.87690502  0.98149370  0.50625309  1
  O  O377  1  0.86886772  0.98081482  1.00827817  1
  O  O378  1  0.11619412  -0.00138521  0.00493512  1
  O  O379  1  0.13154743  0.01723513  0.49746476  1
  O  O380  1  0.12745494  0.51128843  0.00760173  1
  O  O381  1  0.12600701  0.51682919  0.49278116  1
  O  O382  1  0.62673318  -0.00558149  0.02110779  1
  O  O383  1  0.62968604  -0.00148746  0.51184199  1
  O  O384  1  0.62763385  0.51835334  -0.00591768  1
  O  O385  1  0.61722368  0.50229582  0.50392226  1
  O  O386  1  0.35517362  0.38763406  0.11803651  1
  O  O387  1  0.37260827  0.37038966  0.60058132  1
  O  O388  1  0.35698596  0.90362843  0.13745285  1
  O  O389  1  0.42557978  0.88623807  0.57402031  1
  O  O390  1  0.87926378  0.38721804  0.11142090  1
  O  O391  1  0.86652953  0.36544721  0.62531109  1
  O  O392  1  0.88178887  0.85501732  0.10857421  1
  O  O393  1  0.88803559  0.85648286  0.60572381  1
  O  O394  1  0.13494638  0.13370602  0.38620584  1
  O  O395  1  0.12642645  0.13538084  0.87430691  1
  O  O396  1  0.14345800  0.62624166  0.38147429  1
  O  O397  1  0.12877958  0.62758413  0.87757565  1
  O  O398  1  0.63310739  0.13747030  0.36508402  1
  O  O399  1  0.64149852  0.14329889  0.87525189  1
  O  O400  1  0.61781582  0.63181302  0.38766345  1
  O  O401  1  0.61147147  0.64012024  0.88755815  1
