# generated using pymatgen
data_V73Zn73O256
_symmetry_space_group_name_H-M   'P 1'
_cell_length_a   16.81337324
_cell_length_b   16.81624448
_cell_length_c   16.80999873
_cell_angle_alpha   89.97127660
_cell_angle_beta   90.01392493
_cell_angle_gamma   89.95981124
_symmetry_Int_Tables_number   1
_chemical_formula_structural   V73Zn73O256
_chemical_formula_sum   'V73 Zn73 O256'
_cell_volume   4752.82006689
_cell_formula_units_Z   1
loop_
 _symmetry_equiv_pos_site_id
 _symmetry_equiv_pos_as_xyz
  1  'x, y, z'
loop_
 _atom_site_type_symbol
 _atom_site_label
 _atom_site_symmetry_multiplicity
 _atom_site_fract_x
 _atom_site_fract_y
 _atom_site_fract_z
 _atom_site_occupancy
  V  V0  1  0.87755058  0.86826309  0.00363681  1
  V  V1  1  0.13879400  0.24517212  0.39042999  1
  V  V2  1  0.61187519  0.25578447  0.87128961  1
  V  V3  1  0.88373095  0.13759091  0.24180003  1
  V  V4  1  0.74716034  -0.00110887  0.26870968  1
  V  V5  1  0.24339104  0.12432043  0.88100128  1
  V  V6  1  0.37480078  0.00033908  0.87282010  1
  V  V7  1  0.38854342  0.13270348  0.74879528  1
  V  V8  1  0.01255042  0.12861177  0.61745859  1
  V  V9  1  0.26007288  0.25404083  0.00898297  1
  V  V10  1  0.76800839  0.86918740  0.61615086  1
  V  V11  1  0.76119272  0.61978914  0.87414555  1
  V  V12  1  0.76022873  0.26102234  0.00153042  1
  V  V13  1  0.74543331  0.74508507  0.00740838  1
  V  V14  1  0.87749928  -0.00708761  0.87072958  1
  V  V15  1  0.12348180  0.49712106  0.10990402  1
  V  V16  1  0.00049334  0.01251970  0.00022207  1
  V  V17  1  0.37994237  0.86912598  0.48229474  1
  V  V18  1  -0.01381706  0.39594063  0.88512373  1
  V  V19  1  0.36773554  0.87044887  -0.00058303  1
  V  V20  1  0.51549868  0.50186121  0.00316663  1
  V  V21  1  0.51144009  0.25242295  0.24254771  1
  V  V22  1  0.62199154  0.87552086  0.74047818  1
  V  V23  1  0.39106985  0.24997302  0.62264640  1
  V  V24  1  0.62852257  0.12607628  0.00819476  1
  V  V25  1  0.37614268  0.75462646  0.64239021  1
  V  V26  1  0.24338760  -0.00493487  0.73056760  1
  V  V27  1  0.37945272  0.74708911  0.12282870  1
  V  V28  1  0.62462328  0.50756647  0.14274188  1
  V  V29  1  0.75655450  0.49096692  0.74711812  1
  V  V30  1  0.11971832  0.51798489  0.62429864  1
  V  V31  1  0.88496075  0.13200059  0.74764874  1
  V  V32  1  0.24361202  0.36425741  0.62193416  1
  V  V33  1  0.50387806  0.77850077  0.25460063  1
  V  V34  1  0.60747322  0.11445058  0.49969308  1
  V  V35  1  0.88464198  0.63701682  0.73557452  1
  V  V36  1  0.15568958  0.11667641  0.50242957  1
  V  V37  1  0.50726682  -0.00092975  0.00587974  1
  V  V38  1  0.38618579  0.62526797  0.24753800  1
  V  V39  1  -0.00478725  -0.00929688  0.50360966  1
  V  V40  1  0.00274353  0.50835685  0.49589705  1
  V  V41  1  0.25378766  0.63510073  0.87914453  1
  V  V42  1  0.62176013  0.73937555  0.87090391  1
  V  V43  1  0.86725078  0.61390191  0.25400058  1
  V  V44  1  0.11648390  0.25112672  0.87166807  1
  V  V45  1  0.73418170  0.89015901  0.12402487  1
  V  V46  1  0.39444585  0.00636486  0.37049432  1
  V  V47  1  0.87095374  0.37605857  0.49682059  1
  V  V48  1  0.60778022  0.37492958  0.74920121  1
  V  V49  1  0.23567669  0.00624938  0.26043480  1
  V  V50  1  0.37925277  0.37495525  0.49930746  1
  V  V51  1  0.76061710  0.73501012  0.49922681  1
  V  V52  1  0.37745082  0.48518029  0.88770651  1
  V  V53  1  -0.01986701  0.75750371  0.23723313  1
  V  V54  1  0.61767892  0.50468052  0.61796822  1
  V  V55  1  0.25820752  0.50333947  0.74907364  1
  V  V56  1  0.74853940  0.00247538  0.74134287  1
  V  V57  1  0.62602361  0.75450996  0.38825913  1
  V  V58  1  0.49309066  0.62795363  0.62627798  1
  V  V59  1  0.37936716  0.50781260  0.38200337  1
  V  V60  1  0.12266638  0.64555885  -0.00811760  1
  V  V61  1  0.75310447  0.15129973  0.38887367  1
  V  V62  1  0.12348204  0.36768868  0.25570898  1
  V  V63  1  0.24442475  0.74295404  0.49595065  1
  V  V64  1  0.12716077  0.74872126  0.35420216  1
  V  V65  1  0.51083897  0.36978323  0.37277750  1
  V  V66  1  0.50122933  0.86949655  0.87175369  1
  V  V67  1  0.05963554  0.82368730  0.80207907  1
  V  V68  1  0.75427842  0.37580916  0.13620330  1
  V  V69  1  0.87004715  0.25759671  0.61972020  1
  V  V70  1  0.11708894  0.00234097  0.12408526  1
  V  V71  1  0.24371505  0.51063687  0.25681976  1
  V  V72  1  0.24205104  0.86936877  0.13079073  1
  Zn  Zn73  1  0.48657353  0.13851371  0.12281721  1
  Zn  Zn74  1  -0.01115389  0.62500744  0.11371449  1
  Zn  Zn75  1  -0.00141227  0.37211813  0.37319817  1
  Zn  Zn76  1  0.11266428  0.36834624  0.74455134  1
  Zn  Zn77  1  0.35695936  0.14099813  0.24497518  1
  Zn  Zn78  1  0.26127411  0.37367757  0.12716349  1
  Zn  Zn79  1  0.74950224  0.12954333  0.86993667  1
  Zn  Zn80  1  -0.00368732  0.87894874  0.36598984  1
  Zn  Zn81  1  0.74977164  0.49829683  0.26876875  1
  Zn  Zn82  1  0.15617699  0.19059230  0.17334428  1
  Zn  Zn83  1  0.19511080  0.18011267  0.69335821  1
  Zn  Zn84  1  0.18937874  0.68190142  0.18015042  1
  Zn  Zn85  1  0.20201062  0.68550540  0.68429807  1
  Zn  Zn86  1  0.69335454  0.18893551  0.19421129  1
  Zn  Zn87  1  0.68679653  0.19250127  0.68139483  1
  Zn  Zn88  1  0.68092889  0.68672588  0.19451658  1
  Zn  Zn89  1  0.68991206  0.68554664  0.68504927  1
  Zn  Zn90  1  0.31543869  0.31620765  0.30779633  1
  Zn  Zn91  1  0.30916001  0.31098719  0.80843489  1
  Zn  Zn92  1  0.30977332  0.81296065  0.31025306  1
  Zn  Zn93  1  0.30275750  0.81857820  0.81208117  1
  Zn  Zn94  1  0.81475604  0.31247598  0.31364212  1
  Zn  Zn95  1  0.81387065  0.31352677  0.81857887  1
  Zn  Zn96  1  0.80991233  0.81699220  0.31609492  1
  Zn  Zn97  1  0.81106173  0.81082187  0.81056509  1
  Zn  Zn98  1  0.18921924  0.44335934  0.43991249  1
  Zn  Zn99  1  0.19015616  0.42818478  0.93215570  1
  Zn  Zn100  1  0.18070742  0.92248563  0.44938841  1
  Zn  Zn101  1  0.18339622  0.93384810  0.93366187  1
  Zn  Zn102  1  0.69346459  0.43742112  0.44028947  1
  Zn  Zn103  1  0.68756113  0.43738183  0.93704182  1
  Zn  Zn104  1  0.67223497  0.93380298  0.44115130  1
  Zn  Zn105  1  0.69057277  0.93703496  0.93182571  1
  Zn  Zn106  1  0.30965470  0.06030103  0.06619719  1
  Zn  Zn107  1  0.35264841  0.04904363  0.56777592  1
  Zn  Zn108  1  0.30940100  0.56237732  0.06271809  1
  Zn  Zn109  1  0.31196279  0.56836401  0.56215490  1
  Zn  Zn110  1  0.81590956  0.06710658  0.06415642  1
  Zn  Zn111  1  0.81391036  0.06062389  0.55961101  1
  Zn  Zn112  1  0.81097777  0.56073346  0.07048257  1
  Zn  Zn113  1  0.81138055  0.55481936  0.56061898  1
  Zn  Zn114  1  0.44103003  0.43758954  0.18879177  1
  Zn  Zn115  1  0.43701558  0.43897518  0.68672875  1
  Zn  Zn116  1  0.42352006  0.96057690  0.18196148  1
  Zn  Zn117  1  0.43607862  0.93495331  0.68252684  1
  Zn  Zn118  1  0.93961435  0.43785791  0.18063094  1
  Zn  Zn119  1  0.94240546  0.43895148  0.69525315  1
  Zn  Zn120  1  0.92485321  0.94366884  0.18745864  1
  Zn  Zn121  1  0.94336116  0.94036306  0.67932206  1
  Zn  Zn122  1  0.06215423  0.06416980  0.32163939  1
  Zn  Zn123  1  0.06238315  0.04956114  0.80852174  1
  Zn  Zn124  1  0.05243105  0.57609167  0.31663180  1
  Zn  Zn125  1  0.06439010  0.55957147  0.81231092  1
  Zn  Zn126  1  0.57362366  0.07410942  0.30950058  1
  Zn  Zn127  1  0.56718759  0.06132543  0.81660027  1
  Zn  Zn128  1  0.56410922  0.56552125  0.32431266  1
  Zn  Zn129  1  0.55370099  0.55935167  0.80726850  1
  Zn  Zn130  1  0.42994891  0.18966158  0.42996259  1
  Zn  Zn131  1  0.43826832  0.18933075  0.93879857  1
  Zn  Zn132  1  0.44745421  0.68713655  0.44064227  1
  Zn  Zn133  1  0.43647392  0.67808426  0.93681806  1
  Zn  Zn134  1  0.94374251  0.18944333  0.42845503  1
  Zn  Zn135  1  0.93693505  0.18829830  0.93825728  1
  Zn  Zn136  1  0.94196848  0.69200313  0.43161684  1
  Zn  Zn137  1  0.94316510  0.69186999  0.92592032  1
  Zn  Zn138  1  0.06531433  0.30126025  0.05358493  1
  Zn  Zn139  1  0.05744381  0.30855214  0.55688796  1
  Zn  Zn140  1  0.05917921  0.81369419  0.05825670  1
  Zn  Zn141  1  0.05530370  0.79558668  0.57609440  1
  Zn  Zn142  1  0.56273682  0.32595829  0.06241375  1
  Zn  Zn143  1  0.57020391  0.31320592  0.55926495  1
  Zn  Zn144  1  0.55965665  0.80596633  0.06003694  1
  Zn  Zn145  1  0.55499992  0.81093471  0.56044996  1
  O  O146  1  0.13323596  0.09811774  0.10700797  1
  O  O147  1  0.12124402  0.13609840  0.61367751  1
  O  O148  1  0.13158223  0.61509197  0.10482930  1
  O  O149  1  0.12667769  0.61667474  0.62610465  1
  O  O150  1  0.62494913  0.13100858  0.10897357  1
  O  O151  1  0.62122819  0.14006151  0.60654098  1
  O  O152  1  0.63435915  0.60740116  0.12358475  1
  O  O153  1  0.61684371  0.61266922  0.63161251  1
  O  O154  1  0.37918263  0.38458762  0.38429960  1
  O  O155  1  0.37173919  0.38668487  0.86651035  1
  O  O156  1  0.37558439  0.88144009  0.37603717  1
  O  O157  1  0.38098309  0.87946317  0.87952846  1
  O  O158  1  0.87998203  0.36847807  0.39149443  1
  O  O159  1  0.88528996  0.37782796  0.87687033  1
  O  O160  1  0.88440394  0.86851897  0.38294826  1
  O  O161  1  0.86215721  0.88614478  0.88557044  1
  O  O162  1  0.22283458  -0.00799448  0.35849778  1
  O  O163  1  0.25905432  0.00832612  0.87543196  1
  O  O164  1  0.26351339  0.49774291  0.36527656  1
  O  O165  1  0.25490588  0.49718106  0.86166840  1
  O  O166  1  0.74977532  -0.01191898  0.36868137  1
  O  O167  1  0.75963560  0.00450329  0.86279669  1
  O  O168  1  0.75179264  0.50713568  0.38001808  1
  O  O169  1  0.74168347  0.51491571  0.86586690  1
  O  O170  1  0.24052863  0.50206502  0.13869464  1
  O  O171  1  0.24378637  0.49809043  0.63269343  1
  O  O172  1  0.23817284  0.98680389  0.12907909  1
  O  O173  1  0.26374404  1.00775047  0.63311983  1
  O  O174  1  0.74045797  0.49229271  0.13358651  1
  O  O175  1  0.73402749  0.50666320  0.64238442  1
  O  O176  1  0.74218939  0.99045729  0.11176974  1
  O  O177  1  0.75703098  0.98657043  0.63388434  1
  O  O178  1  0.01999910  0.38611122  0.25198371  1
  O  O179  1  0.00178252  0.38033728  0.77250898  1
  O  O180  1  -0.01117872  0.86421596  0.24223970  1
  O  O181  1  -0.00465835  0.89741184  0.76918082  1
  O  O182  1  0.50067649  0.36942233  0.26414757  1
  O  O183  1  0.50855062  0.37735521  0.75537786  1
  O  O184  1  0.48865232  0.87610378  0.24451556  1
  O  O185  1  0.51091724  0.88284620  0.75930066  1
  O  O186  1  0.50289919  0.14245197  0.24721633  1
  O  O187  1  0.48746009  0.11957720  0.75496486  1
  O  O188  1  0.48693626  0.62422904  0.24729946  1
  O  O189  1  0.49931087  0.62300035  0.73229290  1
  O  O190  1  0.98270420  0.11422143  0.25844675  1
  O  O191  1  0.98993544  0.11747212  0.74006695  1
  O  O192  1  0.99026528  0.63713089  0.24071171  1
  O  O193  1  0.98225804  0.61534268  0.75558789  1
  O  O194  1  0.36115588  0.23989068  0.00224933  1
  O  O195  1  0.37631714  0.25730698  0.51412495  1
  O  O196  1  0.38421722  0.76094217  0.00771329  1
  O  O197  1  0.36771532  0.75807615  0.48927840  1
  O  O198  1  0.85861954  0.24249407  -0.00051318  1
  O  O199  1  0.88454092  0.25990383  0.51210327  1
  O  O200  1  0.86138201  0.76154482  -0.01116934  1
  O  O201  1  0.86039673  0.74813413  0.49272632  1
  O  O202  1  0.13630811  0.24023140  0.49766149  1
  O  O203  1  0.14355666  0.24457553  0.97776520  1
  O  O204  1  0.14469040  0.75672540  0.51381355  1
  O  O205  1  0.13185808  0.74442661  0.99843377  1
  O  O206  1  0.63261152  0.23021337  0.51763693  1
  O  O207  1  0.62666981  0.24277315  0.98910927  1
  O  O208  1  0.62877916  0.75271128  0.49367412  1
  O  O209  1  0.63565480  0.75285073  0.98461452  1
  O  O210  1  0.50414758  0.25708085  0.13529602  1
  O  O211  1  0.48893644  0.25842842  0.62965726  1
  O  O212  1  0.48702109  0.75776297  0.13617440  1
  O  O213  1  0.48883962  0.74116017  0.62642488  1
  O  O214  1  1.05214348  0.22890432  0.13524576  1
  O  O215  1  0.99408586  0.23473999  0.62580035  1
  O  O216  1  1.00487668  0.74768485  0.13405037  1
  O  O217  1  0.97750182  0.72192821  0.60423816  1
  O  O218  1  0.02640095  0.25571517  0.38318270  1
  O  O219  1  0.01605641  0.23708170  0.87337718  1
  O  O220  1  0.00524139  0.75277421  0.35213600  1
  O  O221  1  0.00489722  0.76061183  0.86047503  1
  O  O222  1  0.49689268  0.26448851  0.36962779  1
  O  O223  1  0.51210518  0.25062519  0.87588829  1
  O  O224  1  0.50274692  0.75412606  0.36025011  1
  O  O225  1  0.51162467  0.75455693  0.88076454  1
  O  O226  1  0.25310043  0.11677503  0.50866715  1
  O  O227  1  0.25487080  0.12354933  0.98573578  1
  O  O228  1  0.25687470  0.64131567  0.49360013  1
  O  O229  1  0.23948774  0.62084556  0.98723327  1
  O  O230  1  0.75271065  0.12472662  0.49040453  1
  O  O231  1  0.73861932  0.13355182  0.99840609  1
  O  O232  1  0.74947889  0.63568563  0.50652961  1
  O  O233  1  0.75556290  0.63741404  0.98778727  1
  O  O234  1  0.25068683  0.35843984  0.00217344  1
  O  O235  1  0.26125273  0.38307900  0.51582000  1
  O  O236  1  0.26212536  0.88270719  0.00561485  1
  O  O237  1  0.26580408  0.86191733  0.49981466  1
  O  O238  1  0.74976672  0.36467880  0.00145900  1
  O  O239  1  0.77131716  0.38245193  0.50816340  1
  O  O240  1  0.75240266  0.86629632  0.00327861  1
  O  O241  1  0.74756416  0.87493458  0.51573438  1
  O  O242  1  0.13737925  0.50540784  0.25567644  1
  O  O243  1  0.13405464  0.49519576  0.73667376  1
  O  O244  1  0.12288907  0.99952864  0.23386149  1
  O  O245  1  0.14289091  1.01071360  0.74140995  1
  O  O246  1  0.62506327  0.50313598  0.24651410  1
  O  O247  1  0.62984029  0.48685386  0.75165191  1
  O  O248  1  0.64837718  1.01299300  0.24517670  1
  O  O249  1  0.63601908  0.98697963  0.75749441  1
  O  O250  1  0.35006520  -0.00849909  0.26835111  1
  O  O251  1  0.37137072  0.00722805  0.76084887  1
  O  O252  1  0.36702221  0.50732585  0.25716748  1
  O  O253  1  0.36186122  0.50034239  0.75209348  1
  O  O254  1  0.85428320  0.01432742  0.24150021  1
  O  O255  1  0.86813507  0.00835057  0.75332203  1
  O  O256  1  0.87536999  0.50832398  0.24909420  1
  O  O257  1  0.85881669  0.50702151  0.74522916  1
  O  O258  1  0.12984471  0.37164620  0.36822583  1
  O  O259  1  0.12023869  0.36110939  0.86979500  1
  O  O260  1  0.11113832  0.85342081  0.38570877  1
  O  O261  1  0.13044479  0.86680017  0.86099508  1
  O  O262  1  0.60870992  0.37956344  0.38892664  1
  O  O263  1  0.62757653  0.36464617  0.86599173  1
  O  O264  1  0.62163489  0.85818743  0.37190154  1
  O  O265  1  0.61810471  0.86682110  0.86794587  1
  O  O266  1  0.38748057  0.08343882  0.14485003  1
  O  O267  1  0.37115519  0.14305422  0.63692495  1
  O  O268  1  0.36454212  0.63887302  0.13209119  1
  O  O269  1  0.38261930  0.63452949  0.62573830  1
  O  O270  1  0.86810174  0.13146525  0.13914646  1
  O  O271  1  0.88316852  0.13306170  0.63253334  1
  O  O272  1  0.87595822  0.62479517  0.13633592  1
  O  O273  1  0.86589482  0.62047586  0.63791512  1
  O  O274  1  0.24162304  0.24390210  0.11122010  1
  O  O275  1  0.25837062  0.26317587  0.63185820  1
  O  O276  1  0.26024424  0.76292108  0.12929660  1
  O  O277  1  0.26987536  0.74302445  0.61373836  1
  O  O278  1  0.73911913  0.26378343  0.11315920  1
  O  O279  1  0.77093874  0.25196276  0.62856077  1
  O  O280  1  0.74130080  0.75424154  0.10895349  1
  O  O281  1  0.74359488  0.76070002  0.61367597  1
  O  O282  1  0.23936763  0.25786124  0.37543932  1
  O  O283  1  0.25329915  0.23483002  0.87897451  1
  O  O284  1  0.23624160  0.75536683  0.37962221  1
  O  O285  1  0.25555438  0.73453034  0.87088527  1
  O  O286  1  0.74506689  0.25091428  0.38393765  1
  O  O287  1  0.74265969  0.24988626  0.88759246  1
  O  O288  1  0.73947737  0.75568370  0.38887513  1
  O  O289  1  0.73962341  0.74077590  0.87958104  1
  O  O290  1  -0.00674197  0.11143625  0.00601262  1
  O  O291  1  0.00397563  0.11843917  0.51037729  1
  O  O292  1  0.01619266  0.63444845  -0.00370503  1
  O  O293  1  -0.01024965  0.60817361  0.49847960  1
  O  O294  1  0.50931604  0.11812274  0.00198828  1
  O  O295  1  0.50787719  0.12441431  0.48432791  1
  O  O296  1  0.48171346  0.60196886  0.00648448  1
  O  O297  1  0.50024199  0.62537402  0.51987899  1
  O  O298  1  0.48759210  0.37188909  0.49266779  1
  O  O299  1  0.49934842  0.39803543  0.99913127  1
  O  O300  1  0.48106953  0.87201409  0.49828252  1
  O  O301  1  0.49521620  0.87870888  0.98723126  1
  O  O302  1  0.99503727  0.38439050  0.49903304  1
  O  O303  1  1.00700314  0.36216607  0.98233400  1
  O  O304  1  1.01953443  0.89445304  0.52918971  1
  O  O305  1  0.98071684  0.87663959  1.00022323  1
  O  O306  1  0.48554188  0.48884947  0.36896395  1
  O  O307  1  0.48421929  0.50551353  0.88360718  1
  O  O308  1  0.49279326  1.00209706  0.35791422  1
  O  O309  1  0.49317622  0.99045214  0.88033129  1
  O  O310  1  1.01242484  0.49619138  0.39167108  1
  O  O311  1  1.00555094  0.49553431  0.88826315  1
  O  O312  1  1.01287020  0.99307430  0.39755367  1
  O  O313  1  0.98993367  1.00608784  0.88786074  1
  O  O314  1  0.00707263  -0.00966251  0.11345121  1
  O  O315  1  0.00332582  0.02017634  0.62117424  1
  O  O316  1  0.02129535  0.50514158  0.12883389  1
  O  O317  1  0.01622638  0.49701624  0.62250582  1
  O  O318  1  0.50964503  -0.01430738  0.10532834  1
  O  O319  1  0.45691951  0.01694233  0.61133305  1
  O  O320  1  0.51706869  0.49576916  0.11996796  1
  O  O321  1  0.50808716  0.50685418  0.62708597  1
  O  O322  1  0.24095978  0.39003861  0.24944319  1
  O  O323  1  0.24979221  0.38626770  0.73570327  1
  O  O324  1  0.24728598  0.88252578  0.23521552  1
  O  O325  1  0.25521195  0.89510811  0.74764581  1
  O  O326  1  0.75010209  0.37446949  0.24058783  1
  O  O327  1  0.74836356  0.38870524  0.75613456  1
  O  O328  1  0.75534112  0.88673921  0.23270986  1
  O  O329  1  0.74122984  0.87952554  0.73963065  1
  O  O330  1  0.23815834  0.10903095  0.24177995  1
  O  O331  1  0.26568567  0.11488470  0.76126595  1
  O  O332  1  0.25992942  0.61573689  0.25019080  1
  O  O333  1  0.24178716  0.61071368  0.76338672  1
  O  O334  1  0.75576660  0.12246868  0.26806037  1
  O  O335  1  0.75894725  0.11653101  0.74322417  1
  O  O336  1  0.76211629  0.62592640  0.24683279  1
  O  O337  1  0.75541852  0.62119754  0.76107164  1
  O  O338  1  0.37227444  0.10949558  0.36779850  1
  O  O339  1  0.37183106  0.11839170  0.86695914  1
  O  O340  1  0.38327156  0.61237636  0.36894331  1
  O  O341  1  0.35782105  0.61018437  0.87927219  1
  O  O342  1  0.86083834  0.13353813  0.37095099  1
  O  O343  1  0.87437265  0.11786549  0.86030929  1
  O  O344  1  0.88276834  0.63005453  0.35401737  1
  O  O345  1  0.86328112  0.62640957  0.86832414  1
  O  O346  1  0.13261415  0.38824804  0.13846231  1
  O  O347  1  0.13734356  0.37182063  0.62327202  1
  O  O348  1  0.13835573  0.87841123  0.11353870  1
  O  O349  1  0.10279932  0.81571222  0.69141158  1
  O  O350  1  0.64037463  0.39350029  0.11615343  1
  O  O351  1  0.61862701  0.38468609  0.64073073  1
  O  O352  1  0.63568422  0.87316444  0.11462331  1
  O  O353  1  0.62031322  0.87138194  0.63957225  1
  O  O354  1  0.13379008  0.26484373  0.26196994  1
  O  O355  1  0.13883352  0.24970166  0.76543201  1
  O  O356  1  0.12517917  0.74793953  0.25066251  1
  O  O357  1  0.11266036  0.74312744  0.73633436  1
  O  O358  1  0.61314656  0.25186804  0.25145214  1
  O  O359  1  0.63161044  0.26284320  0.75912214  1
  O  O360  1  0.60592076  0.75851783  0.24341645  1
  O  O361  1  0.63268172  0.76399896  0.76151952  1
  O  O362  1  0.38923236  0.25027757  0.25358865  1
  O  O363  1  0.37618843  0.24008119  0.74444871  1
  O  O364  1  0.38356284  0.74580231  0.24513170  1
  O  O365  1  0.37175249  0.75607239  0.74206078  1
  O  O366  1  0.87741797  0.24015418  0.25243645  1
  O  O367  1  0.87370276  0.23609027  0.74662987  1
  O  O368  1  0.87773974  0.74662061  0.24364852  1
  O  O369  1  0.87139015  0.73791003  0.75025768  1
  O  O370  1  0.36997599  0.49544054  0.48799772  1
  O  O371  1  0.36304515  0.49051188  0.98895728  1
  O  O372  1  0.36575059  0.98624107  0.47379728  1
  O  O373  1  0.38511225  0.99166920  0.99029946  1
  O  O374  1  0.89106568  0.48531982  0.51459860  1
  O  O375  1  0.86991572  0.49358983  1.00244865  1
  O  O376  1  0.89466718  0.99674672  0.50860251  1
  O  O377  1  0.88083008  0.99400491  0.99248812  1
  O  O378  1  0.10586812  -0.01203472  0.00176704  1
  O  O379  1  0.12796137  0.01625781  0.50311436  1
  O  O380  1  0.13238034  0.49289508  0.00970982  1
  O  O381  1  0.11907396  0.49802804  0.51476598  1
  O  O382  1  0.62078222  0.01835613  -0.01791616  1
  O  O383  1  0.62536526  0.01355919  0.50615233  1
  O  O384  1  0.61787173  0.50905207  -0.00552101  1
  O  O385  1  0.62869995  0.49139022  0.52057197  1
  O  O386  1  0.37286556  0.37645902  0.12698937  1
  O  O387  1  0.36939444  0.36789595  0.62123777  1
  O  O388  1  0.36406762  0.87206773  0.11698328  1
  O  O389  1  0.38013150  0.85710175  0.61531463  1
  O  O390  1  0.85606051  0.38492222  0.12177656  1
  O  O391  1  0.88838436  0.36119199  0.62441032  1
  O  O392  1  0.85882042  0.87918535  0.10666983  1
  O  O393  1  0.86706308  0.86958740  0.62816994  1
  O  O394  1  0.13170741  0.13418647  0.39040312  1
  O  O395  1  0.13998301  0.12592175  0.86693811  1
  O  O396  1  0.11493738  0.65025434  0.38165919  1
  O  O397  1  0.13583683  0.62038716  0.88510157  1
  O  O398  1  0.64183487  0.12468463  0.38899213  1
  O  O399  1  0.62808402  0.14043366  0.87615889  1
  O  O400  1  0.62013285  0.65144958  0.36586872  1
  O  O401  1  0.62890959  0.63699401  0.86427975  1
