# generated using pymatgen
data_V73Zn73O256
_symmetry_space_group_name_H-M   'P 1'
_cell_length_a   16.89175201
_cell_length_b   16.90702593
_cell_length_c   16.87347702
_cell_angle_alpha   90.16122840
_cell_angle_beta   89.91168734
_cell_angle_gamma   89.66168189
_symmetry_Int_Tables_number   1
_chemical_formula_structural   V73Zn73O256
_chemical_formula_sum   'V73 Zn73 O256'
_cell_volume   4818.77537594
_cell_formula_units_Z   1
loop_
 _symmetry_equiv_pos_site_id
 _symmetry_equiv_pos_as_xyz
  1  'x, y, z'
loop_
 _atom_site_type_symbol
 _atom_site_label
 _atom_site_symmetry_multiplicity
 _atom_site_fract_x
 _atom_site_fract_y
 _atom_site_fract_z
 _atom_site_occupancy
  V  V0  1  0.12185999  0.49049324  0.59914977  1
  V  V1  1  0.12897797  0.12398154  0.49786395  1
  V  V2  1  0.22522762  0.62527642  0.37161573  1
  V  V3  1  -0.01105128  0.60751199  0.60870270  1
  V  V4  1  0.01405688  0.11527500  0.62159926  1
  V  V5  1  0.76410202  0.75369164  0.00647163  1
  V  V6  1  -0.02392200  0.25243026  0.24613878  1
  V  V7  1  0.36244479  0.37147803  0.00106105  1
  V  V8  1  0.13004414  0.35944968  0.25040908  1
  V  V9  1  0.25615782  0.11783629  0.37522768  1
  V  V10  1  0.39149428  0.13010886  0.74732494  1
  V  V11  1  0.50117531  0.49550908  0.00061566  1
  V  V12  1  0.12546446  0.63043721  -0.00347945  1
  V  V13  1  -0.00225378  0.39213924  0.87501850  1
  V  V14  1  0.38345148  0.87362962  0.50077293  1
  V  V15  1  0.38848021  0.25663369  0.62891969  1
  V  V16  1  0.57657399  0.89292490  0.25597121  1
  V  V17  1  0.63584078  0.49615766  0.12440323  1
  V  V18  1  0.86570762  0.49388540  0.35226128  1
  V  V19  1  0.74352629  0.26003252  0.50342716  1
  V  V20  1  0.40347620  0.00338987  0.38438626  1
  V  V21  1  0.74698853  0.49357325  0.74460698  1
  V  V22  1  0.00670826  0.25074385  0.74728978  1
  V  V23  1  0.50072139  0.86931062  0.86532091  1
  V  V24  1  0.87622736  -0.00866893  0.86649715  1
  V  V25  1  0.00450269  0.76870642  0.26416310  1
  V  V26  1  0.00122090  0.63405971  0.14641708  1
  V  V27  1  0.86070577  0.09854560  0.24575328  1
  V  V28  1  0.36795395  0.25273421  0.11798345  1
  V  V29  1  0.61683513  0.10806878  0.51387763  1
  V  V30  1  0.25511138  0.38485504  0.62930417  1
  V  V31  1  0.50865900  0.36210352  0.87248171  1
  V  V32  1  0.65367069  0.88010745  0.75402214  1
  V  V33  1  0.87141358  0.74366297  0.60968142  1
  V  V34  1  0.36933020  0.00085377  0.87387624  1
  V  V35  1  0.35051681  0.74286670  0.11303237  1
  V  V36  1  0.36816283  0.63479798  0.76067123  1
  V  V37  1  0.88168887  0.87470515  0.01850609  1
  V  V38  1  0.35983880  0.87141902  0.00132176  1
  V  V39  1  0.87803227  0.36393700  0.00463930  1
  V  V40  1  0.50901605  0.25303897  0.25194973  1
  V  V41  1  0.62808573  0.37851100  0.25684070  1
  V  V42  1  0.73382965  0.73709673  0.48525703  1
  V  V43  1  0.25586456  0.26351985  0.49280093  1
  V  V44  1  0.75420191  0.61642462  0.87443365  1
  V  V45  1  0.51917846  0.12335705  0.11735611  1
  V  V46  1  0.13012520  0.38972594  0.75041284  1
  V  V47  1  0.75263300  0.88232620  0.61294301  1
  V  V48  1  0.37819562  0.12365956  0.24896443  1
  V  V49  1  0.63070915  0.62343828  0.00173014  1
  V  V50  1  0.72879538  0.24617197  -0.00676497  1
  V  V51  1  0.74928388  0.10776738  0.37847269  1
  V  V52  1  -0.00430339  0.50639686  0.02001165  1
  V  V53  1  0.87454076  0.25234056  0.61947844  1
  V  V54  1  0.87568211  0.61709778  0.74949269  1
  V  V55  1  0.00432927  0.00084413  0.00708291  1
  V  V56  1  0.11296634  0.64070406  0.49139319  1
  V  V57  1  0.36309790  0.49861328  0.86960495  1
  V  V58  1  0.23388301  0.50273319  0.23078247  1
  V  V59  1  0.50897975  -0.00137179  0.00515864  1
  V  V60  1  0.62036565  0.50457454  0.61731393  1
  V  V61  1  0.12976740  0.25278188  0.88049107  1
  V  V62  1  0.37533281  0.62811182  0.25614580  1
  V  V63  1  0.49913427  0.64091968  0.63889771  1
  V  V64  1  0.62632202  0.74787646  0.86792792  1
  V  V65  1  0.62435911  0.36525721  0.74634899  1
  V  V66  1  0.47106464  0.50350435  0.49883186  1
  V  V67  1  0.24933351  0.12922376  0.87479501  1
  V  V68  1  0.49755179  0.63106850  0.11780564  1
  V  V69  1  0.87286026  0.12273572  0.74887262  1
  V  V70  1  0.12423035  0.12600476  0.00952901  1
  V  V71  1  0.89325365  0.37876698  0.49495432  1
  V  V72  1  0.84468690  0.65021811  0.24566321  1
  Zn  Zn73  1  0.24735320  0.00562755  0.72739651  1
  Zn  Zn74  1  0.02334838  0.76622739  0.76981099  1
  Zn  Zn75  1  0.73689526  0.12630732  0.87856326  1
  Zn  Zn76  1  0.26704539  0.81460939  0.63237784  1
  Zn  Zn77  1  0.13224463  -0.10135593  0.71570153  1
  Zn  Zn78  1  0.19610769  0.96091127  0.23327079  1
  Zn  Zn79  1  0.62213536  0.25000502  0.38192829  1
  Zn  Zn80  1  0.73858968  -0.04528851  0.19213400  1
  Zn  Zn81  1  0.76413235  0.37289604  0.13455037  1
  Zn  Zn82  1  0.19211384  0.18631614  0.18935685  1
  Zn  Zn83  1  0.19720760  0.19414224  0.68712212  1
  Zn  Zn84  1  0.17648500  0.69407140  0.19195686  1
  Zn  Zn85  1  0.19274563  0.67333284  0.68312723  1
  Zn  Zn86  1  0.71562371  0.18079755  0.17233091  1
  Zn  Zn87  1  0.65285684  0.15203013  0.71764556  1
  Zn  Zn88  1  0.71936322  0.76517483  0.21955972  1
  Zn  Zn89  1  0.69159356  0.68692000  0.68252223  1
  Zn  Zn90  1  0.32213331  0.32521438  0.30762096  1
  Zn  Zn91  1  0.31502808  0.31441984  0.81202991  1
  Zn  Zn92  1  0.27365718  0.83535116  0.36390827  1
  Zn  Zn93  1  0.30750428  0.82180671  0.81359898  1
  Zn  Zn94  1  0.80557310  0.31167552  0.32254265  1
  Zn  Zn95  1  0.81528105  0.31077715  0.81494365  1
  Zn  Zn96  1  0.83210189  0.84149044  0.32802499  1
  Zn  Zn97  1  0.84438981  0.78594957  0.82695759  1
  Zn  Zn98  1  0.20823405  0.43710974  0.42303579  1
  Zn  Zn99  1  0.17959510  0.44584691  0.94518703  1
  Zn  Zn100  1  0.20472245  0.94150004  0.53811790  1
  Zn  Zn101  1  0.18763963  0.94294467  1.06646743  1
  Zn  Zn102  1  0.69001379  0.43827917  0.43648800  1
  Zn  Zn103  1  0.69108244  0.43206331  0.93471800  1
  Zn  Zn104  1  0.66603330  0.92554636  0.42798270  1
  Zn  Zn105  1  0.71330360  0.96220862  0.97924585  1
  Zn  Zn106  1  0.31490779  0.06292790  0.06605240  1
  Zn  Zn107  1  0.32834688  0.07337183  0.55945405  1
  Zn  Zn108  1  0.30653909  0.55862970  0.05281111  1
  Zn  Zn109  1  0.30896445  0.60458216  0.56618353  1
  Zn  Zn110  1  0.81708225  0.06692714  0.06037773  1
  Zn  Zn111  1  0.81236435  0.06970773  0.56235801  1
  Zn  Zn112  1  0.82142800  0.56091349  0.06464104  1
  Zn  Zn113  1  0.79928265  0.55659732  0.54865136  1
  Zn  Zn114  1  0.42327050  0.43363792  0.20208083  1
  Zn  Zn115  1  0.44269420  0.44127229  0.68798707  1
  Zn  Zn116  1  0.36300256  0.91458912  0.21012763  1
  Zn  Zn117  1  0.42566195  0.93379405  0.68383954  1
  Zn  Zn118  1  0.94694082  0.42716444  0.19186800  1
  Zn  Zn119  1  0.93704235  0.43482455  0.68390326  1
  Zn  Zn120  1  1.03026125  0.95446756  0.19833702  1
  Zn  Zn121  1  0.93932372  0.93187156  0.68135964  1
  Zn  Zn122  1  0.06131394  0.10903858  0.30694427  1
  Zn  Zn123  1  0.06371151  0.05639036  0.81995760  1
  Zn  Zn124  1  0.06793089  0.50505776  0.34437085  1
  Zn  Zn125  1  0.08159237  0.59287232  0.79249801  1
  Zn  Zn126  1  0.57992547  0.06977139  0.30614728  1
  Zn  Zn127  1  0.56611723  0.04963069  0.82422046  1
  Zn  Zn128  1  0.54985264  0.55326645  0.30705420  1
  Zn  Zn129  1  0.56101691  0.55821504  0.81495495  1
  Zn  Zn130  1  0.44098258  0.19306456  0.44255880  1
  Zn  Zn131  1  0.44140361  0.18569624  0.93760617  1
  Zn  Zn132  1  0.45616654  0.67893237  0.43876614  1
  Zn  Zn133  1  0.43793961  0.68651507  0.93553174  1
  Zn  Zn134  1  0.93586221  0.18536501  0.42746300  1
  Zn  Zn135  1  0.94440995  0.18522630  0.93238132  1
  Zn  Zn136  1  0.92694544  0.67314968  0.42192441  1
  Zn  Zn137  1  0.97934761  0.71250832  0.95154967  1
  Zn  Zn138  1  0.06079072  0.30754764  0.07296937  1
  Zn  Zn139  1  0.06924744  0.30678410  0.55768902  1
  Zn  Zn140  1  0.06377296  0.81152701  0.08014166  1
  Zn  Zn141  1  0.06509951  0.79907922  0.59766229  1
  Zn  Zn142  1  0.56132137  0.31327973  0.06539826  1
  Zn  Zn143  1  0.55841097  0.32801387  0.55742840  1
  Zn  Zn144  1  0.56233909  0.81128215  0.05123184  1
  Zn  Zn145  1  0.56972739  0.81205346  0.56875630  1
  O  O146  1  0.13561144  0.13035383  0.10828538  1
  O  O147  1  0.12117993  0.13527382  0.61631434  1
  O  O148  1  0.10494267  0.62996627  0.11833456  1
  O  O149  1  0.11097364  0.60919375  0.60041539  1
  O  O150  1  0.61682900  0.12953255  0.12406938  1
  O  O151  1  0.63505217  0.12170743  0.61325344  1
  O  O152  1  0.61235017  0.60881312  0.11631351  1
  O  O153  1  0.61261505  0.61285283  0.63923693  1
  O  O154  1  0.40068154  0.40294086  0.31257170  1
  O  O155  1  0.38563860  0.38061556  0.87986548  1
  O  O156  1  0.39592804  0.90083316  0.38078206  1
  O  O157  1  0.37973976  0.88038281  0.88490359  1
  O  O158  1  0.87095855  0.38051303  0.38879824  1
  O  O159  1  0.89452004  0.37148108  0.87993007  1
  O  O160  1  0.89280531  0.92843996  0.38440082  1
  O  O161  1  0.87396204  0.89188068  0.86385936  1
  O  O162  1  0.26593187  0.02010755  0.37765947  1
  O  O163  1  0.26690167  0.01112385  0.87347805  1
  O  O164  1  0.25315048  0.51963791  0.35591493  1
  O  O165  1  0.26379624  0.49373296  0.87975486  1
  O  O166  1  0.74177420  0.00859676  0.38508827  1
  O  O167  1  0.77321427  0.01264692  0.88746173  1
  O  O168  1  0.76865311  0.50117687  0.38993402  1
  O  O169  1  0.74329004  0.50822543  0.86225999  1
  O  O170  1  0.24290533  0.50423211  0.13022316  1
  O  O171  1  0.23695684  0.48867775  0.61818430  1
  O  O172  1  0.26405550  0.99222499  0.13783974  1
  O  O173  1  0.25764899  1.00797478  0.61411053  1
  O  O174  1  0.73974550  0.49457631  0.11771648  1
  O  O175  1  0.73302937  0.50544997  0.63615095  1
  O  O176  1  0.73828205  0.99085552  0.08758562  1
  O  O177  1  0.76923999  0.98049064  0.61904935  1
  O  O178  1  0.00756322  0.35532680  0.25831016  1
  O  O179  1  0.00680145  0.37184582  0.75952925  1
  O  O180  1  -0.01788895  0.86740444  0.25461393  1
  O  O181  1  0.02430607  0.85786777  0.70191381  1
  O  O182  1  0.51513655  0.35839301  0.23432955  1
  O  O183  1  0.51186882  0.37943435  0.76307830  1
  O  O184  1  0.47884653  0.89810227  0.23927374  1
  O  O185  1  0.48956509  0.87536655  0.76490687  1
  O  O186  1  0.50085722  0.13385007  0.23473618  1
  O  O187  1  0.48900054  0.12097225  0.75523968  1
  O  O188  1  0.48163041  0.61484453  0.23123968  1
  O  O189  1  0.49291372  0.62056625  0.74847260  1
  O  O190  1  0.96232434  0.11594190  0.23986990  1
  O  O191  1  1.00235137  0.13395850  0.73752956  1
  O  O192  1  1.00168015  0.62968862  0.24590784  1
  O  O193  1  0.97792856  0.60578592  0.73127490  1
  O  O194  1  0.37987891  0.25473473  0.00998829  1
  O  O195  1  0.36774995  0.24492295  0.51937795  1
  O  O196  1  0.37076667  0.76171673  -0.00395710  1
  O  O197  1  0.41919037  0.78192662  0.47745478  1
  O  O198  1  0.89214830  0.26373191  -0.00236069  1
  O  O199  1  0.87303805  0.25609895  0.50067097  1
  O  O200  1  0.87435041  0.76157555  -0.00176122  1
  O  O201  1  0.86736441  0.73672290  0.50704392  1
  O  O202  1  0.14971404  0.24531522  0.50292738  1
  O  O203  1  0.11450187  0.23992844  0.99088020  1
  O  O204  1  0.10814173  0.73789806  0.49732886  1
  O  O205  1  0.08709991  0.73277738  1.00145087  1
  O  O206  1  0.63613429  0.25743453  0.50587143  1
  O  O207  1  0.62856541  0.25568280  0.98956561  1
  O  O208  1  0.63295655  0.75494591  0.49392685  1
  O  O209  1  0.64342855  0.74565821  0.98856871  1
  O  O210  1  0.49687036  0.23675094  0.12628198  1
  O  O211  1  0.48685461  0.26371298  0.62332309  1
  O  O212  1  0.49560298  0.73194334  0.10422466  1
  O  O213  1  0.50878289  0.73995257  0.63508458  1
  O  O214  1  1.00867197  0.23841637  0.15002961  1
  O  O215  1  0.99953861  0.24600936  0.63420042  1
  O  O216  1  0.99008267  0.73943724  0.14350185  1
  O  O217  1  0.98036934  0.72519706  0.61831095  1
  O  O218  1  0.00947555  0.21199402  0.34212674  1
  O  O219  1  0.01258915  0.25418599  0.86233730  1
  O  O220  1  -0.01457095  0.75018611  0.36325387  1
  O  O221  1  -0.04673308  0.75064505  0.85178144  1
  O  O222  1  0.50141134  0.24610915  0.35564758  1
  O  O223  1  0.49748342  0.26363100  0.87623848  1
  O  O224  1  0.55162203  0.71119627  0.36423517  1
  O  O225  1  0.51665059  0.75732702  0.88746471  1
  O  O226  1  0.25191945  0.13968590  0.49050342  1
  O  O227  1  0.23775862  0.11790014  0.98701850  1
  O  O228  1  0.22275415  0.61360595  0.48157199  1
  O  O229  1  0.22524422  0.62425441  1.00243466  1
  O  O230  1  0.74437633  0.13244372  0.49348220  1
  O  O231  1  0.75311094  0.14337835  0.99667304  1
  O  O232  1  0.74297932  0.63596080  0.49175704  1
  O  O233  1  0.75426398  0.62947853  0.99294113  1
  O  O234  1  0.26295852  0.37922312  -0.00416342  1
  O  O235  1  0.25421710  0.36897328  0.50701996  1
  O  O236  1  0.26180600  0.88328367  -0.00459263  1
  O  O237  1  0.27853117  0.86990174  0.47587903  1
  O  O238  1  0.76964738  0.36679046  -0.01046813  1
  O  O239  1  0.75736459  0.36131487  0.50193928  1
  O  O240  1  0.76793915  0.85909957  -0.01402114  1
  O  O241  1  0.73863167  0.86879654  0.51199463  1
  O  O242  1  0.13258906  0.50982523  0.24399723  1
  O  O243  1  0.11976324  0.49166628  0.74283180  1
  O  O244  1  0.10289193  1.01611463  0.26137776  1
  O  O245  1  0.13514564  1.00257562  0.75585707  1
  O  O246  1  0.61545321  0.48585862  0.24160700  1
  O  O247  1  0.63302371  0.49282935  0.74557940  1
  O  O248  1  0.62289039  0.98737149  0.23915835  1
  O  O249  1  0.62438930  0.97577622  0.75353882  1
  O  O250  1  0.38237046  0.02111763  0.26516261  1
  O  O251  1  0.37393880  0.01416013  0.75416189  1
  O  O252  1  0.35615035  0.52657256  0.22966921  1
  O  O253  1  0.38007207  0.49738832  0.76781586  1
  O  O254  1  0.84891999  0.00095696  0.23889166  1
  O  O255  1  0.88966258  0.01163420  0.75471476  1
  O  O256  1  0.86160166  0.47639887  0.25241725  1
  O  O257  1  0.85560103  0.50238452  0.73473334  1
  O  O258  1  0.12156575  0.40020257  0.35380108  1
  O  O259  1  0.11719383  0.37280744  0.87125754  1
  O  O260  1  0.09894470  0.88696960  0.39918752  1
  O  O261  1  0.14726939  0.81435846  0.87779534  1
  O  O262  1  0.62459421  0.37489704  0.36110943  1
  O  O263  1  0.61610981  0.37495360  0.86478092  1
  O  O264  1  0.59448455  0.87562942  0.35606652  1
  O  O265  1  0.62008126  0.86456891  0.86326704  1
  O  O266  1  0.38369614  0.13501427  0.13016306  1
  O  O267  1  0.37768441  0.14068585  0.63962598  1
  O  O268  1  0.37913936  0.63538177  0.10105672  1
  O  O269  1  0.38978119  0.62289385  0.65084589  1
  O  O270  1  0.83071349  0.13382079  0.15085263  1
  O  O271  1  0.89480997  0.13220406  0.62709185  1
  O  O272  1  0.88125012  0.61567711  0.14827750  1
  O  O273  1  0.87397181  0.62043533  0.61952687  1
  O  O274  1  0.26976747  0.24739004  0.12821640  1
  O  O275  1  0.25967734  0.26498311  0.61789655  1
  O  O276  1  0.25165557  0.74268511  0.11430567  1
  O  O277  1  0.26064498  0.70597225  0.60295644  1
  O  O278  1  0.74247565  0.26437338  0.09947526  1
  O  O279  1  0.76855054  0.23987595  0.60909049  1
  O  O280  1  0.75123968  0.74895369  0.10333627  1
  O  O281  1  0.75610072  0.74857221  0.60763752  1
  O  O282  1  0.27313586  0.25912321  0.39027226  1
  O  O283  1  0.23916641  0.24599076  0.87226787  1
  O  O284  1  0.24388061  0.72431874  0.37082133  1
  O  O285  1  0.20899072  0.77387240  0.88320535  1
  O  O286  1  0.74696087  0.24351974  0.39378398  1
  O  O287  1  0.75733021  0.24872578  0.88768130  1
  O  O288  1  0.76573883  0.76688503  0.39330841  1
  O  O289  1  0.75066766  0.73282438  0.87929210  1
  O  O290  1  0.01437993  0.11708127  -0.00584006  1
  O  O291  1  0.01857328  0.13940425  0.50800966  1
  O  O292  1  -0.01403742  0.61264186  0.01694423  1
  O  O293  1  0.00227293  0.61883445  0.49759573  1
  O  O294  1  0.49617713  0.11370174  0.00750547  1
  O  O295  1  0.51974742  0.13719577  0.50101715  1
  O  O296  1  0.50960986  0.61325666  -0.00120487  1
  O  O297  1  0.49204141  0.61988701  0.52987285  1
  O  O298  1  0.48938277  0.40235886  0.50477324  1
  O  O299  1  0.49485472  0.37830070  0.98910459  1
  O  O300  1  0.49931835  0.90328782  0.53774187  1
  O  O301  1  0.49441440  0.88512835  0.99147227  1
  O  O302  1  0.99287827  0.36508962  0.49638949  1
  O  O303  1  0.99993176  0.38385028  0.99225153  1
  O  O304  1  0.87821447  0.93684630  0.46199709  1
  O  O305  1  0.99091276  0.88608658  1.00305478  1
  O  O306  1  0.49954890  0.53005680  0.40333701  1
  O  O307  1  0.49758889  0.48871140  0.88721636  1
  O  O308  1  0.49992316  1.02207546  0.37622676  1
  O  O309  1  0.48670555  0.99188389  0.88225109  1
  O  O310  1  0.96397275  0.50543805  0.38158332  1
  O  O311  1  1.00144482  0.49002254  0.87586222  1
  O  O312  1  1.03635376  0.90317625  0.43285209  1
  O  O313  1  0.98465978  1.00777769  0.88739742  1
  O  O314  1  -0.01411036  0.01047040  0.10443425  1
  O  O315  1  0.00265483  0.01714198  0.62304556  1
  O  O316  1  -0.00302017  0.50709456  0.12361733  1
  O  O317  1  0.00832728  0.49999572  0.62118579  1
  O  O318  1  0.50452286  0.01211562  0.10972130  1
  O  O319  1  0.50267970  -0.04067673  0.59759535  1
  O  O320  1  0.49936561  0.50185626  0.10969676  1
  O  O321  1  0.50774144  0.50757807  0.62006071  1
  O  O322  1  0.23991085  0.39233328  0.25056131  1
  O  O323  1  0.23978178  0.37149498  0.74276097  1
  O  O324  1  0.26747581  0.88001938  0.26331273  1
  O  O325  1  0.24982604  0.87426732  0.73490533  1
  O  O326  1  0.73137939  0.36319566  0.24677663  1
  O  O327  1  0.74086453  0.38615344  0.75880458  1
  O  O328  1  0.74554265  0.86626938  0.25959699  1
  O  O329  1  0.75411506  0.87569587  0.74789374  1
  O  O330  1  0.26419886  0.13841149  0.26711215  1
  O  O331  1  0.25850020  0.12790364  0.76222435  1
  O  O332  1  0.24813320  0.62237054  0.25330211  1
  O  O333  1  0.27029773  0.61571518  0.75285148  1
  O  O334  1  0.74269717  0.12772924  0.27260934  1
  O  O335  1  0.77562946  0.12761645  0.73359819  1
  O  O336  1  0.74496274  0.65431114  0.23867695  1
  O  O337  1  0.75153042  0.61039744  0.75400882  1
  O  O338  1  0.37285744  0.12729826  0.37235524  1
  O  O339  1  0.37131992  0.12274224  0.86792299  1
  O  O340  1  0.38014690  0.63891369  0.35646312  1
  O  O341  1  0.38252770  0.60632198  0.87358530  1
  O  O342  1  0.85777614  0.12185300  0.36530539  1
  O  O343  1  0.87914586  0.12678074  0.85473456  1
  O  O344  1  0.86491718  0.61219854  0.34321603  1
  O  O345  1  0.86646221  0.61656493  0.85281797  1
  O  O346  1  0.11594919  0.37359560  0.14870160  1
  O  O347  1  0.13147742  0.37807354  0.63181624  1
  O  O348  1  0.11368989  0.89293892  0.13596465  1
  O  O349  1  0.15718210  0.86025714  0.60419984  1
  O  O350  1  0.62528610  0.38567160  0.12974675  1
  O  O351  1  0.61537136  0.39225380  0.63960414  1
  O  O352  1  0.61651737  0.85496742  0.14654021  1
  O  O353  1  0.64661433  0.86273741  0.64354621  1
  O  O354  1  0.14164126  0.25955076  0.26142898  1
  O  O355  1  0.12086285  0.26202298  0.75584954  1
  O  O356  1  0.10566100  0.75931312  0.25342692  1
  O  O357  1  0.10843047  0.69673574  0.74769122  1
  O  O358  1  0.61704830  0.25487142  0.24724928  1
  O  O359  1  0.63370224  0.26923673  0.73255111  1
  O  O360  1  0.60379855  0.79257073  0.20664521  1
  O  O361  1  0.63902249  0.75593590  0.76260269  1
  O  O362  1  0.38996325  0.24451839  0.23701305  1
  O  O363  1  0.37579380  0.24046815  0.74450657  1
  O  O364  1  0.36918142  0.73041830  0.21815560  1
  O  O365  1  0.37190202  0.73408167  0.77928314  1
  O  O366  1  0.87466580  0.25931680  0.24786529  1
  O  O367  1  0.88642995  0.24364804  0.74187987  1
  O  O368  1  0.87528338  0.74714150  0.25364519  1
  O  O369  1  0.85706811  0.72125328  0.72608299  1
  O  O370  1  0.37135463  0.52002511  0.51035670  1
  O  O371  1  0.38200930  0.49003967  0.99131120  1
  O  O372  1  0.38504275  1.00041111  0.48984240  1
  O  O373  1  0.38269872  0.98969078  0.99471277  1
  O  O374  1  0.87370064  0.47643046  0.51636095  1
  O  O375  1  0.88995114  0.48712081  1.00022034  1
  O  O376  1  0.89842652  1.00756287  0.49238623  1
  O  O377  1  0.88354490  0.99029071  0.99028846  1
  O  O378  1  0.11382885  0.01070285  -0.00141825  1
  O  O379  1  0.13318562  0.02498093  0.49814865  1
  O  O380  1  0.10376953  0.50993563  0.00282563  1
  O  O381  1  0.12316950  0.48535099  0.49933965  1
  O  O382  1  0.60541504  -0.00197369  -0.01994724  1
  O  O383  1  0.62541723  0.00927164  0.49865549  1
  O  O384  1  0.62138686  0.49987586  0.00451902  1
  O  O385  1  0.62821003  0.49567780  0.51703406  1
  O  O386  1  0.38465216  0.36056322  0.11626578  1
  O  O387  1  0.36720640  0.36606438  0.64192544  1
  O  O388  1  0.37527381  0.85419279  0.10827706  1
  O  O389  1  0.36631430  0.87141841  0.60573333  1
  O  O390  1  0.88046090  0.37628589  0.10891171  1
  O  O391  1  0.88377393  0.35869938  0.61544253  1
  O  O392  1  0.87405867  0.87787981  0.11328658  1
  O  O393  1  0.86583772  0.85211303  0.62737765  1
  O  O394  1  0.14724257  0.13354465  0.38707575  1
  O  O395  1  0.13220666  0.13590486  0.87948832  1
  O  O396  1  0.11719750  0.61575198  0.38058748  1
  O  O397  1  0.10480016  0.62156545  0.89790824  1
  O  O398  1  0.63604230  0.13147877  0.38857196  1
  O  O399  1  0.63772318  0.13190482  0.82741423  1
  O  O400  1  0.60491743  0.65963798  0.34629670  1
  O  O401  1  0.63343473  0.62833393  0.88116463  1
