# generated using pymatgen
data_V73Zn73O256
_symmetry_space_group_name_H-M   'P 1'
_cell_length_a   16.89900537
_cell_length_b   16.91463830
_cell_length_c   16.85888629
_cell_angle_alpha   89.80949335
_cell_angle_beta   90.07745774
_cell_angle_gamma   90.24908960
_symmetry_Int_Tables_number   1
_chemical_formula_structural   V73Zn73O256
_chemical_formula_sum   'V73 Zn73 O256'
_cell_volume   4818.87707130
_cell_formula_units_Z   1
loop_
 _symmetry_equiv_pos_site_id
 _symmetry_equiv_pos_as_xyz
  1  'x, y, z'
loop_
 _atom_site_type_symbol
 _atom_site_label
 _atom_site_symmetry_multiplicity
 _atom_site_fract_x
 _atom_site_fract_y
 _atom_site_fract_z
 _atom_site_occupancy
  V  V0  1  0.75535153  0.87522886  0.61663956  1
  V  V1  1  0.62970179  0.00485265  0.61202383  1
  V  V2  1  0.01117921  0.36934736  0.88897341  1
  V  V3  1  0.11971623  0.38552425  0.74664959  1
  V  V4  1  0.48504512  0.88672396  0.87909190  1
  V  V5  1  0.47537400  0.62865249  0.12753588  1
  V  V6  1  0.76091155  0.00274330  0.76295023  1
  V  V7  1  0.50807050  0.25323880  0.25064670  1
  V  V8  1  0.75295455  0.14539428  0.37819725  1
  V  V9  1  -0.00388238  0.88273572  0.84625967  1
  V  V10  1  0.12721762  0.61267984  0.51102671  1
  V  V11  1  0.75678993  0.00208739  0.25669694  1
  V  V12  1  0.62970368  0.63315439  0.01207699  1
  V  V13  1  -0.01217312  0.25231461  0.24935082  1
  V  V14  1  0.86651388  0.36359064  -0.00399429  1
  V  V15  1  0.24247897  0.38842567  0.63268635  1
  V  V16  1  0.26298811  0.50287304  0.26315611  1
  V  V17  1  0.24238259  0.86263397  0.13352264  1
  V  V18  1  0.87133536  0.12962250  0.76972828  1
  V  V19  1  0.52709393  0.37510511  0.38503282  1
  V  V20  1  0.87715380  -0.01449101  0.39086335  1
  V  V21  1  -0.01006647  0.74128894  0.25029279  1
  V  V22  1  0.50890223  0.13216041  0.62390088  1
  V  V23  1  0.62514053  0.88105948  0.75026305  1
  V  V24  1  0.86437802  0.73475919  0.63726332  1
  V  V25  1  0.36567870  0.37675621  -0.00745946  1
  V  V26  1  0.73507077  0.63132371  0.85253961  1
  V  V27  1  0.12873758  0.23609735  0.86192134  1
  V  V28  1  0.36235749  0.87505032  0.01515185  1
  V  V29  1  0.49360409  0.88545516  0.38313480  1
  V  V30  1  0.48488957  0.74325976  0.25003158  1
  V  V31  1  0.50370575  0.25373955  0.76207374  1
  V  V32  1  0.48468946  0.75466817  0.73870006  1
  V  V33  1  0.25967796  0.11862959  0.88942206  1
  V  V34  1  0.12994632  0.25040836  0.37490547  1
  V  V35  1  0.12997599  0.12427713  0.01966338  1
  V  V36  1  0.25976022  0.11598979  0.39130803  1
  V  V37  1  0.36301463  0.24581104  0.62828913  1
  V  V38  1  0.64143038  0.24030901  0.87811867  1
  V  V39  1  -0.01084832  0.12415512  0.64009922  1
  V  V40  1  0.88222825  0.55270268  0.88109050  1
  V  V41  1  0.37546402  0.25530552  0.12517066  1
  V  V42  1  0.62982987  0.15865262  0.49805951  1
  V  V43  1  0.62101267  0.75922850  0.87987715  1
  V  V44  1  0.87902651  0.73353480  0.11944091  1
  V  V45  1  0.49782408  0.50667793  0.00626072  1
  V  V46  1  -0.00213634  -0.00948347  0.00806009  1
  V  V47  1  0.13407375  0.74853601  0.87137353  1
  V  V48  1  0.75619253  0.60196985  0.37082171  1
  V  V49  1  0.35391803  0.51921661  0.86702897  1
  V  V50  1  0.75604843  0.86870889  0.12235256  1
  V  V51  1  0.24284845  0.37652240  0.13429355  1
  V  V52  1  -0.02023734  0.12124480  0.13604098  1
  V  V53  1  0.37916379  0.11964034  0.25413569  1
  V  V54  1  0.09683633  0.11834173  0.50126255  1
  V  V55  1  0.25231599  0.63077220  0.38312486  1
  V  V56  1  0.62020250  -0.00272126  0.12920034  1
  V  V57  1  0.36018914  0.37092751  0.49426367  1
  V  V58  1  0.53707065  0.41194918  0.85659474  1
  V  V59  1  0.51040925  0.56885934  0.58326562  1
  V  V60  1  0.11347107  0.75619331  0.38020543  1
  V  V61  1  0.86669385  0.26311059  0.61271118  1
  V  V62  1  0.23841667  0.00323942  0.24813722  1
  V  V63  1  -0.00559864  0.60000643  0.62830136  1
  V  V64  1  0.11822760  0.52472369  0.12443470  1
  V  V65  1  0.62406628  0.73505252  0.37441760  1
  V  V66  1  0.37942209  0.11882068  0.76022026  1
  V  V67  1  0.22741947  0.00181594  0.75051164  1
  V  V68  1  0.75684392  0.50026117  0.22618483  1
  V  V69  1  0.63716301  0.12544484  0.00209178  1
  V  V70  1  0.75394317  0.74235231  0.49338402  1
  V  V71  1  0.62729243  0.37867553  0.21489253  1
  V  V72  1  0.94877494  0.44004373  0.43399486  1
  Zn  Zn73  1  0.41703994  0.52832937  0.41762546  1
  Zn  Zn74  1  0.08731329  0.40786265  0.29075851  1
  Zn  Zn75  1  0.39587121  0.84361945  0.54470169  1
  Zn  Zn76  1  0.62347159  0.87203503  0.25242147  1
  Zn  Zn77  1  0.86992198  0.87624157  -0.00987711  1
  Zn  Zn78  1  0.49167748  0.00804667  -0.00564451  1
  Zn  Zn79  1  0.10968049  0.88054229  0.25295960  1
  Zn  Zn80  1  0.50023273  0.12538857  0.12657952  1
  Zn  Zn81  1  0.01308720  0.73986164  0.74216565  1
  Zn  Zn82  1  0.18967246  0.19238153  0.19482346  1
  Zn  Zn83  1  0.18937606  0.15572447  0.68069103  1
  Zn  Zn84  1  0.18843807  0.68766303  0.20231711  1
  Zn  Zn85  1  0.17069237  0.66317447  0.72325904  1
  Zn  Zn86  1  0.69055704  0.18320456  0.19043853  1
  Zn  Zn87  1  0.69477471  0.19429081  0.69294980  1
  Zn  Zn88  1  0.68684973  0.68642687  0.19129108  1
  Zn  Zn89  1  0.66244755  0.68707328  0.67451104  1
  Zn  Zn90  1  0.30720538  0.30308488  0.30948597  1
  Zn  Zn91  1  0.30329503  0.30548444  0.81405281  1
  Zn  Zn92  1  0.30953050  0.81392382  0.31834360  1
  Zn  Zn93  1  0.30211269  0.81820974  0.80874697  1
  Zn  Zn94  1  0.81512123  0.30853636  0.16947200  1
  Zn  Zn95  1  0.82743484  0.30435174  0.81773579  1
  Zn  Zn96  1  0.81346454  0.81133488  0.30916094  1
  Zn  Zn97  1  0.81309165  0.81563436  0.81625158  1
  Zn  Zn98  1  0.18748240  0.43682786  0.44805761  1
  Zn  Zn99  1  0.16842801  0.44818504  0.93248935  1
  Zn  Zn100  1  0.04984150  0.93643637  0.44958600  1
  Zn  Zn101  1  0.17645153  0.93734169  0.93944883  1
  Zn  Zn102  1  0.74192205  0.36433385  0.36396409  1
  Zn  Zn103  1  0.71633949  0.42463971  0.87191322  1
  Zn  Zn104  1  0.68241448  0.92775519  0.43351287  1
  Zn  Zn105  1  0.68341715  0.94010087  0.94293667  1
  Zn  Zn106  1  0.31709911  0.05541827  0.07136765  1
  Zn  Zn107  1  0.31612280  0.03028613  0.57168769  1
  Zn  Zn108  1  0.29914936  0.56001297  0.05818348  1
  Zn  Zn109  1  0.32857273  0.66351076  0.59168603  1
  Zn  Zn110  1  0.81319891  0.05794906  0.06353839  1
  Zn  Zn111  1  0.81186598  0.06982251  0.56307592  1
  Zn  Zn112  1  0.81256777  0.55334257  0.04624108  1
  Zn  Zn113  1  0.81634276  0.55725131  0.54507165  1
  Zn  Zn114  1  0.43802542  0.43961549  0.19207959  1
  Zn  Zn115  1  0.41757148  0.45905508  0.67655184  1
  Zn  Zn116  1  0.43646930  0.93105163  0.19584713  1
  Zn  Zn117  1  0.44222998  0.94400200  0.68652226  1
  Zn  Zn118  1  0.94059221  0.44147085  0.17749964  1
  Zn  Zn119  1  0.83472103  0.43848777  0.70858039  1
  Zn  Zn120  1  0.93984603  0.93427574  0.19435612  1
  Zn  Zn121  1  0.96660804  0.91499531  0.63177996  1
  Zn  Zn122  1  0.05930107  0.06872172  0.31809058  1
  Zn  Zn123  1  0.05543300  0.06093823  0.82433335  1
  Zn  Zn124  1  0.06806855  0.56984467  0.31011204  1
  Zn  Zn125  1  0.05800072  0.56339528  0.82346633  1
  Zn  Zn126  1  0.56930887  0.06587020  0.31805054  1
  Zn  Zn127  1  0.56893292  0.06461368  0.81005030  1
  Zn  Zn128  1  0.56756231  0.55537318  0.30218758  1
  Zn  Zn129  1  0.54787710  0.57804186  0.81876035  1
  Zn  Zn130  1  0.44085985  0.19727151  0.43873784  1
  Zn  Zn131  1  0.44297231  0.18851014  0.94670048  1
  Zn  Zn132  1  0.44036330  0.69364220  0.44680507  1
  Zn  Zn133  1  0.42843237  0.69671436  0.93611158  1
  Zn  Zn134  1  0.92862828  0.19747576  0.43027433  1
  Zn  Zn135  1  0.94533830  0.18906693  0.94937797  1
  Zn  Zn136  1  0.93319565  0.66420192  0.43608926  1
  Zn  Zn137  1  0.96929990  0.70745160  0.94505706  1
  Zn  Zn138  1  0.06575275  0.30053464  0.06685501  1
  Zn  Zn139  1  0.05432610  0.30556345  0.56454233  1
  Zn  Zn140  1  0.06866346  0.79887815  0.06353196  1
  Zn  Zn141  1  0.03387997  0.77053903  0.53984443  1
  Zn  Zn142  1  0.55676282  0.31317760  0.04638302  1
  Zn  Zn143  1  0.55263325  0.35234993  0.58618866  1
  Zn  Zn144  1  0.55641522  0.81421207  0.06617342  1
  Zn  Zn145  1  0.57397448  0.81048803  0.55816628  1
  O  O146  1  0.13373106  0.12326139  0.12076281  1
  O  O147  1  0.10096891  0.13637061  0.60949674  1
  O  O148  1  0.13254994  0.62512104  0.12590394  1
  O  O149  1  0.11273302  0.62393574  0.61744096  1
  O  O150  1  0.62375265  0.11375762  0.11930515  1
  O  O151  1  0.62882279  0.12705525  0.61316407  1
  O  O152  1  0.61514317  0.63657088  0.11359885  1
  O  O153  1  0.59146570  0.62028361  0.61737366  1
  O  O154  1  0.36083873  0.36180702  0.39348663  1
  O  O155  1  0.35955206  0.37503352  0.89037424  1
  O  O156  1  0.39298738  0.86734372  0.37454592  1
  O  O157  1  0.38369676  0.88249948  0.88005556  1
  O  O158  1  0.90194882  0.37312301  0.35748282  1
  O  O159  1  0.90590436  0.36709333  0.88121408  1
  O  O160  1  0.86822505  0.88597162  0.37781647  1
  O  O161  1  0.88887689  0.87590302  0.87585321  1
  O  O162  1  0.25885621  0.01679698  0.35939378  1
  O  O163  1  0.24157180  0.01342872  0.87069563  1
  O  O164  1  0.24462036  0.50576670  0.37036427  1
  O  O165  1  0.25588467  0.50228159  0.88450413  1
  O  O166  1  0.75257375  -0.00527824  0.36614107  1
  O  O167  1  0.74712223  -0.00897731  0.86173204  1
  O  O168  1  0.74784314  0.50153101  0.36757570  1
  O  O169  1  0.75537758  0.53298838  0.87864969  1
  O  O170  1  0.24934624  0.49157340  0.14230677  1
  O  O171  1  0.24789300  0.48351472  0.63158060  1
  O  O172  1  0.25056428  0.99335215  0.14413729  1
  O  O173  1  0.23708010  1.04026884  0.65193518  1
  O  O174  1  0.74646843  0.50635309  0.12718361  1
  O  O175  1  0.76053046  0.48970500  0.62253722  1
  O  O176  1  0.74353600  0.99428012  0.13841084  1
  O  O177  1  0.74637569  0.99278212  0.62959398  1
  O  O178  1  0.00444324  0.35609793  0.23234487  1
  O  O179  1  0.02342922  0.36072192  0.76940774  1
  O  O180  1  -0.00208961  0.85640419  0.25104238  1
  O  O181  1  -0.00602348  0.89695225  0.74723768  1
  O  O182  1  0.51729036  0.37219369  0.25070449  1
  O  O183  1  0.49324402  0.37105798  0.77293266  1
  O  O184  1  0.50076665  0.85699239  0.25929551  1
  O  O185  1  0.50578084  0.87963459  0.75958197  1
  O  O186  1  0.49810725  0.13635411  0.25258211  1
  O  O187  1  0.49868916  0.13646006  0.74684927  1
  O  O188  1  0.50266013  0.63095021  0.23796505  1
  O  O189  1  0.50138180  0.65551598  0.75487907  1
  O  O190  1  0.99859536  0.12919142  0.24140153  1
  O  O191  1  0.98545358  0.11807935  0.74798447  1
  O  O192  1  0.99879143  0.64060234  0.25495547  1
  O  O193  1  1.00799915  0.62152462  0.73072026  1
  O  O194  1  0.38530550  0.26760511  0.01152929  1
  O  O195  1  0.38425762  0.25876643  0.52243565  1
  O  O196  1  0.37617769  0.77674125  -0.00404972  1
  O  O197  1  0.36910256  0.74031670  0.51835644  1
  O  O198  1  0.87217170  0.26233369  -0.00491792  1
  O  O199  1  0.87293507  0.25322711  0.51064996  1
  O  O200  1  0.89118767  0.75907307  0.01671757  1
  O  O201  1  0.85821041  0.73818211  0.50696489  1
  O  O202  1  0.11400591  0.23527125  0.48289641  1
  O  O203  1  0.12849341  0.22714067  0.99913464  1
  O  O204  1  0.12788232  0.73844925  0.48513383  1
  O  O205  1  0.08560495  0.73545175  0.97022555  1
  O  O206  1  0.63145868  0.25504984  0.50598012  1
  O  O207  1  0.62057431  0.23308373  0.99311227  1
  O  O208  1  0.63308149  0.74402930  0.48381513  1
  O  O209  1  0.61029966  0.74304924  0.99139714  1
  O  O210  1  0.49244800  0.25445924  0.13380950  1
  O  O211  1  0.50475407  0.25480767  0.64400836  1
  O  O212  1  0.49687388  0.74296514  0.13958506  1
  O  O213  1  0.49775651  0.77335832  0.63751873  1
  O  O214  1  1.00875123  0.23018611  0.13779691  1
  O  O215  1  0.98386273  0.23461705  0.62284177  1
  O  O216  1  0.98922254  0.74605548  0.13681373  1
  O  O217  1  0.97126114  0.75098471  0.63488015  1
  O  O218  1  0.00946096  0.23929184  0.35811050  1
  O  O219  1  0.02391614  0.25004776  0.88318863  1
  O  O220  1  0.00578648  0.73984666  0.37233317  1
  O  O221  1  -0.00748187  0.77182829  0.84980867  1
  O  O222  1  0.49601823  0.26862215  0.36096276  1
  O  O223  1  0.50426991  0.24649681  0.86757215  1
  O  O224  1  0.51049964  0.74004337  0.36601903  1
  O  O225  1  0.50383888  0.76919231  0.86628401  1
  O  O226  1  0.27234056  0.10437521  0.49091474  1
  O  O227  1  0.24284994  0.11136125  0.99717640  1
  O  O228  1  0.23576736  0.62357175  0.49428421  1
  O  O229  1  0.24892538  0.64245840  1.00485662  1
  O  O230  1  0.73713931  0.12946970  0.49081887  1
  O  O231  1  0.73627381  0.11689292  1.00334866  1
  O  O232  1  0.74592557  0.62556879  0.48037930  1
  O  O233  1  0.72949302  0.62915925  1.00250101  1
  O  O234  1  0.26383986  0.38156245  0.01973818  1
  O  O235  1  0.25286791  0.36829480  0.51811947  1
  O  O236  1  0.25282681  0.88333951  0.01925059  1
  O  O237  1  0.22032169  0.88306095  0.48262137  1
  O  O238  1  0.77112906  0.38123576  -0.02935360  1
  O  O239  1  0.84614499  0.37805317  0.42006348  1
  O  O240  1  0.75165990  0.88251156  0.01700118  1
  O  O241  1  0.74009705  0.85967379  0.50937598  1
  O  O242  1  0.13832929  0.49995849  0.24096696  1
  O  O243  1  0.12328529  0.48379270  0.75225852  1
  O  O244  1  0.13573099  0.99890649  0.25948168  1
  O  O245  1  0.12746790  1.00460454  0.75629378  1
  O  O246  1  0.63258501  0.48094215  0.24340427  1
  O  O247  1  0.60362919  0.47609149  0.81284659  1
  O  O248  1  0.63358400  0.99695931  0.24473858  1
  O  O249  1  0.63573376  0.99645760  0.74043897  1
  O  O250  1  0.37543975  0.01604863  0.24640070  1
  O  O251  1  0.38247826  0.01935771  0.75357356  1
  O  O252  1  0.36400290  0.49732830  0.25937073  1
  O  O253  1  0.36941467  0.49694801  0.76903102  1
  O  O254  1  0.85959817  0.00018642  0.25727755  1
  O  O255  1  0.86183192  0.01073551  0.75128342  1
  O  O256  1  0.85560212  0.48880398  0.23989124  1
  O  O257  1  0.89074603  0.50679687  0.79172387  1
  O  O258  1  0.14020634  0.35502365  0.37997043  1
  O  O259  1  0.13922857  0.35023063  0.86569633  1
  O  O260  1  0.11366145  0.85960055  0.37872068  1
  O  O261  1  0.10091973  0.87029224  0.88113967  1
  O  O262  1  0.62657475  0.37357704  0.38567274  1
  O  O263  1  0.61901559  0.35147123  0.89330860  1
  O  O264  1  0.61133944  0.85896616  0.37280939  1
  O  O265  1  0.61783729  0.87499923  0.86912967  1
  O  O266  1  0.37684968  0.13716882  0.13387846  1
  O  O267  1  0.39102111  0.13728161  0.63483605  1
  O  O268  1  0.37756006  0.62726131  0.12760697  1
  O  O269  1  0.42140108  0.59412723  0.62410884  1
  O  O270  1  0.88096270  0.12701826  0.12764873  1
  O  O271  1  0.87778960  0.13413112  0.63274725  1
  O  O272  1  0.86602329  0.63607210  0.11332475  1
  O  O273  1  0.87962465  0.62783146  0.62061797  1
  O  O274  1  0.26465405  0.26510463  0.13956007  1
  O  O275  1  0.26425933  0.23402753  0.63053689  1
  O  O276  1  0.25590830  0.76520482  0.14757020  1
  O  O277  1  0.24865216  0.81105955  0.63115687  1
  O  O278  1  0.73882726  0.24925935  0.11782334  1
  O  O279  1  0.76489158  0.24964389  0.62749267  1
  O  O280  1  0.76136697  0.76160190  0.13412457  1
  O  O281  1  0.74765075  0.74890943  0.61523481  1
  O  O282  1  0.23929397  0.22978327  0.37049069  1
  O  O283  1  0.24209879  0.22916813  0.88038897  1
  O  O284  1  0.23604670  0.73625729  0.36603784  1
  O  O285  1  0.23027962  0.77533608  0.88575667  1
  O  O286  1  0.75412454  0.24340713  0.36773961  1
  O  O287  1  0.73901569  0.24262644  0.87497878  1
  O  O288  1  0.73860608  0.74599705  0.37519494  1
  O  O289  1  0.72705483  0.75234395  0.86705666  1
  O  O290  1  0.00931158  0.11868137  0.01953666  1
  O  O291  1  -0.00299929  0.12248526  0.49276327  1
  O  O292  1  -0.02675887  0.60177703  -0.10014934  1
  O  O293  1  0.01132418  0.64021540  0.51714260  1
  O  O294  1  0.50960614  0.12095246  0.00923854  1
  O  O295  1  0.51618613  0.14288031  0.51133126  1
  O  O296  1  0.49243463  0.62844053  0.01450971  1
  O  O297  1  0.49835944  0.59419680  0.48186530  1
  O  O298  1  0.49552080  0.36589433  0.48372670  1
  O  O299  1  0.49250056  0.39070724  0.98472810  1
  O  O300  1  0.50088091  0.86504297  0.48697619  1
  O  O301  1  0.49447212  0.87998503  0.98981320  1
  O  O302  1  1.00252068  0.38285185  0.49628887  1
  O  O303  1  1.00226610  0.36080964  0.99435991  1
  O  O304  1  1.01078791  0.87762563  0.53515439  1
  O  O305  1  1.00284739  0.88991320  1.02131678  1
  O  O306  1  0.50089271  0.47622122  0.36121512  1
  O  O307  1  0.47714084  0.50324675  0.88625041  1
  O  O308  1  0.50606335  0.98437141  0.37054840  1
  O  O309  1  0.50690185  0.98904992  0.87332302  1
  O  O310  1  1.01589079  0.48030760  0.36222412  1
  O  O311  1  1.04767353  0.46550787  0.88949321  1
  O  O312  1  0.98301376  0.99984263  0.37370161  1
  O  O313  1  1.00018492  0.98690749  0.89351029  1
  O  O314  1  -0.00250603  0.01284643  0.12609382  1
  O  O315  1  -0.01356248  0.02621176  0.61966843  1
  O  O316  1  0.01883520  0.50930128  0.13454962  1
  O  O317  1  -0.01096002  0.50518144  0.62528342  1
  O  O318  1  0.51374737  -0.00566910  0.13286136  1
  O  O319  1  0.51831119  0.02558494  0.63587740  1
  O  O320  1  0.49050774  0.51697132  0.12017421  1
  O  O321  1  0.51531045  0.46461050  0.61416300  1
  O  O322  1  0.25344400  0.38512406  0.24499612  1
  O  O323  1  0.23680854  0.36317216  0.73986241  1
  O  O324  1  0.25197739  0.88892771  0.24866191  1
  O  O325  1  0.25893717  0.90668120  0.75117769  1
  O  O326  1  0.73788858  0.38008270  0.24199861  1
  O  O327  1  0.76192650  0.38461009  0.77693781  1
  O  O328  1  0.74656515  0.88547981  0.24165291  1
  O  O329  1  0.74265146  0.88454491  0.74222089  1
  O  O330  1  0.25906555  0.11620915  0.25177646  1
  O  O331  1  0.26163059  0.11923341  0.77203282  1
  O  O332  1  0.24887574  0.61201483  0.26804830  1
  O  O333  1  0.27098315  0.67886150  0.68344465  1
  O  O334  1  0.73708250  0.11158317  0.26880244  1
  O  O335  1  0.75758670  0.11260458  0.75255612  1
  O  O336  1  0.73882940  0.60564878  0.25544327  1
  O  O337  1  0.72267952  0.62730040  0.75356451  1
  O  O338  1  0.36781366  0.13941097  0.36707201  1
  O  O339  1  0.36628579  0.13002828  0.87875228  1
  O  O340  1  0.35595230  0.62296743  0.39059147  1
  O  O341  1  0.36845273  0.61883140  0.87942429  1
  O  O342  1  0.85328431  0.11618864  0.38227568  1
  O  O343  1  0.88257412  0.13086325  0.86879340  1
  O  O344  1  0.85405429  0.62631746  0.36416845  1
  O  O345  1  0.83774381  0.65308795  0.87464319  1
  O  O346  1  0.14347176  0.36601450  0.12540211  1
  O  O347  1  0.13190559  0.36356221  0.63573430  1
  O  O348  1  0.13794574  0.86536716  0.13083561  1
  O  O349  1  0.18773883  0.84583736  0.61186726  1
  O  O350  1  0.62058618  0.38108848  0.11668794  1
  O  O351  1  0.66743692  0.38724449  0.62655248  1
  O  O352  1  0.63553229  0.87998814  0.12597025  1
  O  O353  1  0.63240469  0.88481211  0.63208788  1
  O  O354  1  0.11862741  0.24354750  0.26656880  1
  O  O355  1  0.13139664  0.22677541  0.76171484  1
  O  O356  1  0.11250178  0.75100980  0.26444308  1
  O  O357  1  0.12419531  0.76678600  0.76081071  1
  O  O358  1  0.61746215  0.26546396  0.24076593  1
  O  O359  1  0.61983535  0.24169596  0.76897050  1
  O  O360  1  0.61980116  0.74998624  0.26174876  1
  O  O361  1  0.61428340  0.76998663  0.75288320  1
  O  O362  1  0.38619692  0.24529026  0.24333216  1
  O  O363  1  0.38198971  0.24320901  0.74590869  1
  O  O364  1  0.38708475  0.74429021  0.26109563  1
  O  O365  1  0.38626267  0.76927297  0.75239447  1
  O  O366  1  0.88816592  0.25320467  0.24446712  1
  O  O367  1  0.87152936  0.23026655  0.74523303  1
  O  O368  1  0.88137023  0.74927781  0.23890708  1
  O  O369  1  0.85246431  0.74089629  0.73591122  1
  O  O370  1  0.37654531  0.46922051  0.50842753  1
  O  O371  1  0.37722010  0.49148922  0.99694318  1
  O  O372  1  0.28513358  0.91744011  0.47923866  1
  O  O373  1  0.37872041  0.98487996  1.00653814  1
  O  O374  1  0.90153730  0.51758225  0.48086777  1
  O  O375  1  0.87752218  0.49612708  0.97231132  1
  O  O376  1  0.86452206  0.99781106  0.48997815  1
  O  O377  1  0.89191942  0.99876703  1.00592322  1
  O  O378  1  0.11072251  0.01364589  0.00169039  1
  O  O379  1  0.11896801  0.02033805  0.49401761  1
  O  O380  1  0.13972125  0.49849919  0.02867288  1
  O  O381  1  0.12007660  0.51367801  0.49926446  1
  O  O382  1  0.62076437  0.00871499  0.01142125  1
  O  O383  1  0.62936650  -0.00165846  0.51129489  1
  O  O384  1  0.60126560  0.52647988  -0.00733432  1
  O  O385  1  0.70498520  0.43481345  0.57908003  1
  O  O386  1  0.37307938  0.37164893  0.12157351  1
  O  O387  1  0.35846649  0.36118814  0.63029668  1
  O  O388  1  0.36508810  0.87581245  0.12169211  1
  O  O389  1  0.37743751  0.93931853  0.59614440  1
  O  O390  1  0.87451941  0.38366666  0.10160299  1
  O  O391  1  0.88125209  0.36099685  0.63670162  1
  O  O392  1  0.86097423  0.87604645  0.12656761  1
  O  O393  1  0.85836856  0.85778501  0.62836514  1
  O  O394  1  0.13854143  0.12719163  0.38760438  1
  O  O395  1  0.13268958  0.12702687  0.88704563  1
  O  O396  1  0.13173561  0.62926440  0.38740080  1
  O  O397  1  0.13979145  0.64445150  0.84295728  1
  O  O398  1  0.63098649  0.13264420  0.39125609  1
  O  O399  1  0.62341017  0.12901344  0.88980439  1
  O  O400  1  0.63293181  0.63046687  0.36703352  1
  O  O401  1  0.62460455  0.64052160  0.88400631  1
