# generated using pymatgen
data_V73Zn73O256
_symmetry_space_group_name_H-M   'P 1'
_cell_length_a   16.87893192
_cell_length_b   16.86191515
_cell_length_c   16.85979272
_cell_angle_alpha   89.89256680
_cell_angle_beta   89.92235626
_cell_angle_gamma   90.05592508
_symmetry_Int_Tables_number   1
_chemical_formula_structural   V73Zn73O256
_chemical_formula_sum   'V73 Zn73 O256'
_cell_volume   4798.46931357
_cell_formula_units_Z   1
loop_
 _symmetry_equiv_pos_site_id
 _symmetry_equiv_pos_as_xyz
  1  'x, y, z'
loop_
 _atom_site_type_symbol
 _atom_site_label
 _atom_site_symmetry_multiplicity
 _atom_site_fract_x
 _atom_site_fract_y
 _atom_site_fract_z
 _atom_site_occupancy
  V  V0  1  -0.00028956  0.74659661  0.25275226  1
  V  V1  1  0.87468792  0.88197638  -0.00924760  1
  V  V2  1  0.50825122  0.87534627  0.87512928  1
  V  V3  1  0.13468521  0.38057330  0.75620401  1
  V  V4  1  0.00459850  0.62281227  0.12076397  1
  V  V5  1  0.01262556  -0.00487594  -0.00753526  1
  V  V6  1  0.25527533  0.37780011  0.61469671  1
  V  V7  1  0.50326460  0.88862121  0.39015841  1
  V  V8  1  -0.01637577  0.62574003  0.63496909  1
  V  V9  1  0.25493747  0.50168341  0.24333794  1
  V  V10  1  0.75072679  0.49610208  0.26061922  1
  V  V11  1  0.48710117  0.14295218  0.12889718  1
  V  V12  1  0.11931762  0.47961434  0.12578428  1
  V  V13  1  0.44416426  0.56919205  0.57480259  1
  V  V14  1  0.37212878  0.24172591  0.63257104  1
  V  V15  1  0.34124000  0.63052990  0.75934969  1
  V  V16  1  0.74750869  0.37343553  0.63658978  1
  V  V17  1  0.62267850  0.62037358  0.50289871  1
  V  V18  1  0.86721427  0.00102551  0.37655828  1
  V  V19  1  0.87222798  0.51828400  0.87124448  1
  V  V20  1  0.75231811  0.88587273  0.13652161  1
  V  V21  1  0.61438539  0.01112940  0.61783891  1
  V  V22  1  0.75236255  0.51302699  0.75464004  1
  V  V23  1  -0.00318587  0.50124659  0.49559969  1
  V  V24  1  0.50036226  -0.00509090  0.01286846  1
  V  V25  1  0.73964281  0.24475441  0.50294541  1
  V  V26  1  0.75151920  0.73587868  -0.00291290  1
  V  V27  1  0.24965125  0.11666452  0.87222718  1
  V  V28  1  0.62813799  0.25375102  0.88367563  1
  V  V29  1  0.87380650  0.23894199  0.62948411  1
  V  V30  1  0.87165120  0.24927442  0.11208495  1
  V  V31  1  0.00846982  0.11309095  0.12559019  1
  V  V32  1  0.62753564  0.12325300  0.00187607  1
  V  V33  1  0.26111699  0.36009743  0.12704227  1
  V  V34  1  0.26255897  0.23891895  0.00708796  1
  V  V35  1  -0.00356233  0.49335771  -0.00464841  1
  V  V36  1  0.74992719  0.36777900  0.11045921  1
  V  V37  1  0.86787546  0.37372189  0.48813215  1
  V  V38  1  0.62914270  0.73532015  0.37071649  1
  V  V39  1  0.28144230  0.88179728  0.15955414  1
  V  V40  1  0.62449283  0.51346778  0.11027495  1
  V  V41  1  0.26407888  0.62549966  0.36384452  1
  V  V42  1  0.12378327  0.73763463  0.38422877  1
  V  V43  1  0.13108074  0.63977871  -0.01105494  1
  V  V44  1  0.63637282  0.88372496  0.25481754  1
  V  V45  1  -0.00828992  0.87234666  0.39081358  1
  V  V46  1  0.13827820  0.01320345  0.61357282  1
  V  V47  1  -0.01537604  0.37409542  0.87235130  1
  V  V48  1  0.12473231  0.24015667  0.88191936  1
  V  V49  1  0.41402343  0.45521122  0.94027097  1
  V  V50  1  0.61808727  0.50500487  0.62639041  1
  V  V51  1  0.61794256  0.25088580  0.37246493  1
  V  V52  1  0.63166234  0.73387245  0.87962152  1
  V  V53  1  0.48626650  0.74660641  0.25114279  1
  V  V54  1  0.75866433  0.87982455  0.61635622  1
  V  V55  1  0.61797402  0.37507047  0.24573027  1
  V  V56  1  0.87171828  0.74543118  0.12532903  1
  V  V57  1  0.63869379  0.88786746  0.75193002  1
  V  V58  1  0.60942840  0.37721541  0.75565446  1
  V  V59  1  0.11393995  0.88886818  0.24332165  1
  V  V60  1  0.49579888  0.39308061  0.38581737  1
  V  V61  1  0.00062348  0.03527374  0.50273479  1
  V  V62  1  0.00269468  0.25201109  0.25396900  1
  V  V63  1  -0.00024910  0.79283263  0.76995059  1
  V  V64  1  0.37074043  0.83632812  -0.00990785  1
  V  V65  1  0.50866182  0.73890072  0.74375909  1
  V  V66  1  0.74356454  0.12223275  0.36814492  1
  V  V67  1  0.02219035  0.36746335  0.37688381  1
  V  V68  1  0.38034719  0.00820344  0.87358021  1
  V  V69  1  -0.00003279  0.23979172  0.74167040  1
  V  V70  1  0.87563958  0.60887801  0.25315478  1
  V  V71  1  0.49323750  0.22483917  0.75604425  1
  V  V72  1  0.12539687  0.50620057  0.62729887  1
  Zn  Zn73  1  0.48332709  0.25468015  0.24751659  1
  Zn  Zn74  1  0.78800397  0.62664626  0.40020614  1
  Zn  Zn75  1  0.86178206  0.12036934  0.23912309  1
  Zn  Zn76  1  0.85271975  0.02245327  0.83976049  1
  Zn  Zn77  1  0.58943853  0.12394563  0.49640091  1
  Zn  Zn78  1  0.76492116  0.74689030  0.51690850  1
  Zn  Zn79  1  0.26388814  0.81442476  0.52400383  1
  Zn  Zn80  1  0.38601693  0.76222657  0.62021023  1
  Zn  Zn81  1  0.25746326  -0.00514498  0.72609629  1
  Zn  Zn82  1  0.18130349  0.18610736  0.19147686  1
  Zn  Zn83  1  0.18713057  0.18753393  0.68607603  1
  Zn  Zn84  1  0.19367594  0.69659972  0.18277491  1
  Zn  Zn85  1  0.17053498  0.70231886  0.68568835  1
  Zn  Zn86  1  0.67909274  0.18593449  0.18087343  1
  Zn  Zn87  1  0.67820763  0.18786184  0.68880215  1
  Zn  Zn88  1  0.68783338  0.68747235  0.19239057  1
  Zn  Zn89  1  0.68964325  0.69202286  0.68686000  1
  Zn  Zn90  1  0.31151680  0.33543571  0.31061815  1
  Zn  Zn91  1  0.31658571  0.30930843  0.82415512  1
  Zn  Zn92  1  0.30491071  0.84430030  0.33791941  1
  Zn  Zn93  1  0.32488596  0.81381653  0.80373511  1
  Zn  Zn94  1  0.80845152  0.30509671  0.30294502  1
  Zn  Zn95  1  0.81352901  0.19418730  0.82218539  1
  Zn  Zn96  1  0.82085043  0.79631363  0.33545989  1
  Zn  Zn97  1  0.81621665  0.80293382  0.80629384  1
  Zn  Zn98  1  0.21208474  0.47776744  0.45999436  1
  Zn  Zn99  1  0.19356013  0.43099206  0.93932906  1
  Zn  Zn100  1  0.15823668  0.92547671  0.45804496  1
  Zn  Zn101  1  0.21376455  0.93781183  0.98008752  1
  Zn  Zn102  1  0.68259465  0.43718090  0.43935212  1
  Zn  Zn103  1  0.69013570  0.43592847  0.93204476  1
  Zn  Zn104  1  0.67904081  0.93843162  0.44120465  1
  Zn  Zn105  1  0.69186534  0.93404147  0.94822305  1
  Zn  Zn106  1  0.31436508  0.05377805  0.06422360  1
  Zn  Zn107  1  0.33120103  0.06066914  0.55127413  1
  Zn  Zn108  1  0.28713165  0.54655432  0.02227974  1
  Zn  Zn109  1  0.28657897  0.65070526  0.55077981  1
  Zn  Zn110  1  0.83394936  0.09187935  0.01261944  1
  Zn  Zn111  1  0.80547259  0.05594846  0.56236114  1
  Zn  Zn112  1  0.81200241  0.55278527  0.06417914  1
  Zn  Zn113  1  0.80991627  0.55358065  0.56511181  1
  Zn  Zn114  1  0.42121211  0.46442816  0.13917154  1
  Zn  Zn115  1  0.40108413  0.42874457  0.74295080  1
  Zn  Zn116  1  0.45516486  0.89779033  0.17690254  1
  Zn  Zn117  1  0.44370818  0.94038859  0.69639138  1
  Zn  Zn118  1  0.93741960  0.42717007  0.18696312  1
  Zn  Zn119  1  0.93590973  0.43082418  0.68951538  1
  Zn  Zn120  1  0.93106698  0.93646587  0.19282703  1
  Zn  Zn121  1  0.93444261  0.94762606  0.67799911  1
  Zn  Zn122  1  0.04915712  0.06518345  0.31670671  1
  Zn  Zn123  1  0.03222292  0.02128275  0.78004409  1
  Zn  Zn124  1  0.06125620  0.55462435  0.31053697  1
  Zn  Zn125  1  0.06188561  0.56918662  0.81071058  1
  Zn  Zn126  1  0.56227498  0.06401577  0.30398050  1
  Zn  Zn127  1  0.68156869  0.06628050  0.82041713  1
  Zn  Zn128  1  0.55569382  0.56219233  0.29692852  1
  Zn  Zn129  1  0.55697768  0.55230387  0.82137184  1
  Zn  Zn130  1  0.41244522  0.24289345  0.43535961  1
  Zn  Zn131  1  0.44500579  0.18629917  0.93781778  1
  Zn  Zn132  1  0.43791249  0.70169966  0.43401171  1
  Zn  Zn133  1  0.43637768  0.65004285  0.92189619  1
  Zn  Zn134  1  0.92274386  0.19365968  0.43385885  1
  Zn  Zn135  1  0.95405790  0.18287922  0.93723383  1
  Zn  Zn136  1  0.95079719  0.71455028  0.47998442  1
  Zn  Zn137  1  0.94690020  0.69500313  0.93441781  1
  Zn  Zn138  1  0.05458732  0.30451591  0.05824285  1
  Zn  Zn139  1  0.06780677  0.30843440  0.56042581  1
  Zn  Zn140  1  0.05989970  0.81468279  0.06065300  1
  Zn  Zn141  1  0.07513908  0.80989762  0.58988159  1
  Zn  Zn142  1  0.54716337  0.32638611  0.05381743  1
  Zn  Zn143  1  0.55164874  0.31496146  0.57079457  1
  Zn  Zn144  1  0.56921480  0.80552715  0.06716516  1
  Zn  Zn145  1  0.57999585  0.81027610  0.56294834  1
  O  O146  1  0.10795051  0.12250587  0.12992005  1
  O  O147  1  0.13298192  0.11688572  0.61478064  1
  O  O148  1  0.11135864  0.62469596  0.12033263  1
  O  O149  1  0.11163902  0.60802099  0.62607369  1
  O  O150  1  0.60393966  0.13512940  0.11029417  1
  O  O151  1  0.61863830  0.11643825  0.62040872  1
  O  O152  1  0.63415319  0.61344585  0.12377511  1
  O  O153  1  0.62940655  0.61654076  0.61797431  1
  O  O154  1  0.39505875  0.36481283  0.37857093  1
  O  O155  1  0.39040851  0.39130427  0.85640442  1
  O  O156  1  0.40502693  0.88366500  0.38200974  1
  O  O157  1  0.38912230  0.87533755  0.88108217  1
  O  O158  1  0.86311312  0.36728957  0.38700409  1
  O  O159  1  0.88681178  0.37676896  0.87504175  1
  O  O160  1  0.88456159  0.88449659  0.37187245  1
  O  O161  1  0.86591172  0.87178792  0.89208017  1
  O  O162  1  0.31050237  0.04042649  0.36727981  1
  O  O163  1  0.26592418  0.00319181  0.89229383  1
  O  O164  1  0.24367819  0.50218290  0.34897827  1
  O  O165  1  0.29640512  0.47892136  0.92840118  1
  O  O166  1  0.75468213  0.01169778  0.38929585  1
  O  O167  1  0.75116061  -0.00008245  0.88077000  1
  O  O168  1  0.74534881  0.50525758  0.36435727  1
  O  O169  1  0.76522752  0.49861292  0.87082631  1
  O  O170  1  0.23385080  0.48029136  0.12307311  1
  O  O171  1  0.22725508  0.49274273  0.62358249  1
  O  O172  1  0.24956660  0.96272067  0.09633079  1
  O  O173  1  0.24746864  1.01067389  0.60631533  1
  O  O174  1  0.74404493  0.48407638  0.13066921  1
  O  O175  1  0.74030758  0.49156671  0.63559000  1
  O  O176  1  0.75827752  0.98171924  0.13071279  1
  O  O177  1  0.73376488  0.98944619  0.62331037  1
  O  O178  1  -0.00633088  0.36579713  0.26624633  1
  O  O179  1  0.00912436  0.36615429  0.75732350  1
  O  O180  1  -0.00365546  0.86167457  0.25768256  1
  O  O181  1  0.00176597  0.89567678  0.76455704  1
  O  O182  1  0.51223423  0.37257668  0.25752294  1
  O  O183  1  0.51092388  0.38914726  0.74781427  1
  O  O184  1  0.52491258  0.87071612  0.26789113  1
  O  O185  1  0.51356378  0.86687299  0.76094411  1
  O  O186  1  0.50465099  0.13068324  0.23265236  1
  O  O187  1  0.49707101  0.12929313  0.75225997  1
  O  O188  1  0.49583753  0.64483586  0.24990024  1
  O  O189  1  0.51429144  0.63931689  0.75268832  1
  O  O190  1  0.99186103  0.13512301  0.24182845  1
  O  O191  1  1.02287739  0.14479515  0.74761844  1
  O  O192  1  0.99217074  0.62310189  0.23872035  1
  O  O193  1  0.99982987  0.63033501  0.73520631  1
  O  O194  1  0.36072971  0.24660539  -0.00474727  1
  O  O195  1  0.37941953  0.27263442  0.53671951  1
  O  O196  1  0.40473387  0.74226575  -0.01600151  1
  O  O197  1  0.36326763  0.74145178  0.50840087  1
  O  O198  1  0.88956988  0.25361206  0.01390464  1
  O  O199  1  0.85980354  0.25802832  0.50873409  1
  O  O200  1  0.87327043  0.75790930  0.00747138  1
  O  O201  1  0.84779101  0.73238062  0.44257952  1
  O  O202  1  0.13876352  0.25124143  0.49893581  1
  O  O203  1  0.12624517  0.25177733  0.98514853  1
  O  O204  1  0.12475063  0.75246006  0.48248847  1
  O  O205  1  0.10875061  0.73834480  0.99548926  1
  O  O206  1  0.62481847  0.24763202  0.49519325  1
  O  O207  1  0.60703557  0.24588030  0.98920370  1
  O  O208  1  0.63449886  0.73682083  0.48737537  1
  O  O209  1  0.63461186  0.75367411  0.98802669  1
  O  O210  1  0.48873792  0.24707207  0.12303053  1
  O  O211  1  0.48778635  0.25464691  0.64539065  1
  O  O212  1  0.49659911  0.78026221  0.14982481  1
  O  O213  1  0.51100740  0.75769005  0.64124932  1
  O  O214  1  0.98926477  0.24426436  0.13289854  1
  O  O215  1  0.99077847  0.26115544  0.63591272  1
  O  O216  1  0.98953769  0.74145536  0.13186009  1
  O  O217  1  0.99599019  0.72123511  0.58704627  1
  O  O218  1  -0.00643083  0.25563245  0.36417790  1
  O  O219  1  0.01151123  0.25482642  0.86698459  1
  O  O220  1  0.00179371  0.75532920  0.37206832  1
  O  O221  1  0.01119586  0.75795016  0.86546582  1
  O  O222  1  0.50906422  0.25464552  0.37008705  1
  O  O223  1  0.50477264  0.24765450  0.86287302  1
  O  O224  1  0.51490055  0.75994675  0.36954061  1
  O  O225  1  0.51790417  0.75476149  0.86709625  1
  O  O226  1  0.27331533  0.05620067  0.42889066  1
  O  O227  1  0.24933448  0.13243010  0.99640235  1
  O  O228  1  0.23970775  0.59525438  0.46450384  1
  O  O229  1  0.22875084  0.63874098  1.01969363  1
  O  O230  1  0.74724575  0.13920873  0.49313337  1
  O  O231  1  0.72506443  0.12398278  1.01603241  1
  O  O232  1  0.73807364  0.61984489  0.50310162  1
  O  O233  1  0.76124630  0.63681335  1.00174915  1
  O  O234  1  0.24045074  0.35295997  0.01912178  1
  O  O235  1  0.25214716  0.38326416  0.51426650  1
  O  O236  1  0.27071710  0.83765714  -0.02444215  1
  O  O237  1  0.25849639  0.88325601  0.43902503  1
  O  O238  1  0.74879216  0.37285482  0.01213816  1
  O  O239  1  0.74851297  0.36741260  0.51031292  1
  O  O240  1  0.75926470  0.86412006  0.01725557  1
  O  O241  1  0.74198836  0.87143220  0.51299193  1
  O  O242  1  0.12513178  0.50214730  0.22838311  1
  O  O243  1  0.11262953  0.48746819  0.74079621  1
  O  O244  1  0.10133143  0.98729788  0.25217092  1
  O  O245  1  0.13170698  0.99567625  0.71842236  1
  O  O246  1  0.63638225  0.49379183  0.24132717  1
  O  O247  1  0.63118825  0.49599198  0.75064332  1
  O  O248  1  0.63621176  0.98263208  0.25543974  1
  O  O249  1  0.62569495  0.99026724  0.74582955  1
  O  O250  1  0.35189795  -0.08281209  0.22618711  1
  O  O251  1  0.37235567  -0.00281851  0.77040744  1
  O  O252  1  0.35351489  0.50087799  0.22741205  1
  O  O253  1  0.37744751  0.53710432  0.75809578  1
  O  O254  1  0.87977741  0.00589153  0.26938556  1
  O  O255  1  0.91747987  0.03026747  0.75159360  1
  O  O256  1  0.86730110  0.50302509  0.23661076  1
  O  O257  1  0.86807881  0.49450422  0.76318775  1
  O  O258  1  0.11800187  0.36355244  0.37992997  1
  O  O259  1  0.11984496  0.37182549  0.86819818  1
  O  O260  1  0.10236290  0.86463521  0.36564141  1
  O  O261  1  0.16598360  0.85502510  0.85016099  1
  O  O262  1  0.61859192  0.37012991  0.36703863  1
  O  O263  1  0.62255415  0.36658148  0.86930551  1
  O  O264  1  0.63806124  0.85759338  0.36682571  1
  O  O265  1  0.62387535  0.87419490  0.86681068  1
  O  O266  1  0.38903325  0.11635338  0.12182039  1
  O  O267  1  0.35990489  0.14256977  0.62782921  1
  O  O268  1  0.39004392  0.64972990  0.12205084  1
  O  O269  1  0.37739442  0.62947199  0.63232645  1
  O  O270  1  0.87751722  0.13683633  0.11904169  1
  O  O271  1  0.86622345  0.14077440  0.61762465  1
  O  O272  1  0.88611267  0.62700489  0.12596400  1
  O  O273  1  0.88385927  0.61548781  0.62488852  1
  O  O274  1  0.24441082  0.24799686  0.11974116  1
  O  O275  1  0.25954871  0.26884488  0.64193523  1
  O  O276  1  0.25510505  0.78303737  0.14359167  1
  O  O277  1  0.24594176  0.74195797  0.60908537  1
  O  O278  1  0.75914172  0.25662569  0.12640585  1
  O  O279  1  0.74980151  0.25682195  0.62093507  1
  O  O280  1  0.76146210  0.74697906  0.11954026  1
  O  O281  1  0.74686624  0.76944136  0.62836056  1
  O  O282  1  0.31399859  0.21770753  0.37273457  1
  O  O283  1  0.24286769  0.24248049  0.88659254  1
  O  O284  1  0.23360330  0.73150050  0.36124750  1
  O  O285  1  0.20458025  0.79226834  0.83615257  1
  O  O286  1  0.73686305  0.24515418  0.38275787  1
  O  O287  1  0.72734904  0.25331955  0.87669167  1
  O  O288  1  0.73090655  0.72507113  0.35317078  1
  O  O289  1  0.73974865  0.75306594  0.88011890  1
  O  O290  1  0.00021584  0.10874401  0.01483723  1
  O  O291  1  -0.00319500  0.13480727  0.49852908  1
  O  O292  1  0.00613053  0.61413045  0.00378720  1
  O  O293  1  -0.00657817  0.60047276  0.49254205  1
  O  O294  1  0.50040089  0.11178920  0.01125016  1
  O  O295  1  0.46776394  0.13243487  0.48214152  1
  O  O296  1  0.45290610  0.63768781  0.08721534  1
  O  O297  1  0.50533686  0.62959717  0.50933451  1
  O  O298  1  0.51274478  0.37886275  0.48487762  1
  O  O299  1  0.47672910  0.39000318  0.98797855  1
  O  O300  1  0.52075998  0.87025718  0.48964203  1
  O  O301  1  0.50718298  0.88115663  0.99227367  1
  O  O302  1  0.98960475  0.37051963  0.48745697  1
  O  O303  1  1.00662203  0.38655451  0.98911826  1
  O  O304  1  0.99421153  0.86343222  0.48896798  1
  O  O305  1  0.98329863  0.88376478  1.00870891  1
  O  O306  1  0.50188130  0.49164489  0.36909395  1
  O  O307  1  0.47413818  0.53954031  0.90172937  1
  O  O308  1  0.52638360  0.98816901  0.37869078  1
  O  O309  1  0.48928328  0.98923712  0.88246996  1
  O  O310  1  1.00952644  0.48081352  0.38573194  1
  O  O311  1  0.98908784  0.49518445  0.87580018  1
  O  O312  1  0.99162236  0.99180447  0.38918521  1
  O  O313  1  1.00337863  1.00863751  0.89438299  1
  O  O314  1  -0.00986246  0.01052563  0.12484661  1
  O  O315  1  0.01024089  0.00357156  0.60258624  1
  O  O316  1  0.00379952  0.50011421  0.11704477  1
  O  O317  1  0.00045426  0.50423824  0.61828194  1
  O  O318  1  0.49897758  -0.01062182  0.11370353  1
  O  O319  1  0.51492616  -0.00682093  0.62866490  1
  O  O320  1  0.52800501  0.49203809  0.13367111  1
  O  O321  1  0.50974053  0.50630213  0.63214328  1
  O  O322  1  0.24029188  0.38220642  0.23634663  1
  O  O323  1  0.23567354  0.37845059  0.76205528  1
  O  O324  1  0.21852758  0.87890490  0.25860922  1
  O  O325  1  0.28929473  0.87677707  0.71002369  1
  O  O326  1  0.73903856  0.38001134  0.24549175  1
  O  O327  1  0.73621233  0.38103095  0.74054400  1
  O  O328  1  0.74878969  0.86208691  0.24547793  1
  O  O329  1  0.74139178  0.87351634  0.74598175  1
  O  O330  1  0.20444009  0.11956592  0.28758258  1
  O  O331  1  0.24423499  0.11654556  0.76841828  1
  O  O332  1  0.24054402  0.61215035  0.24935791  1
  O  O333  1  0.24247650  0.63272569  0.74002490  1
  O  O334  1  0.74146365  0.12968136  0.26298876  1
  O  O335  1  0.74750292  0.13086499  0.75476512  1
  O  O336  1  0.76759039  0.61300931  0.24243079  1
  O  O337  1  0.74714157  0.61230682  0.74721120  1
  O  O338  1  0.34738720  0.18119261  0.30550372  1
  O  O339  1  0.36943587  0.11315159  0.88214929  1
  O  O340  1  0.36191852  0.63255249  0.36806528  1
  O  O341  1  0.34140516  0.65700959  0.85857372  1
  O  O342  1  0.85893944  0.12158172  0.37104276  1
  O  O343  1  0.86379996  0.12591554  0.90208771  1
  O  O344  1  0.89045279  0.60678754  0.35163033  1
  O  O345  1  0.88184407  0.61699417  0.87236491  1
  O  O346  1  0.11605712  0.37875147  0.12437684  1
  O  O347  1  0.13406520  0.37588257  0.64082381  1
  O  O348  1  0.11062768  0.87177091  0.14321033  1
  O  O349  1  0.13757305  0.90294466  0.57590792  1
  O  O350  1  0.63550416  0.36909963  0.12875602  1
  O  O351  1  0.62771507  0.38433452  0.63300453  1
  O  O352  1  0.64285762  0.86547687  0.14100132  1
  O  O353  1  0.63134417  0.88355233  0.64037925  1
  O  O354  1  0.10202639  0.25195893  0.24411609  1
  O  O355  1  0.12139970  0.26272387  0.75938086  1
  O  O356  1  0.10752125  0.74986216  0.25533041  1
  O  O357  1  0.08373461  0.77174337  0.70561560  1
  O  O358  1  0.62571688  0.25880068  0.25875660  1
  O  O359  1  0.60878124  0.25720769  0.75832772  1
  O  O360  1  0.61618066  0.74837267  0.25980060  1
  O  O361  1  0.62449110  0.75850131  0.76159295  1
  O  O362  1  0.36225724  0.24161091  0.24818584  1
  O  O363  1  0.38523329  0.25232768  0.75051399  1
  O  O364  1  0.39036334  0.76583145  0.27282215  1
  O  O365  1  0.39469833  0.74061975  0.74392889  1
  O  O366  1  0.88155053  0.24498437  0.23736888  1
  O  O367  1  0.89196873  0.24374365  0.74714960  1
  O  O368  1  0.88177847  0.73275834  0.24513466  1
  O  O369  1  0.90324441  0.76955743  0.74283106  1
  O  O370  1  0.38918821  0.51476276  0.51814478  1
  O  O371  1  0.39062777  0.50647942  1.03613750  1
  O  O372  1  0.42847839  1.06219296  0.48736437  1
  O  O373  1  0.39016525  0.99243970  0.99111597  1
  O  O374  1  0.88609221  0.48477416  0.50593701  1
  O  O375  1  0.88472101  0.50365725  0.98558274  1
  O  O376  1  0.88792566  1.01192717  0.48981163  1
  O  O377  1  0.87851071  0.98497617  1.00510769  1
  O  O378  1  0.11031687  -0.02312707  0.00210899  1
  O  O379  1  0.10624579  0.02368741  0.48624644  1
  O  O380  1  0.11754991  0.50502013  0.01225643  1
  O  O381  1  0.10625583  0.48339461  0.51771571  1
  O  O382  1  0.61021688  0.01103215  -0.00616575  1
  O  O383  1  0.62192360  0.00876639  0.51274516  1
  O  O384  1  0.63360971  0.49799760  0.01014811  1
  O  O385  1  0.62616637  0.50722414  0.51342614  1
  O  O386  1  0.35972093  0.36284091  0.13172028  1
  O  O387  1  0.35253252  0.39043957  0.64588218  1
  O  O388  1  0.37481764  0.86510360  0.09033549  1
  O  O389  1  0.35444917  0.87810591  0.65011457  1
  O  O390  1  0.86101988  0.36392497  0.12777908  1
  O  O391  1  0.86213608  0.36612324  0.62091097  1
  O  O392  1  0.86724382  0.86163198  0.12717391  1
  O  O393  1  0.85834840  0.88835555  0.62233270  1
  O  O394  1  0.15342198  0.12306940  0.34543420  1
  O  O395  1  0.13086295  0.13954147  0.87543055  1
  O  O396  1  0.11361709  0.63621542  0.37106564  1
  O  O397  1  0.12772765  0.61410289  0.89040490  1
  O  O398  1  0.62592066  0.13426137  0.37844094  1
  O  O399  1  0.61891099  0.13818077  0.89109339  1
  O  O400  1  0.61157560  0.62905589  0.38490329  1
  O  O401  1  0.62468233  0.63553061  0.87635597  1
