# generated using pymatgen
data_V73Zn73O256
_symmetry_space_group_name_H-M   'P 1'
_cell_length_a   16.83401899
_cell_length_b   16.86954780
_cell_length_c   16.86304881
_cell_angle_alpha   90.13726878
_cell_angle_beta   89.98764086
_cell_angle_gamma   90.05024701
_symmetry_Int_Tables_number   1
_chemical_formula_structural   V73Zn73O256
_chemical_formula_sum   'V73 Zn73 O256'
_cell_volume   4788.79148851
_cell_formula_units_Z   1
loop_
 _symmetry_equiv_pos_site_id
 _symmetry_equiv_pos_as_xyz
  1  'x, y, z'
loop_
 _atom_site_type_symbol
 _atom_site_label
 _atom_site_symmetry_multiplicity
 _atom_site_fract_x
 _atom_site_fract_y
 _atom_site_fract_z
 _atom_site_occupancy
  V  V0  1  0.86465667  0.50797535  0.37348855  1
  V  V1  1  0.11636367  0.37094734  0.27411686  1
  V  V2  1  0.62643496  0.40582093  0.25745797  1
  V  V3  1  0.51641519  0.48781241  -0.01233359  1
  V  V4  1  0.62840648  0.13069392  -0.00809817  1
  V  V5  1  0.23807353  0.37662551  0.13246066  1
  V  V6  1  0.84563610  0.02522909  0.86911029  1
  V  V7  1  0.24971842  -0.00079388  0.24870301  1
  V  V8  1  0.50090915  0.37784653  0.37850820  1
  V  V9  1  0.38998383  0.12304109  0.74451797  1
  V  V10  1  0.12163148  0.87183605  0.26210574  1
  V  V11  1  0.75367775  0.88029648  0.62819245  1
  V  V12  1  0.88097180  0.23771983  0.62970396  1
  V  V13  1  0.24914766  0.24579430  -0.00219063  1
  V  V14  1  0.38953541  0.74613597  0.63393421  1
  V  V15  1  -0.00265345  0.38177078  0.87642675  1
  V  V16  1  0.12307838  0.11896463  -0.00252332  1
  V  V17  1  0.37775804  0.88468028  0.49979873  1
  V  V18  1  0.00372978  0.23723368  0.74797595  1
  V  V19  1  0.49311619  0.87198859  0.87282565  1
  V  V20  1  0.10448510  0.00105558  0.62202849  1
  V  V21  1  0.24469016  0.00905310  0.74881711  1
  V  V22  1  0.11228151  0.86753283  0.75289408  1
  V  V23  1  0.37219885  0.25220935  0.12768392  1
  V  V24  1  0.37768550  0.00305854  0.37787611  1
  V  V25  1  0.87432206  -0.01394899  0.36338577  1
  V  V26  1  0.24720223  0.87744886  0.62324955  1
  V  V27  1  0.37254769  0.00876401  0.88307477  1
  V  V28  1  0.50179746  0.61064238  0.11989758  1
  V  V29  1  0.62416267  0.74627224  0.87564357  1
  V  V30  1  0.26713693  0.50663245  0.26624779  1
  V  V31  1  0.25570986  0.86103165  0.11909505  1
  V  V32  1  0.12297977  0.51851314  0.62146994  1
  V  V33  1  0.62431302  0.73007849  0.37153901  1
  V  V34  1  0.61629644  0.35913594  0.75118388  1
  V  V35  1  0.75583795  0.37920539  0.62021731  1
  V  V36  1  0.12056628  -0.00432245  0.11958802  1
  V  V37  1  0.48954475  0.75278059  0.24164638  1
  V  V38  1  0.50943684  0.24839818  0.25165329  1
  V  V39  1  0.86796642  0.62387395  0.23793880  1
  V  V40  1  0.12379218  0.72946834  0.38016059  1
  V  V41  1  0.14260861  0.39388623  0.76521094  1
  V  V42  1  0.12809308  0.24000564  0.87387206  1
  V  V43  1  -0.00646970  0.87824248  0.89647130  1
  V  V44  1  0.88834094  0.37350686  0.49562490  1
  V  V45  1  0.23997408  0.24914496  0.49794651  1
  V  V46  1  0.74289588  0.73960517  0.49781713  1
  V  V47  1  -0.00077400  0.24490558  0.26836415  1
  V  V48  1  0.61594967  0.87529296  0.74803582  1
  V  V49  1  0.10332229  0.12334756  0.50278791  1
  V  V50  1  0.61286744  0.00700001  0.61670647  1
  V  V51  1  0.37242173  0.12930157  0.24669703  1
  V  V52  1  0.00527648  0.51697582  0.49466613  1
  V  V53  1  0.60261445  0.00850759  0.12292698  1
  V  V54  1  0.36876312  0.38905181  -0.00641415  1
  V  V55  1  -0.00269130  0.50573709  0.00771389  1
  V  V56  1  0.86169895  0.11446515  0.24709836  1
  V  V57  1  -0.00037526  0.12564390  0.12241634  1
  V  V58  1  0.50409837  0.51419195  0.50631267  1
  V  V59  1  0.88589107  0.87627780  0.49376859  1
  V  V60  1  0.62444742  0.51422278  0.62742176  1
  V  V61  1  0.37550561  0.38056441  0.49990164  1
  V  V62  1  0.50898322  0.88303602  0.37495981  1
  V  V63  1  0.13526603  0.73597819  0.87888113  1
  V  V64  1  0.14761894  0.62173456  0.00940762  1
  V  V65  1  0.37959440  0.85057362  -0.00138843  1
  V  V66  1  0.25119294  0.73691169  0.49479861  1
  V  V67  1  0.24697245  0.37652357  0.63005575  1
  V  V68  1  0.23834604  0.12936091  0.37602470  1
  V  V69  1  0.74201477  0.38114233  0.13921787  1
  V  V70  1  0.38479435  0.24087141  0.62247186  1
  V  V71  1  0.87131778  0.36395728  0.00524102  1
  V  V72  1  0.88577071  0.73675238  0.63450291  1
  Zn  Zn73  1  0.77007640  0.77386692  -0.00253904  1
  Zn  Zn74  1  0.74547848  0.88159242  0.12152397  1
  Zn  Zn75  1  0.76548850  0.62817022  0.86603739  1
  Zn  Zn76  1  0.11970081  0.51244469  0.14132417  1
  Zn  Zn77  1  0.86554991  0.24096702  0.12327975  1
  Zn  Zn78  1  0.75933380  0.50723723  0.75549674  1
  Zn  Zn79  1  -0.00425920  0.74120547  0.24996288  1
  Zn  Zn80  1  0.64996369  0.90033072  0.25492893  1
  Zn  Zn81  1  0.70308621  0.20185654  0.44767499  1
  Zn  Zn82  1  0.18051293  0.19019608  0.18846071  1
  Zn  Zn83  1  0.18298863  0.19048026  0.68157227  1
  Zn  Zn84  1  0.19411254  0.68479235  0.19520268  1
  Zn  Zn85  1  0.19457587  0.69193845  0.68631459  1
  Zn  Zn86  1  0.68740067  0.18721825  0.17213640  1
  Zn  Zn87  1  0.67065635  0.20530900  0.63557482  1
  Zn  Zn88  1  0.68728757  0.68328504  0.18396853  1
  Zn  Zn89  1  0.69274566  0.69309902  0.69324360  1
  Zn  Zn90  1  0.30930754  0.31815748  0.31669504  1
  Zn  Zn91  1  0.33113005  0.30546394  0.81911456  1
  Zn  Zn92  1  0.31118908  0.81169467  0.31490592  1
  Zn  Zn93  1  0.30708593  0.80802998  0.81013154  1
  Zn  Zn94  1  0.81163304  0.30851326  0.31551821  1
  Zn  Zn95  1  0.82039784  0.32392702  0.80211717  1
  Zn  Zn96  1  0.80623580  0.80369648  0.30687836  1
  Zn  Zn97  1  0.81384446  0.81832760  0.81296649  1
  Zn  Zn98  1  0.18820038  0.44223842  0.44203975  1
  Zn  Zn99  1  0.18132230  0.43309931  0.94668670  1
  Zn  Zn100  1  0.18581977  0.94332465  0.44284363  1
  Zn  Zn101  1  0.19315614  0.93240457  0.93396672  1
  Zn  Zn102  1  0.68745045  0.43646106  0.44309655  1
  Zn  Zn103  1  0.69400456  0.42533737  0.93259002  1
  Zn  Zn104  1  0.69791943  0.94233046  0.44253629  1
  Zn  Zn105  1  0.68314003  0.94619960  0.94425581  1
  Zn  Zn106  1  0.30892000  0.06348378  0.06520094  1
  Zn  Zn107  1  0.30289518  0.06341543  0.56358515  1
  Zn  Zn108  1  0.31858679  0.56699795  0.08759448  1
  Zn  Zn109  1  0.31684164  0.56305192  0.57520659  1
  Zn  Zn110  1  0.80050047  0.05157965  0.04547815  1
  Zn  Zn111  1  0.80689919  0.05838703  0.55578098  1
  Zn  Zn112  1  0.81837931  0.55549601  0.06238969  1
  Zn  Zn113  1  0.81390905  0.56234654  0.55996064  1
  Zn  Zn114  1  0.43854476  0.43374254  0.18343133  1
  Zn  Zn115  1  0.44181722  0.43717379  0.69070257  1
  Zn  Zn116  1  0.44339834  0.92895712  0.18198695  1
  Zn  Zn117  1  0.43818379  0.93980112  0.68434692  1
  Zn  Zn118  1  0.93797874  0.43640332  0.19042428  1
  Zn  Zn119  1  0.95305419  0.43821692  0.68462889  1
  Zn  Zn120  1  0.93870740  0.92902951  0.18348002  1
  Zn  Zn121  1  0.92634743  0.93416741  0.69548492  1
  Zn  Zn122  1  0.05299702  0.05654162  0.31674059  1
  Zn  Zn123  1  0.05505828  0.05374592  0.81344345  1
  Zn  Zn124  1  0.05288903  0.55911135  0.31296859  1
  Zn  Zn125  1  0.22146630  0.56258308  0.80937629  1
  Zn  Zn126  1  0.56499196  0.06846619  0.31215266  1
  Zn  Zn127  1  0.57000806  0.05708924  0.80757126  1
  Zn  Zn128  1  0.49831169  0.58034122  0.32580366  1
  Zn  Zn129  1  0.60741051  0.53683000  0.83581550  1
  Zn  Zn130  1  0.43397613  0.19235423  0.43234659  1
  Zn  Zn131  1  0.45742734  0.20394093  0.93125192  1
  Zn  Zn132  1  0.43608016  0.69753616  0.44227172  1
  Zn  Zn133  1  0.45604262  0.67442621  0.92974871  1
  Zn  Zn134  1  0.89877078  0.17164337  0.44709927  1
  Zn  Zn135  1  0.93428739  0.17989570  0.93303768  1
  Zn  Zn136  1  0.93325775  0.69268422  0.43400279  1
  Zn  Zn137  1  0.95486153  0.68562430  0.92036534  1
  Zn  Zn138  1  0.05833063  0.30730789  0.06455857  1
  Zn  Zn139  1  0.06372173  0.31651763  0.56403780  1
  Zn  Zn140  1  0.06880854  0.80414153  0.06278633  1
  Zn  Zn141  1  0.06318211  0.80337617  0.56236241  1
  Zn  Zn142  1  0.56026712  0.31713346  0.06856749  1
  Zn  Zn143  1  0.56586423  0.31609955  0.56047580  1
  Zn  Zn144  1  0.60300265  0.78819101  0.08619256  1
  Zn  Zn145  1  0.56554600  0.81714852  0.55674888  1
  O  O146  1  0.12025354  0.11558136  0.11886922  1
  O  O147  1  0.12117095  0.11769616  0.61103085  1
  O  O148  1  0.13017910  0.62900715  0.11433487  1
  O  O149  1  0.13187245  0.61744468  0.62312557  1
  O  O150  1  0.62130607  0.11662393  0.11512373  1
  O  O151  1  0.64008042  0.09980031  0.64589940  1
  O  O152  1  0.59739870  0.65568253  0.11070734  1
  O  O153  1  0.62740016  0.61274260  0.63170796  1
  O  O154  1  0.38031615  0.37130892  0.39191109  1
  O  O155  1  0.35416504  0.39360064  0.89563277  1
  O  O156  1  0.37662608  0.88624332  0.38193737  1
  O  O157  1  0.37204830  0.87917977  0.88578360  1
  O  O158  1  0.87269834  0.37813636  0.39107598  1
  O  O159  1  0.88961807  0.36603706  0.88594823  1
  O  O160  1  0.87238199  0.87459770  0.38265760  1
  O  O161  1  0.89516124  0.84929196  0.88847227  1
  O  O162  1  0.25513488  0.00804863  0.36593543  1
  O  O163  1  0.26349462  -0.00902158  0.86049029  1
  O  O164  1  0.25033299  0.49411973  0.36538524  1
  O  O165  1  0.20326129  0.45938073  0.83944157  1
  O  O166  1  0.77091200  -0.00331835  0.37482058  1
  O  O167  1  0.74329388  0.01366608  0.87209697  1
  O  O168  1  0.76532828  0.49632348  0.38490070  1
  O  O169  1  0.71890583  0.51837376  0.87133218  1
  O  O170  1  0.24453183  0.48953227  0.14371788  1
  O  O171  1  0.23706353  0.48869858  0.61536246  1
  O  O172  1  0.24165899  0.99521705  0.13461361  1
  O  O173  1  0.23581143  0.99293248  0.62840990  1
  O  O174  1  0.75014318  0.47886867  0.11196394  1
  O  O175  1  0.74018827  0.49454885  0.61920911  1
  O  O176  1  0.73614694  0.99806303  0.11991123  1
  O  O177  1  0.75475873  0.98292969  0.62341895  1
  O  O178  1  0.00689797  0.35848496  0.25055887  1
  O  O179  1  0.01565771  0.37550330  0.76484089  1
  O  O180  1  0.02038220  0.86758690  0.24901123  1
  O  O181  1  0.01211439  0.87021699  0.74897700  1
  O  O182  1  0.51221524  0.37280364  0.25742339  1
  O  O183  1  0.51513499  0.36862844  0.74135197  1
  O  O184  1  0.49510074  0.87035051  0.26682660  1
  O  O185  1  0.50840806  0.87662672  0.75238335  1
  O  O186  1  0.48327234  0.14175864  0.26070139  1
  O  O187  1  0.48799176  0.12024350  0.74480699  1
  O  O188  1  0.50696768  0.64347888  0.23186120  1
  O  O189  1  0.42263232  0.57375841  0.78937630  1
  O  O190  1  1.00278603  0.13224502  0.24204375  1
  O  O191  1  1.01228869  0.13860027  0.74707364  1
  O  O192  1  0.99016006  0.62531010  0.24912345  1
  O  O193  1  0.92916941  0.57831737  0.77954698  1
  O  O194  1  0.36352943  0.26170629  0.01147113  1
  O  O195  1  0.36525873  0.25318450  0.50821497  1
  O  O196  1  0.38180819  0.75223184  -0.01103325  1
  O  O197  1  0.36435924  0.76489884  0.50539924  1
  O  O198  1  0.88831259  0.25973233  0.00583021  1
  O  O199  1  0.89220119  0.26715976  0.51924626  1
  O  O200  1  0.85764079  0.69934378  -0.01406934  1
  O  O201  1  0.86199102  0.75770088  0.50112905  1
  O  O202  1  0.12953585  0.23742970  0.50590835  1
  O  O203  1  0.12981530  0.24075513  0.99408089  1
  O  O204  1  0.13946839  0.75196655  0.49082207  1
  O  O205  1  0.12579993  0.73024573  0.99499868  1
  O  O206  1  0.64155919  0.24043788  0.53157304  1
  O  O207  1  0.60760123  0.23883084  1.00422944  1
  O  O208  1  0.63274029  0.75486397  0.48740137  1
  O  O209  1  0.61061741  0.76379638  0.97385613  1
  O  O210  1  0.48280048  0.26587724  0.14585799  1
  O  O211  1  0.48275959  0.25088478  0.61889269  1
  O  O212  1  0.49808211  0.77728946  0.14442605  1
  O  O213  1  0.48825057  0.75940327  0.61608308  1
  O  O214  1  0.99967203  0.23525236  0.13320041  1
  O  O215  1  0.99621135  0.25893256  0.64009851  1
  O  O216  1  0.97417734  0.77427671  0.12807310  1
  O  O217  1  0.98634129  0.74649982  0.62152365  1
  O  O218  1  -0.01255766  0.23841290  0.36512383  1
  O  O219  1  0.00722556  0.25156329  0.86270985  1
  O  O220  1  0.02156166  0.74651563  0.37850204  1
  O  O221  1  0.02621507  0.76322536  0.87877488  1
  O  O222  1  0.49123195  0.26605445  0.36054301  1
  O  O223  1  0.43701522  0.27060442  0.85063350  1
  O  O224  1  0.51353429  0.76416139  0.37594807  1
  O  O225  1  0.49907553  0.76601067  0.86799728  1
  O  O226  1  0.24166359  0.13226402  0.49203448  1
  O  O227  1  0.23868212  0.13724061  1.00664626  1
  O  O228  1  0.25981355  0.63893474  0.50225490  1
  O  O229  1  0.24658279  0.61259260  1.00581848  1
  O  O230  1  0.79208569  0.14198297  0.48633282  1
  O  O231  1  0.73028620  0.13515079  1.00186092  1
  O  O232  1  0.74892008  0.64053913  0.50155009  1
  O  O233  1  0.80005004  0.63237430  0.97719195  1
  O  O234  1  0.25156418  0.36808806  0.01356320  1
  O  O235  1  0.25505676  0.36773810  0.50684318  1
  O  O236  1  0.25879179  0.87442817  0.01206890  1
  O  O237  1  0.25666486  0.87640909  0.50731225  1
  O  O238  1  0.76863622  0.36882246  -0.00163889  1
  O  O239  1  0.76561123  0.37806093  0.51271310  1
  O  O240  1  0.75605734  0.88572274  0.00643472  1
  O  O241  1  0.75687785  0.86549420  0.51083231  1
  O  O242  1  0.12042452  0.48020301  0.25562459  1
  O  O243  1  0.11906536  0.49546320  0.72678938  1
  O  O244  1  0.13176797  0.98916893  0.24440480  1
  O  O245  1  0.12722477  0.98985798  0.74209942  1
  O  O246  1  0.61534855  0.50083892  0.25659192  1
  O  O247  1  0.62244080  0.48586978  0.73135581  1
  O  O248  1  0.62104740  1.01286757  0.23554935  1
  O  O249  1  0.62502330  0.98200411  0.73959389  1
  O  O250  1  0.36480479  0.00881204  0.25407092  1
  O  O251  1  0.36442684  0.01200922  0.74242383  1
  O  O252  1  0.36691564  0.48781764  0.25471553  1
  O  O253  1  0.37700140  0.51589996  0.75376095  1
  O  O254  1  0.87849460  0.00198653  0.24963786  1
  O  O255  1  0.86739116  -0.02519103  0.77942576  1
  O  O256  1  0.88215308  0.50416357  0.26618399  1
  O  O257  1  0.88861280  0.50985831  0.75609052  1
  O  O258  1  0.12215652  0.36991172  0.37262331  1
  O  O259  1  0.11190119  0.35512859  0.87870254  1
  O  O260  1  0.13414683  0.87798771  0.36285601  1
  O  O261  1  0.11909768  0.87855437  0.86150264  1
  O  O262  1  0.61789461  0.38104646  0.36522479  1
  O  O263  1  0.63997442  0.36562513  0.85043440  1
  O  O264  1  0.61476647  0.89162242  0.37334471  1
  O  O265  1  0.61446613  0.87701590  0.86221562  1
  O  O266  1  0.36330147  0.13678847  0.13779880  1
  O  O267  1  0.37336895  0.13090000  0.62617595  1
  O  O268  1  0.40174402  0.63795746  0.11690909  1
  O  O269  1  0.37517967  0.64611030  0.62487207  1
  O  O270  1  0.88692608  0.11704794  0.13074857  1
  O  O271  1  0.87556014  0.13998179  0.62581991  1
  O  O272  1  0.87952281  0.61511941  0.13823340  1
  O  O273  1  0.87082760  0.63716784  0.62231037  1
  O  O274  1  0.25113969  0.25582586  0.12026416  1
  O  O275  1  0.25257727  0.25572327  0.61186779  1
  O  O276  1  0.25202374  0.76315034  0.13152697  1
  O  O277  1  0.25269756  0.76279348  0.61096282  1
  O  O278  1  0.75269321  0.27197804  0.13163857  1
  O  O279  1  0.77577973  0.26772097  0.63616549  1
  O  O280  1  0.72075519  0.76420484  0.10611133  1
  O  O281  1  0.75027904  0.75787539  0.61174952  1
  O  O282  1  0.25212849  0.24063899  0.38560583  1
  O  O283  1  0.24023294  0.25651521  0.88697850  1
  O  O284  1  0.24422872  0.75355126  0.38824752  1
  O  O285  1  0.23090122  0.76964233  0.88416000  1
  O  O286  1  0.73170978  0.24206983  0.35023401  1
  O  O287  1  0.74808215  0.24039077  0.86333488  1
  O  O288  1  0.73401369  0.75161899  0.38441185  1
  O  O289  1  0.73471761  0.75026223  0.87656763  1
  O  O290  1  0.01312669  0.12873681  0.00871102  1
  O  O291  1  0.00582393  0.13163890  0.49308577  1
  O  O292  1  0.00248451  0.60655863  -0.00580760  1
  O  O293  1  -0.00208553  0.61593475  0.49777889  1
  O  O294  1  0.50911714  0.15433386  0.01261436  1
  O  O295  1  0.53025013  0.12977131  0.46344127  1
  O  O296  1  0.49944489  0.59654546  0.00270641  1
  O  O297  1  0.49821742  0.61221179  0.50265207  1
  O  O298  1  0.49301472  0.37431603  0.49490304  1
  O  O299  1  0.47849117  0.38164487  1.01120655  1
  O  O300  1  0.48671174  0.87645764  0.48822731  1
  O  O301  1  0.47877585  0.87805227  0.98928553  1
  O  O302  1  0.99232157  0.38610603  0.50549049  1
  O  O303  1  0.99781508  0.37515396  0.99264568  1
  O  O304  1  0.98481990  0.86498151  0.50221024  1
  O  O305  1  1.01778144  0.87930608  0.99435697  1
  O  O306  1  0.50008923  0.48723951  0.39460969  1
  O  O307  1  0.51321357  0.48949013  0.88732324  1
  O  O308  1  0.48343466  0.99782534  0.36633332  1
  O  O309  1  0.47736190  0.98706007  0.86177504  1
  O  O310  1  0.99223718  0.49701887  0.39079271  1
  O  O311  1  1.00992838  0.48092979  0.89010979  1
  O  O312  1  0.97915343  0.99485759  0.37357711  1
  O  O313  1  0.99689767  0.97912587  0.87254208  1
  O  O314  1  0.01464719  0.00562619  0.13167355  1
  O  O315  1  0.00541272  -0.00591122  0.63311330  1
  O  O316  1  0.00741089  0.48815587  0.11181525  1
  O  O317  1  0.01385201  0.50262879  0.61156348  1
  O  O318  1  0.49982089  0.00841452  0.12699655  1
  O  O319  1  0.51113990  -0.00084351  0.62007914  1
  O  O320  1  0.50535739  0.50672115  0.12592167  1
  O  O321  1  0.51223671  0.49521482  0.61602229  1
  O  O322  1  0.23281401  0.37577044  0.25146750  1
  O  O323  1  0.25085968  0.35992415  0.73805718  1
  O  O324  1  0.24859942  0.88265463  0.24063760  1
  O  O325  1  0.24161877  0.88442553  0.73695059  1
  O  O326  1  0.74060915  0.38752980  0.24777503  1
  O  O327  1  0.75749823  0.39097961  0.73559464  1
  O  O328  1  0.75929071  0.87352125  0.23488303  1
  O  O329  1  0.73972204  0.86749393  0.73335676  1
  O  O330  1  0.24930254  0.11933144  0.25643181  1
  O  O331  1  0.24402869  0.11216109  0.74272835  1
  O  O332  1  0.25289829  0.60549519  0.24780492  1
  O  O333  1  0.26168884  0.64886067  0.76181491  1
  O  O334  1  0.76441173  0.12448775  0.23555935  1
  O  O335  1  0.73001644  0.18187096  0.82252146  1
  O  O336  1  0.76427365  0.62472748  0.24374599  1
  O  O337  1  0.75356046  0.62141174  0.75319595  1
  O  O338  1  0.36128837  0.12131540  0.36745662  1
  O  O339  1  0.37539510  0.11266887  0.85694800  1
  O  O340  1  0.40178664  0.62307409  0.36815158  1
  O  O341  1  0.38690179  0.60568833  0.85217423  1
  O  O342  1  0.87824958  0.10929874  0.35101910  1
  O  O343  1  0.87442834  0.12484411  0.85629027  1
  O  O344  1  0.87319476  0.61038543  0.37681403  1
  O  O345  1  0.89599512  0.61008290  0.84501912  1
  O  O346  1  0.13238709  0.37051799  0.12964769  1
  O  O347  1  0.13518104  0.37601248  0.63728389  1
  O  O348  1  0.13863475  0.87745751  0.13229514  1
  O  O349  1  0.12786201  0.87867459  0.63100508  1
  O  O350  1  0.63154817  0.37382948  0.14644252  1
  O  O351  1  0.64408688  0.37951769  0.62793415  1
  O  O352  1  0.61658728  0.89774987  0.13207907  1
  O  O353  1  0.63254148  0.88059570  0.62972314  1
  O  O354  1  0.11337784  0.25722238  0.25511131  1
  O  O355  1  0.12052746  0.25897631  0.75680074  1
  O  O356  1  0.13469142  0.75880481  0.26500565  1
  O  O357  1  0.13003874  0.76284976  0.75879303  1
  O  O358  1  0.60778991  0.24016608  0.24566222  1
  O  O359  1  0.63525296  0.26145167  0.72947871  1
  O  O360  1  0.61809597  0.75644338  0.26662638  1
  O  O361  1  0.62475723  0.76679908  0.75609549  1
  O  O362  1  0.36904338  0.24531943  0.24592672  1
  O  O363  1  0.35974279  0.23012735  0.72961156  1
  O  O364  1  0.38965383  0.75188487  0.26028910  1
  O  O365  1  0.37670960  0.76836998  0.73208714  1
  O  O366  1  0.88591935  0.23614205  0.24609831  1
  O  O367  1  0.89430981  0.25645647  0.74254882  1
  O  O368  1  0.88020721  0.72882395  0.26659582  1
  O  O369  1  0.87006563  0.75519267  0.73298841  1
  O  O370  1  0.38951404  0.48797419  0.51868474  1
  O  O371  1  0.37119447  0.48829226  1.01687620  1
  O  O372  1  0.36452377  0.99710641  0.48900426  1
  O  O373  1  0.36733746  1.00944944  0.98385583  1
  O  O374  1  0.88623026  0.49416364  0.49469189  1
  O  O375  1  0.89204890  0.48140473  1.00211726  1
  O  O376  1  0.87437414  0.98145139  0.49182662  1
  O  O377  1  0.87335094  1.00985468  0.96964937  1
  O  O378  1  0.13904367  0.00797676  0.00837698  1
  O  O379  1  0.12108279  0.01278606  0.50717904  1
  O  O380  1  0.11963048  0.51083855  0.00549076  1
  O  O381  1  0.11512859  0.49933239  0.50712259  1
  O  O382  1  0.61453744  0.01526259  0.01023991  1
  O  O383  1  0.63476527  0.00023486  0.51722600  1
  O  O384  1  0.61281486  0.46825204  0.00664258  1
  O  O385  1  0.61397166  0.49545549  0.51196244  1
  O  O386  1  0.35736322  0.36597400  0.12923732  1
  O  O387  1  0.36711300  0.36303331  0.62124127  1
  O  O388  1  0.36513907  0.87894340  0.11115068  1
  O  O389  1  0.36562607  0.87722435  0.61509495  1
  O  O390  1  0.86828474  0.37266368  0.11804525  1
  O  O391  1  0.87127499  0.38601391  0.61743953  1
  O  O392  1  0.91571105  0.83234743  0.12174172  1
  O  O393  1  0.86638663  0.86665377  0.61610232  1
  O  O394  1  0.13086994  0.11470418  0.38647856  1
  O  O395  1  0.11787765  0.13038054  0.88280020  1
  O  O396  1  0.13040106  0.63150417  0.37180764  1
  O  O397  1  0.13714013  0.63199393  0.88535684  1
  O  O398  1  0.58972266  0.13219844  0.40942269  1
  O  O399  1  0.60780162  0.11950041  0.89124527  1
  O  O400  1  0.60867112  0.63354566  0.37133374  1
  O  O401  1  0.60144598  0.64849388  0.86304790  1
