# generated using pymatgen
data_V73Zn73O256
_symmetry_space_group_name_H-M   'P 1'
_cell_length_a   16.88096315
_cell_length_b   16.85933859
_cell_length_c   16.88770050
_cell_angle_alpha   90.25431167
_cell_angle_beta   90.28077173
_cell_angle_gamma   90.00026173
_symmetry_Int_Tables_number   1
_chemical_formula_structural   V73Zn73O256
_chemical_formula_sum   'V73 Zn73 O256'
_cell_volume   4806.16614851
_cell_formula_units_Z   1
loop_
 _symmetry_equiv_pos_site_id
 _symmetry_equiv_pos_as_xyz
  1  'x, y, z'
loop_
 _atom_site_type_symbol
 _atom_site_label
 _atom_site_symmetry_multiplicity
 _atom_site_fract_x
 _atom_site_fract_y
 _atom_site_fract_z
 _atom_site_occupancy
  V  V0  1  0.75073145  0.24450672  -0.01063467  1
  V  V1  1  0.75438148  0.01864418  0.75666171  1
  V  V2  1  -0.01702833  -0.00538130  0.49910166  1
  V  V3  1  0.37791893  0.63117673  0.75210014  1
  V  V4  1  0.37702517  0.62183578  0.25582753  1
  V  V5  1  0.37184560  0.00560766  0.37231357  1
  V  V6  1  0.62791640  -0.00990968  0.62133690  1
  V  V7  1  -0.01342802  0.51320456  0.00492818  1
  V  V8  1  0.87701445  0.76603673  0.62420169  1
  V  V9  1  -0.00542165  0.74735009  0.75541934  1
  V  V10  1  0.25724568  0.75480130  0.52206318  1
  V  V11  1  -0.00466650  0.11321107  0.12150969  1
  V  V12  1  0.12897733  0.87001002  0.75117680  1
  V  V13  1  0.48479453  0.12324273  0.12550849  1
  V  V14  1  0.62284183  0.37031317  0.24657383  1
  V  V15  1  0.61290295  0.37406886  0.75578394  1
  V  V16  1  0.62485675  0.11531365  -0.00005464  1
  V  V17  1  0.76920397  0.62219865  0.87083889  1
  V  V18  1  0.37315222  0.00804650  0.87683166  1
  V  V19  1  0.75478670  0.49772317  0.24630636  1
  V  V20  1  0.12724751  0.62482917  0.50770395  1
  V  V21  1  0.62104701  0.49452346  0.11413051  1
  V  V22  1  -0.01550131  0.24623022  0.75691554  1
  V  V23  1  0.00710559  0.72802530  0.24116971  1
  V  V24  1  0.38086120  0.87163985  -0.00497319  1
  V  V25  1  0.50158087  0.61970838  0.11216691  1
  V  V26  1  0.87159126  0.01045034  0.88632574  1
  V  V27  1  0.23937174  0.74889524  -0.00540469  1
  V  V28  1  0.12280970  0.48059984  0.63199600  1
  V  V29  1  0.13003643  0.50881924  0.10964764  1
  V  V30  1  0.25026179  0.48504280  0.75357417  1
  V  V31  1  0.62554592  0.14003951  0.50475721  1
  V  V32  1  0.12859101  0.01024969  0.62383562  1
  V  V33  1  0.13818595  0.87256268  0.26783482  1
  V  V34  1  0.12575545  0.74834691  0.38324860  1
  V  V35  1  0.61976137  0.49803440  0.61754714  1
  V  V36  1  -0.00848400  0.87986989  0.88217712  1
  V  V37  1  0.75603810  0.10742148  0.36680253  1
  V  V38  1  0.37651108  0.87540182  0.50960385  1
  V  V39  1  0.37301483  0.75385427  0.12106148  1
  V  V40  1  0.63391174  0.25040790  0.37497495  1
  V  V41  1  0.13163971  0.25214313  0.87373879  1
  V  V42  1  0.25261751  0.49885189  0.25513633  1
  V  V43  1  0.76000302  0.75811041  0.50218005  1
  V  V44  1  0.76669899  0.50032169  0.74818229  1
  V  V45  1  -0.02043643  0.12613782  0.63154786  1
  V  V46  1  0.49871978  0.87507313  0.37559550  1
  V  V47  1  0.48364515  0.24410962  0.25041520  1
  V  V48  1  0.49667352  0.87037966  0.86064085  1
  V  V49  1  -0.00913556  0.49326810  0.49904188  1
  V  V50  1  -0.00956019  0.62512794  0.62765577  1
  V  V51  1  0.87692009  0.48047604  0.37400494  1
  V  V52  1  0.87440361  0.23982230  0.12685623  1
  V  V53  1  0.75563819  0.36998863  0.11836074  1
  V  V54  1  0.23545784  0.62200936  0.87551077  1
  V  V55  1  0.75949073  0.62013959  0.37388335  1
  V  V56  1  0.62718191  -0.00572989  0.14676262  1
  V  V57  1  0.64619249  0.86398467  0.74978529  1
  V  V58  1  0.62900158  0.75276491  0.36968501  1
  V  V59  1  0.76776463  0.36540360  0.61264751  1
  V  V60  1  0.26272337  0.36450467  0.10837444  1
  V  V61  1  0.50587809  0.75326426  0.24559854  1
  V  V62  1  0.62259872  0.62100841  0.50010123  1
  V  V63  1  0.13481594  0.13626766  0.00063630  1
  V  V64  1  0.00510728  0.25264661  0.25595892  1
  V  V65  1  0.36659852  0.40252150  0.49640681  1
  V  V66  1  0.49668815  0.38883988  0.37996019  1
  V  V67  1  0.25318602  0.01483732  0.24834971  1
  V  V68  1  0.13158369  -0.01222348  0.11285772  1
  V  V69  1  0.24962500  0.22753728  0.47736234  1
  V  V70  1  -0.01563539  0.37643046  0.88817547  1
  V  V71  1  0.62203894  0.74162170  0.87964346  1
  V  V72  1  0.24563072  0.01620332  0.76020473  1
  Zn  Zn73  1  0.48631925  0.62954500  0.61579021  1
  Zn  Zn74  1  0.26317692  0.62244242  0.39059087  1
  Zn  Zn75  1  0.12330652  0.37346041  0.25211406  1
  Zn  Zn76  1  0.63079766  0.61985032  -0.00227297  1
  Zn  Zn77  1  0.81909015  0.81151852  0.08603080  1
  Zn  Zn78  1  0.37598468  0.25992934  0.62265947  1
  Zn  Zn79  1  0.49579697  0.13164307  0.61541261  1
  Zn  Zn80  1  0.62623639  0.25062812  0.86923399  1
  Zn  Zn81  1  0.44296886  0.79919327  0.68336510  1
  Zn  Zn82  1  0.18396708  0.18870220  0.18705663  1
  Zn  Zn83  1  0.18845029  0.19917587  0.68553770  1
  Zn  Zn84  1  0.18750560  0.68790704  0.18562990  1
  Zn  Zn85  1  0.18302896  0.68190284  0.69459173  1
  Zn  Zn86  1  0.68714942  0.17887887  0.18477286  1
  Zn  Zn87  1  0.69215020  0.19399396  0.68777556  1
  Zn  Zn88  1  0.69317579  0.68319947  0.18269246  1
  Zn  Zn89  1  0.69399355  0.68666821  0.68689010  1
  Zn  Zn90  1  0.30992851  0.31684887  0.31649144  1
  Zn  Zn91  1  0.30485025  0.28434720  0.79716084  1
  Zn  Zn92  1  0.30905109  0.80849230  0.31945333  1
  Zn  Zn93  1  0.30707040  0.80778921  0.81584405  1
  Zn  Zn94  1  0.81704208  0.30273152  0.30814112  1
  Zn  Zn95  1  0.81001118  0.31840393  0.80700182  1
  Zn  Zn96  1  0.83036073  0.79780329  0.31945907  1
  Zn  Zn97  1  0.81377487  0.80194782  0.92244847  1
  Zn  Zn98  1  0.17917104  0.43303678  0.43414548  1
  Zn  Zn99  1  0.18741715  0.42826546  0.93223046  1
  Zn  Zn100  1  0.17550564  1.04980896  0.43065504  1
  Zn  Zn101  1  0.18579598  0.92950958  0.93395080  1
  Zn  Zn102  1  0.68935882  0.43109611  0.43727746  1
  Zn  Zn103  1  0.69688297  0.43738534  0.93335531  1
  Zn  Zn104  1  0.68871944  0.93755725  0.43689553  1
  Zn  Zn105  1  0.69514797  0.93346176  0.94345334  1
  Zn  Zn106  1  0.30820742  0.05876243  0.05749276  1
  Zn  Zn107  1  0.30882732  0.05947003  0.56388674  1
  Zn  Zn108  1  0.29765910  0.57741373  0.07461288  1
  Zn  Zn109  1  0.30466324  0.55960442  0.57562228  1
  Zn  Zn110  1  0.83221460  0.00625737  0.09395885  1
  Zn  Zn111  1  0.80370774  0.06469229  0.56103835  1
  Zn  Zn112  1  0.82976365  0.63781008  0.05102525  1
  Zn  Zn113  1  0.80841112  0.55910412  0.56150926  1
  Zn  Zn114  1  0.43623828  0.43406899  0.18495034  1
  Zn  Zn115  1  0.43299468  0.44366442  0.68287782  1
  Zn  Zn116  1  0.43986816  0.93814132  0.18588663  1
  Zn  Zn117  1  0.42237275  0.98650508  0.67290937  1
  Zn  Zn118  1  0.93971860  0.43781218  0.18002463  1
  Zn  Zn119  1  0.94548680  0.42803802  0.69325530  1
  Zn  Zn120  1  0.96157754  0.91141747  0.18597188  1
  Zn  Zn121  1  0.93732429  0.94060145  0.69483887  1
  Zn  Zn122  1  0.04197423  0.07744807  0.31770444  1
  Zn  Zn123  1  0.05931678  0.06450144  0.81588829  1
  Zn  Zn124  1  0.07486502  0.54293181  0.32146663  1
  Zn  Zn125  1  0.05750363  0.55615018  0.81599274  1
  Zn  Zn126  1  0.56090363  0.06433843  0.31651808  1
  Zn  Zn127  1  0.56751225  0.05085414  0.81663126  1
  Zn  Zn128  1  0.56826827  0.56632529  0.30623447  1
  Zn  Zn129  1  0.57624854  0.57037181  0.79013393  1
  Zn  Zn130  1  0.44262488  0.19161999  0.44195471  1
  Zn  Zn131  1  0.47224806  0.17278420  0.91731269  1
  Zn  Zn132  1  0.44081461  0.69299146  0.44028550  1
  Zn  Zn133  1  0.43366225  0.68507056  0.92803808  1
  Zn  Zn134  1  0.93527883  0.18184265  0.44477282  1
  Zn  Zn135  1  0.94117783  0.18265096  0.94437913  1
  Zn  Zn136  1  0.94288131  0.68238300  0.43709132  1
  Zn  Zn137  1  0.95382787  0.68525842  0.94009870  1
  Zn  Zn138  1  0.06543308  0.32141950  0.06798493  1
  Zn  Zn139  1  0.03432790  0.29857893  0.55344503  1
  Zn  Zn140  1  0.05486290  0.80338409  0.06331668  1
  Zn  Zn141  1  0.06686536  0.82132954  0.56507430  1
  Zn  Zn142  1  0.55646367  0.29879616  0.06056798  1
  Zn  Zn143  1  0.55571841  0.31707538  0.56708026  1
  Zn  Zn144  1  0.56241358  0.81514681  0.05550457  1
  Zn  Zn145  1  0.56836477  0.80949630  0.55750513  1
  O  O146  1  0.12064595  0.11638387  0.11550225  1
  O  O147  1  0.12101739  0.11261258  0.63972404  1
  O  O148  1  0.14235770  0.61003505  0.11443698  1
  O  O149  1  0.11314759  0.62192200  0.61974744  1
  O  O150  1  0.61663153  0.11556537  0.11622150  1
  O  O151  1  0.63035148  0.12856119  0.61065603  1
  O  O152  1  0.61844576  0.61317219  0.12116018  1
  O  O153  1  0.63539632  0.61150272  0.61642216  1
  O  O154  1  0.38925636  0.37551960  0.38279560  1
  O  O155  1  0.40191868  0.32357566  0.85613748  1
  O  O156  1  0.38254824  0.87306206  0.38332296  1
  O  O157  1  0.38163744  0.87175375  0.87717165  1
  O  O158  1  0.87393758  0.38158608  0.37458612  1
  O  O159  1  0.88429373  0.37178714  0.88105700  1
  O  O160  1  0.88255228  0.90314397  0.36041763  1
  O  O161  1  0.88662973  0.87781130  0.87199498  1
  O  O162  1  0.26121809  -0.00148213  0.36086582  1
  O  O163  1  0.25826979  -0.00753198  0.86883900  1
  O  O164  1  0.25258236  0.51035988  0.35746512  1
  O  O165  1  0.23971264  0.50857036  0.86383218  1
  O  O166  1  0.74526251  0.00620498  0.37113598  1
  O  O167  1  0.76016053  -0.00559573  0.86525364  1
  O  O168  1  0.76051174  0.49879476  0.36989281  1
  O  O169  1  0.74950343  0.50632172  0.85761932  1
  O  O170  1  0.24886036  0.49052827  0.12623544  1
  O  O171  1  0.23163281  0.49436340  0.63783424  1
  O  O172  1  0.24066565  0.99985739  0.13523699  1
  O  O173  1  0.23771934  1.00383333  0.64457851  1
  O  O174  1  0.73969865  0.48539108  0.13430290  1
  O  O175  1  0.74529216  0.49382676  0.63314724  1
  O  O176  1  0.72557116  1.00815169  0.12751489  1
  O  O177  1  0.73545407  1.00911621  0.64282226  1
  O  O178  1  -0.00518023  0.35706688  0.24034973  1
  O  O179  1  -0.00227030  0.35951623  0.76844990  1
  O  O180  1  0.03249618  0.85358580  0.24740085  1
  O  O181  1  0.00278344  0.86356923  0.75618463  1
  O  O182  1  0.50426904  0.36483750  0.25637432  1
  O  O183  1  0.51375863  0.38669156  0.74324019  1
  O  O184  1  0.49290446  0.85878426  0.25700651  1
  O  O185  1  0.50199637  0.87279777  0.75648062  1
  O  O186  1  0.50156082  0.13795638  0.24509369  1
  O  O187  1  0.50323068  0.13685852  0.75388730  1
  O  O188  1  0.49325775  0.63210071  0.24069427  1
  O  O189  1  0.48016592  0.61336741  0.75381395  1
  O  O190  1  1.00506370  0.13680825  0.22881471  1
  O  O191  1  0.99599530  0.13292221  0.74771848  1
  O  O192  1  1.02021680  0.62966276  0.26214981  1
  O  O193  1  1.00844164  0.63901044  0.74275734  1
  O  O194  1  0.40520120  0.32069857  -0.06533573  1
  O  O195  1  0.35470885  0.24476688  0.50003197  1
  O  O196  1  0.37257280  0.75353887  0.00385944  1
  O  O197  1  0.36678414  0.75540979  0.50381153  1
  O  O198  1  0.85790977  0.23614776  0.01084322  1
  O  O199  1  0.93140667  0.26827425  0.51379979  1
  O  O200  1  0.87684090  0.73814724  0.00168717  1
  O  O201  1  0.86807412  0.74610167  0.50472654  1
  O  O202  1  0.14193472  0.25746060  0.51032226  1
  O  O203  1  0.11899858  0.24077525  0.99862292  1
  O  O204  1  0.13753861  0.74739043  0.50417281  1
  O  O205  1  0.14164684  0.75015270  1.00647723  1
  O  O206  1  0.62148790  0.24520689  0.49223102  1
  O  O207  1  0.63410209  0.24469562  0.99634312  1
  O  O208  1  0.64154506  0.74137732  0.49110957  1
  O  O209  1  0.62347944  0.74592462  0.98346664  1
  O  O210  1  0.49901306  0.24139455  0.14193627  1
  O  O211  1  0.48793769  0.24495193  0.61722545  1
  O  O212  1  0.49777935  0.74121383  0.12906194  1
  O  O213  1  0.51460737  0.73880490  0.62420396  1
  O  O214  1  0.98949035  0.23939351  0.12356454  1
  O  O215  1  1.00674951  0.23625148  0.64817407  1
  O  O216  1  1.01257151  0.73364151  0.13902720  1
  O  O217  1  0.99069448  0.74541095  0.62298666  1
  O  O218  1  -0.01004224  0.23455021  0.35273708  1
  O  O219  1  -0.00075031  0.25560202  0.87464598  1
  O  O220  1  0.02154264  0.74478227  0.38073074  1
  O  O221  1  -0.00476502  0.75668069  0.85908553  1
  O  O222  1  0.50971229  0.25619813  0.36445801  1
  O  O223  1  0.47355817  0.19718259  0.79290833  1
  O  O224  1  0.51035640  0.75254185  0.36525501  1
  O  O225  1  0.51248064  0.75372528  0.87039903  1
  O  O226  1  0.24905345  0.12346792  0.49035615  1
  O  O227  1  0.23484663  0.12812097  1.00458907  1
  O  O228  1  0.24422008  0.63361529  0.50885246  1
  O  O229  1  0.25850343  0.63099911  0.98348517  1
  O  O230  1  0.73074022  0.11748396  0.48746092  1
  O  O231  1  0.73017600  0.13724859  0.99679494  1
  O  O232  1  0.74332583  0.62898031  0.49062141  1
  O  O233  1  0.74509504  0.60930630  0.97298273  1
  O  O234  1  0.25258799  0.37290262  0.00793417  1
  O  O235  1  0.26598759  0.38094710  0.48366782  1
  O  O236  1  0.26128373  0.85542232  -0.01200728  1
  O  O237  1  0.26756379  0.86050056  0.50904797  1
  O  O238  1  0.74226381  0.36015270  0.00952486  1
  O  O239  1  0.75176569  0.37738779  0.51288666  1
  O  O240  1  0.75076732  0.85728514  0.00019592  1
  O  O241  1  0.75064459  0.85669948  0.49409535  1
  O  O242  1  0.14961305  0.51522603  0.23227450  1
  O  O243  1  0.12671079  0.50123702  0.73828160  1
  O  O244  1  0.14172378  0.98309560  0.24634111  1
  O  O245  1  0.13298526  0.99349142  0.75342410  1
  O  O246  1  0.63231333  0.48588214  0.24364637  1
  O  O247  1  0.63475736  0.49174861  0.73538481  1
  O  O248  1  0.62067005  0.99546580  0.24739786  1
  O  O249  1  0.64085321  0.98418398  0.75690692  1
  O  O250  1  0.36070027  -0.01146481  0.25716267  1
  O  O251  1  0.35584039  -0.00761309  0.76594578  1
  O  O252  1  0.37060748  0.51513755  0.24240432  1
  O  O253  1  0.35488710  0.50465284  0.74479711  1
  O  O254  1  0.89268548  -0.04701019  0.30561799  1
  O  O255  1  0.85750073  -0.00043365  0.75358286  1
  O  O256  1  0.86665665  0.49069364  0.26020578  1
  O  O257  1  0.86584910  0.49850317  0.74533536  1
  O  O258  1  0.10745169  0.42917375  0.35075401  1
  O  O259  1  0.10885767  0.35686345  0.88566125  1
  O  O260  1  0.13826504  0.86500342  0.36879968  1
  O  O261  1  0.10836523  0.88178622  0.85987394  1
  O  O262  1  0.61649235  0.37021998  0.36717494  1
  O  O263  1  0.62492479  0.37922841  0.86026156  1
  O  O264  1  0.61636719  0.86014471  0.38292130  1
  O  O265  1  0.62077958  0.86316104  0.86391479  1
  O  O266  1  0.38561293  0.11889971  0.11806274  1
  O  O267  1  0.39064022  0.08989752  0.63084922  1
  O  O268  1  0.38520309  0.63247744  0.12994737  1
  O  O269  1  0.37286618  0.61919925  0.64274392  1
  O  O270  1  0.88934914  0.11643476  0.11949535  1
  O  O271  1  0.88021749  0.12405272  0.63041542  1
  O  O272  1  0.78490987  0.70928894  0.12783329  1
  O  O273  1  0.88747067  0.62669555  0.61809277  1
  O  O274  1  0.24650397  0.26712830  0.13328646  1
  O  O275  1  0.20059810  0.26099902  0.57477433  1
  O  O276  1  0.26461977  0.73654835  0.10838940  1
  O  O277  1  0.24801936  0.74692800  0.62052636  1
  O  O278  1  0.75339054  0.25199088  0.11920337  1
  O  O279  1  0.75344793  0.26642118  0.62876030  1
  O  O280  1  0.72460998  0.84615492  0.20143547  1
  O  O281  1  0.76517385  0.74307104  0.61221456  1
  O  O282  1  0.24178642  0.25224795  0.37978183  1
  O  O283  1  0.23146861  0.25274526  0.87868226  1
  O  O284  1  0.24340170  0.74113856  0.39062404  1
  O  O285  1  0.24796907  0.73621170  0.88453783  1
  O  O286  1  0.73602616  0.25359602  0.37306273  1
  O  O287  1  0.75025465  0.25683492  0.88739258  1
  O  O288  1  0.74992120  0.74147025  0.38070233  1
  O  O289  1  0.73681700  0.72995574  0.86656725  1
  O  O290  1  0.01149513  0.12176836  0.01604677  1
  O  O291  1  -0.00093768  0.11485487  0.52554825  1
  O  O292  1  0.02034845  0.60654597  -0.01480623  1
  O  O293  1  0.00819424  0.61639240  0.50939478  1
  O  O294  1  0.50997121  0.13302467  0.02074293  1
  O  O295  1  0.52210315  0.11992910  0.49223357  1
  O  O296  1  0.49914170  0.62684726  0.00958463  1
  O  O297  1  0.51854261  0.62874192  0.49517161  1
  O  O298  1  0.49593016  0.37848539  0.48404356  1
  O  O299  1  0.48133662  0.28524960  0.95824543  1
  O  O300  1  0.48909686  0.86213557  0.48652256  1
  O  O301  1  0.48830619  0.86819519  0.98110081  1
  O  O302  1  1.01107611  0.39765717  0.49402197  1
  O  O303  1  0.99511548  0.38632516  0.99600950  1
  O  O304  1  1.00310393  0.89474192  0.50879930  1
  O  O305  1  1.00711093  0.86541105  0.98047974  1
  O  O306  1  0.50711981  0.48714937  0.36422925  1
  O  O307  1  0.45902494  0.47792869  0.91745721  1
  O  O308  1  0.48663944  0.98368116  0.36222253  1
  O  O309  1  0.48164516  0.98733615  0.86712368  1
  O  O310  1  0.97998316  0.51224432  0.38719410  1
  O  O311  1  0.99985950  0.48667558  0.88742104  1
  O  O312  1  1.00060146  1.01446233  0.40023183  1
  O  O313  1  0.98496977  0.98795485  0.86599533  1
  O  O314  1  0.01951281  0.00736945  0.13702491  1
  O  O315  1  0.00604086  0.01200468  0.63160710  1
  O  O316  1  0.01679106  0.49716994  0.11494567  1
  O  O317  1  0.00424222  0.50508001  0.61889285  1
  O  O318  1  0.50590561  0.01844484  0.13732402  1
  O  O319  1  0.53234206  0.01795129  0.65038162  1
  O  O320  1  0.51042381  0.50655192  0.13233426  1
  O  O321  1  0.51752333  0.50858791  0.62506585  1
  O  O322  1  0.25673031  0.39277165  0.24699502  1
  O  O323  1  0.25084682  0.38767766  0.76443118  1
  O  O324  1  0.24014765  0.86256117  0.24368853  1
  O  O325  1  0.23106679  0.87025941  0.75628384  1
  O  O326  1  0.74110998  0.37633454  0.24191906  1
  O  O327  1  0.74336708  0.38759932  0.74124654  1
  O  O328  1  0.75846251  0.87972420  0.25959701  1
  O  O329  1  0.74283777  0.87239493  0.74865167  1
  O  O330  1  0.25312191  0.11336126  0.24450447  1
  O  O331  1  0.23967687  0.11256502  0.76715606  1
  O  O332  1  0.26936174  0.62250610  0.24373436  1
  O  O333  1  0.25399488  0.61955973  0.76031643  1
  O  O334  1  0.74468919  0.12902076  0.26738457  1
  O  O335  1  0.73849127  0.11752934  0.76098486  1
  O  O336  1  0.73949069  0.60455025  0.26151603  1
  O  O337  1  0.74559187  0.60988460  0.75625654  1
  O  O338  1  0.38719140  0.10295530  0.38090561  1
  O  O339  1  0.37954412  0.10718860  0.88843180  1
  O  O340  1  0.38099159  0.63291149  0.35899654  1
  O  O341  1  0.36263875  0.62374423  0.86018418  1
  O  O342  1  0.85342856  0.12860877  0.38721591  1
  O  O343  1  0.88181161  0.10982891  0.87718686  1
  O  O344  1  0.86227545  0.61880033  0.37921171  1
  O  O345  1  0.86728953  0.62955540  0.87069512  1
  O  O346  1  0.13875743  0.38831413  0.13233552  1
  O  O347  1  0.10628334  0.38423509  0.62380223  1
  O  O348  1  0.12255972  0.88679259  0.11825451  1
  O  O349  1  0.11403591  0.89385906  0.64504660  1
  O  O350  1  0.62410373  0.37491489  0.12997196  1
  O  O351  1  0.63093018  0.38709476  0.62729369  1
  O  O352  1  0.60499320  0.89826513  0.11698987  1
  O  O353  1  0.62271788  0.88233498  0.63761167  1
  O  O354  1  0.11052912  0.25461696  0.24581455  1
  O  O355  1  0.11434408  0.24017655  0.77104611  1
  O  O356  1  0.12949008  0.74883367  0.26376681  1
  O  O357  1  0.10951275  0.76223638  0.73825318  1
  O  O358  1  0.62067095  0.25947866  0.25443586  1
  O  O359  1  0.62839672  0.26856805  0.75095464  1
  O  O360  1  0.61869566  0.73799174  0.25819364  1
  O  O361  1  0.63076540  0.75755330  0.75490077  1
  O  O362  1  0.38559401  0.25039327  0.25943757  1
  O  O363  1  0.29678110  0.23845455  0.69630907  1
  O  O364  1  0.38303204  0.74105153  0.24013312  1
  O  O365  1  0.37028851  0.73851226  0.74836277  1
  O  O366  1  0.87994687  0.24390316  0.23320015  1
  O  O367  1  0.88462062  0.24672182  0.75705890  1
  O  O368  1  0.90822132  0.74879821  0.26082751  1
  O  O369  1  0.88951031  0.74843594  0.73041315  1
  O  O370  1  0.36941137  0.50262242  0.49696711  1
  O  O371  1  0.40881022  0.46842064  0.96920311  1
  O  O372  1  0.36394517  0.98125163  0.48346966  1
  O  O373  1  0.36183340  0.98246786  0.98679629  1
  O  O374  1  0.88226254  0.49852439  0.49156605  1
  O  O375  1  0.89048612  0.53388369  1.02708056  1
  O  O376  1  0.88245375  0.99903896  0.51128980  1
  O  O377  1  0.86688182  0.99876790  0.98456618  1
  O  O378  1  0.13411891  0.00443904  0.01000589  1
  O  O379  1  0.12572700  0.00052895  0.52187723  1
  O  O380  1  0.12653899  0.49339763  0.00829985  1
  O  O381  1  0.11945060  0.50744212  0.51468675  1
  O  O382  1  0.62528950  0.01481855  -0.01202560  1
  O  O383  1  0.62712713  -0.00589131  0.51898891  1
  O  O384  1  0.62778358  0.49289595  0.01113383  1
  O  O385  1  0.63374797  0.50558369  0.50935455  1
  O  O386  1  0.36494619  0.37679994  0.12098240  1
  O  O387  1  0.38309459  0.38100320  0.59880266  1
  O  O388  1  0.38678247  0.86233839  0.11217034  1
  O  O389  1  0.39557825  0.88639687  0.61193731  1
  O  O390  1  0.86150266  0.36238542  0.12662016  1
  O  O391  1  0.86725461  0.37981755  0.62561891  1
  O  O392  1  0.86826414  0.90380510  0.13177717  1
  O  O393  1  0.87833440  0.86418700  0.62448836  1
  O  O394  1  0.13542424  0.12016631  0.35671459  1
  O  O395  1  0.11283132  0.13338893  0.89396941  1
  O  O396  1  0.12958507  0.62648967  0.39774354  1
  O  O397  1  0.13606801  0.62605830  0.86842462  1
  O  O398  1  0.63087697  0.13296463  0.38163086  1
  O  O399  1  0.59164008  0.13837800  0.89197627  1
  O  O400  1  0.63525865  0.63128146  0.38035317  1
  O  O401  1  0.61866019  0.63306755  0.87334759  1
