# generated using pymatgen
data_V73Zn73O256
_symmetry_space_group_name_H-M   'P 1'
_cell_length_a   16.84281328
_cell_length_b   16.83597496
_cell_length_c   16.83861818
_cell_angle_alpha   89.96731385
_cell_angle_beta   89.83798211
_cell_angle_gamma   89.97642009
_symmetry_Int_Tables_number   1
_chemical_formula_structural   V73Zn73O256
_chemical_formula_sum   'V73 Zn73 O256'
_cell_volume   4774.82556903
_cell_formula_units_Z   1
loop_
 _symmetry_equiv_pos_site_id
 _symmetry_equiv_pos_as_xyz
  1  'x, y, z'
loop_
 _atom_site_type_symbol
 _atom_site_label
 _atom_site_symmetry_multiplicity
 _atom_site_fract_x
 _atom_site_fract_y
 _atom_site_fract_z
 _atom_site_occupancy
  V  V0  1  0.50942356  0.25731510  0.77536306  1
  V  V1  1  0.24472802  0.75523184  0.50365750  1
  V  V2  1  0.37451795  0.11932444  0.75108941  1
  V  V3  1  0.25160921  0.37092572  0.63355633  1
  V  V4  1  0.00745243  0.37959979  0.87569216  1
  V  V5  1  0.37520692  0.12597838  0.25337356  1
  V  V6  1  0.88175317  0.24473976  0.62343146  1
  V  V7  1  0.37108642  0.72875625  0.12513837  1
  V  V8  1  0.37706031  0.87881867  0.50953571  1
  V  V9  1  0.87376614  0.74953656  0.61124351  1
  V  V10  1  0.25445871  0.25754966  0.49998386  1
  V  V11  1  0.38621055  0.49728080  0.85685366  1
  V  V12  1  0.24406122  0.51366193  0.74754077  1
  V  V13  1  0.38608421  0.72859540  0.62212280  1
  V  V14  1  0.49791639  0.75070713  0.75595038  1
  V  V15  1  0.87851158  0.50876201  0.88117107  1
  V  V16  1  0.11044936  0.49843485  0.62136338  1
  V  V17  1  0.11287894  0.62290440  0.49796665  1
  V  V18  1  0.62183350  0.77327670  0.87311649  1
  V  V19  1  0.74361885  0.37509883  0.62922590  1
  V  V20  1  0.24459508  0.12834802  0.38179549  1
  V  V21  1  0.88437739  0.38630091  0.49781888  1
  V  V22  1  0.87088293  0.88049125  0.49061753  1
  V  V23  1  0.76493642  0.74475044  -0.00059759  1
  V  V24  1  0.37666376  0.25133875  0.12449678  1
  V  V25  1  0.88550606  0.89422750  -0.00240169  1
  V  V26  1  0.24426353  -0.00269481  0.24794084  1
  V  V27  1  0.11146367  0.37733986  0.25441806  1
  V  V28  1  0.25101706  0.11696220  0.87424420  1
  V  V29  1  0.37560030  0.00018528  0.37799185  1
  V  V30  1  0.51215249  0.11228575  0.11842922  1
  V  V31  1  0.73667924  0.11881390  0.36467736  1
  V  V32  1  0.85975181  0.63171978  0.24134659  1
  V  V33  1  0.00433554  0.74936810  0.25569088  1
  V  V34  1  0.25295135  0.86735400  0.11850690  1
  V  V35  1  0.25201065  0.37723296  0.12419582  1
  V  V36  1  0.86847181  0.10801339  0.78377724  1
  V  V37  1  0.88353873  0.50573583  0.37352326  1
  V  V38  1  0.12380742  0.87160677  0.27192699  1
  V  V39  1  0.12819309  0.64679109  -0.00399743  1
  V  V40  1  0.75257179  0.36886859  0.13560776  1
  V  V41  1  0.74420656  0.50654239  0.75248693  1
  V  V42  1  0.49704404  0.73712958  0.24879949  1
  V  V43  1  -0.00481521  0.02721088  0.50057277  1
  V  V44  1  0.87615127  0.35931453  0.00422918  1
  V  V45  1  0.62556868  0.75423238  0.38331892  1
  V  V46  1  0.61484045  0.51356452  0.61371422  1
  V  V47  1  0.38346220  0.49250305  0.38075380  1
  V  V48  1  0.18208628  -0.04304638  0.65836287  1
  V  V49  1  0.62536643  0.26903403  0.37460748  1
  V  V50  1  0.12494426  0.25081206  0.86292540  1
  V  V51  1  0.11748508  0.50375897  0.11304221  1
  V  V52  1  0.87637929  0.00022171  0.35947467  1
  V  V53  1  0.04499234  0.00550024  0.00080532  1
  V  V54  1  0.63367236  0.50338900  0.13733878  1
  V  V55  1  0.62119955  0.62199497  -0.01905657  1
  V  V56  1  0.25458854  0.50583634  0.25085232  1
  V  V57  1  0.50465550  0.13411498  0.62807774  1
  V  V58  1  0.63063997  0.00043113  0.64521169  1
  V  V59  1  0.51219914  0.00668096  0.49875948  1
  V  V60  1  0.24079962  0.24928678  0.00008745  1
  V  V61  1  0.13125924  0.75990079  0.84533216  1
  V  V62  1  0.74653529  0.87278355  0.63718216  1
  V  V63  1  0.50996012  0.26148472  0.25044848  1
  V  V64  1  0.11554702  0.25589558  0.37539713  1
  V  V65  1  0.25497375  0.63140252  0.37340734  1
  V  V66  1  0.49900129  0.49193881  0.01127951  1
  V  V67  1  0.41666526  -0.06153141  -0.06916195  1
  V  V68  1  0.74819425  0.24589934  0.49734574  1
  V  V69  1  0.73255138  -0.01003968  0.23849380  1
  V  V70  1  0.01747334  0.12535888  0.13149422  1
  V  V71  1  0.74085700  0.62442283  0.39562124  1
  V  V72  1  0.88580953  0.62866575  0.74355241  1
  Zn  Zn73  1  0.25977964  0.63850877  0.87553317  1
  Zn  Zn74  1  0.00033639  0.24704901  0.74048423  1
  Zn  Zn75  1  -0.00095785  0.76827531  0.73897630  1
  Zn  Zn76  1  0.38981820  0.36443449  -0.01550316  1
  Zn  Zn77  1  0.00395064  0.88782282  0.86367780  1
  Zn  Zn78  1  -0.00827102  0.63726470  0.11380977  1
  Zn  Zn79  1  0.51129765  0.88130822  0.36647514  1
  Zn  Zn80  1  0.88524353  0.21847676  0.17618976  1
  Zn  Zn81  1  0.39144853  0.38071997  0.50469915  1
  Zn  Zn82  1  0.18624468  0.19076245  0.19369903  1
  Zn  Zn83  1  0.18642174  0.18017777  0.68591545  1
  Zn  Zn84  1  0.18196863  0.69174482  0.18907357  1
  Zn  Zn85  1  0.18846432  0.68728650  0.67411350  1
  Zn  Zn86  1  0.69077918  0.18775958  0.18212735  1
  Zn  Zn87  1  0.68916057  0.18517156  0.70117536  1
  Zn  Zn88  1  0.67214203  0.68961796  0.18159023  1
  Zn  Zn89  1  0.68756360  0.68960866  0.69214447  1
  Zn  Zn90  1  0.31087749  0.31556279  0.31048366  1
  Zn  Zn91  1  0.32290257  0.30734378  0.80699080  1
  Zn  Zn92  1  0.32146616  0.81308311  0.30945823  1
  Zn  Zn93  1  0.30600844  0.82782303  0.78300123  1
  Zn  Zn94  1  0.81212183  0.32118546  0.31204740  1
  Zn  Zn95  1  0.81318429  0.31609882  0.81463607  1
  Zn  Zn96  1  0.80525043  0.80901956  0.30758866  1
  Zn  Zn97  1  0.81326649  0.81701864  0.82082612  1
  Zn  Zn98  1  0.18783439  0.44109239  0.43832104  1
  Zn  Zn99  1  0.19488978  0.43635061  0.93445612  1
  Zn  Zn100  1  0.18749502  0.95035492  0.46033987  1
  Zn  Zn101  1  0.22814256  0.91333462  0.91629099  1
  Zn  Zn102  1  0.69240441  0.44328447  0.43867703  1
  Zn  Zn103  1  0.70789043  0.45360840  0.95477186  1
  Zn  Zn104  1  0.69224308  0.93070891  0.43966159  1
  Zn  Zn105  1  0.76955074  0.86134647  1.12687189  1
  Zn  Zn106  1  0.30471689  0.06257026  0.06361874  1
  Zn  Zn107  1  0.31960567  0.07151790  0.56276396  1
  Zn  Zn108  1  0.30933738  0.56252823  0.05490582  1
  Zn  Zn109  1  0.30738524  0.55938338  0.55839084  1
  Zn  Zn110  1  0.81631839  0.06592188  0.05813308  1
  Zn  Zn111  1  0.80816230  0.06231448  0.55833771  1
  Zn  Zn112  1  0.80535017  0.57000657  0.06213050  1
  Zn  Zn113  1  0.80883981  0.56259384  0.56524717  1
  Zn  Zn114  1  0.43768951  0.44243617  0.19241879  1
  Zn  Zn115  1  0.43904858  0.42818172  0.68636422  1
  Zn  Zn116  1  0.43922934  0.92616985  0.18450426  1
  Zn  Zn117  1  0.44349737  0.93923123  0.69355588  1
  Zn  Zn118  1  0.93181755  0.44802772  0.18644645  1
  Zn  Zn119  1  0.93238097  0.43016745  0.69360505  1
  Zn  Zn120  1  0.94848452  0.94191779  0.17974288  1
  Zn  Zn121  1  0.93785503  0.95114104  0.68542224  1
  Zn  Zn122  1  0.06174797  0.06317408  0.31521810  1
  Zn  Zn123  1  0.05127864  0.07220586  0.81362260  1
  Zn  Zn124  1  0.06491702  0.56693632  0.31247333  1
  Zn  Zn125  1  0.06460962  0.56770450  0.81259357  1
  Zn  Zn126  1  0.56028760  0.06743336  0.30578875  1
  Zn  Zn127  1  0.55851590  0.05257511  0.82061457  1
  Zn  Zn128  1  0.56342414  0.56413546  0.31682685  1
  Zn  Zn129  1  0.55495719  0.56619138  0.79581221  1
  Zn  Zn130  1  0.46380127  0.22109579  0.46376640  1
  Zn  Zn131  1  0.43528497  0.17661776  0.93913609  1
  Zn  Zn132  1  0.44183961  0.68301739  0.43663604  1
  Zn  Zn133  1  0.43715495  0.67849072  0.93478730  1
  Zn  Zn134  1  0.92216001  0.19577647  0.39101011  1
  Zn  Zn135  1  0.94381104  0.17364238  0.95635836  1
  Zn  Zn136  1  0.93343050  0.69196801  0.42931222  1
  Zn  Zn137  1  0.95190176  0.69080358  0.92912669  1
  Zn  Zn138  1  0.05594436  0.31165930  0.06436504  1
  Zn  Zn139  1  0.06523989  0.31550570  0.55649935  1
  Zn  Zn140  1  0.06387297  0.82511395  0.07642398  1
  Zn  Zn141  1  0.05468427  0.81988815  0.55357776  1
  Zn  Zn142  1  0.57184520  0.31106210  0.05783365  1
  Zn  Zn143  1  0.56818438  0.32323354  0.56785059  1
  Zn  Zn144  1  0.52143618  0.79480469  0.04308671  1
  Zn  Zn145  1  0.56124718  0.81687825  0.56152707  1
  O  O146  1  0.12098499  0.12729776  0.12931457  1
  O  O147  1  0.13656258  0.07299241  0.66065363  1
  O  O148  1  0.13196903  0.61530564  0.11343514  1
  O  O149  1  0.12715100  0.61190946  0.61035297  1
  O  O150  1  0.61218895  0.12838421  0.12732531  1
  O  O151  1  0.61817421  0.11071216  0.63476585  1
  O  O152  1  0.62577523  0.60627881  0.11174204  1
  O  O153  1  0.63302216  0.61235436  0.62809881  1
  O  O154  1  0.36786543  0.38847959  0.37605489  1
  O  O155  1  0.35908545  0.39442771  0.87758325  1
  O  O156  1  0.37190224  0.89110704  0.38493636  1
  O  O157  1  0.33979551  0.88766509  0.87563138  1
  O  O158  1  0.86339354  0.39639911  0.38620688  1
  O  O159  1  0.88220123  0.38339096  0.88733862  1
  O  O160  1  0.85704691  0.88387729  0.38365666  1
  O  O161  1  0.89035909  0.85259628  0.89788594  1
  O  O162  1  0.25624586  0.01134043  0.37572171  1
  O  O163  1  0.23455685  0.02095358  0.87049491  1
  O  O164  1  0.25464293  0.50871275  0.36830354  1
  O  O165  1  0.24486481  0.50171306  0.85364219  1
  O  O166  1  0.74691015  0.00533196  0.36325773  1
  O  O167  1  0.70219935  0.08424403  0.91823027  1
  O  O168  1  0.75622216  0.51907731  0.37871812  1
  O  O169  1  0.76572239  0.48975548  0.86129776  1
  O  O170  1  0.24278566  0.49406086  0.13034721  1
  O  O171  1  0.24487862  0.49033077  0.63309569  1
  O  O172  1  0.25930290  0.98760529  0.14166533  1
  O  O173  1  0.24131488  0.98957533  0.57720468  1
  O  O174  1  0.73907658  0.49228185  0.11700259  1
  O  O175  1  0.74446831  0.49242489  0.63289630  1
  O  O176  1  0.75469082  1.00867860  0.14042760  1
  O  O177  1  0.73709332  0.99555768  0.62295062  1
  O  O178  1  0.01281503  0.38477991  0.24685388  1
  O  O179  1  -0.01065856  0.36444379  0.77196049  1
  O  O180  1  0.01777840  0.87182547  0.24648703  1
  O  O181  1  -0.00487919  0.88120250  0.75029124  1
  O  O182  1  0.49723247  0.36006927  0.24778890  1
  O  O183  1  0.49593389  0.35567434  0.75324468  1
  O  O184  1  0.49047810  0.85705767  0.25730573  1
  O  O185  1  0.49964300  0.85429012  0.73956360  1
  O  O186  1  0.48972082  0.13584034  0.24053793  1
  O  O187  1  0.49440290  0.12660311  0.74654421  1
  O  O188  1  0.49524855  0.63539150  0.25729346  1
  O  O189  1  0.49793025  0.64681376  0.74289762  1
  O  O190  1  0.99859563  0.11029812  0.23189764  1
  O  O191  1  0.97388392  0.13594690  0.75879165  1
  O  O192  1  0.99796606  0.63855177  0.24968428  1
  O  O193  1  0.98761236  0.62501126  0.74332979  1
  O  O194  1  0.36638884  0.25181757  0.01016100  1
  O  O195  1  0.35484848  0.24788621  0.49763907  1
  O  O196  1  0.38858162  0.73606422  0.02239445  1
  O  O197  1  0.37184344  0.75748329  0.50721675  1
  O  O198  1  0.87743332  0.26093573  -0.00082940  1
  O  O199  1  0.86381424  0.26712051  0.50010765  1
  O  O200  1  0.86207734  0.71907734  -0.00156361  1
  O  O201  1  0.87203363  0.75962615  0.50542513  1
  O  O202  1  0.13548841  0.25961963  0.48248080  1
  O  O203  1  0.13726510  0.26016024  0.99377838  1
  O  O204  1  0.13735028  0.74236710  0.51052108  1
  O  O205  1  0.12959728  0.74640853  1.00290850  1
  O  O206  1  0.63537211  0.25778937  0.48426131  1
  O  O207  1  0.64733272  0.24962522  0.98300372  1
  O  O208  1  0.61614512  0.74997062  0.48373496  1
  O  O209  1  0.60638025  0.73477048  0.98386557  1
  O  O210  1  0.49582463  0.24665034  0.13260675  1
  O  O211  1  0.51584903  0.23371053  0.63199725  1
  O  O212  1  0.48689712  0.74428367  0.13895891  1
  O  O213  1  0.48973039  0.74860921  0.62238882  1
  O  O214  1  1.00073638  0.23481145  0.12642126  1
  O  O215  1  0.98726667  0.25820024  0.61999600  1
  O  O216  1  1.00622927  0.75029149  0.14292822  1
  O  O217  1  0.97755532  0.75774163  0.62206397  1
  O  O218  1  0.01772502  0.25738544  0.37921359  1
  O  O219  1  0.01844580  0.25731520  0.88443548  1
  O  O220  1  -0.01074690  0.75897337  0.35669123  1
  O  O221  1  0.02010757  0.75500589  0.86364487  1
  O  O222  1  0.51618575  0.24193209  0.36024242  1
  O  O223  1  0.50006630  0.24717561  0.87706991  1
  O  O224  1  0.50794973  0.75007953  0.36848173  1
  O  O225  1  0.50205282  0.74872489  0.86463452  1
  O  O226  1  0.24969657  0.13788230  0.48976262  1
  O  O227  1  0.25570640  0.13786454  0.98515845  1
  O  O228  1  0.24266132  0.63406399  0.49130176  1
  O  O229  1  0.23218573  0.61559902  0.98989037  1
  O  O230  1  0.75228523  0.13812258  0.48468971  1
  O  O231  1  0.70757854  0.07301991  0.99551484  1
  O  O232  1  0.75097666  0.63225906  0.49434417  1
  O  O233  1  0.73020922  0.63176896  0.99633201  1
  O  O234  1  0.25442673  0.37068020  0.01279247  1
  O  O235  1  0.25193208  0.36663198  0.50443141  1
  O  O236  1  0.24478496  0.86828107  0.02048555  1
  O  O237  1  0.25737160  0.85834410  0.49005930  1
  O  O238  1  0.76925202  0.37712642  0.00845158  1
  O  O239  1  0.75478132  0.37119139  0.51135525  1
  O  O240  1  0.77763497  0.85409036  0.00211321  1
  O  O241  1  0.76244655  0.88059196  0.51464053  1
  O  O242  1  0.13375323  0.49346927  0.24434903  1
  O  O243  1  0.13413564  0.50806532  0.73538504  1
  O  O244  1  0.13630250  0.98953237  0.26144100  1
  O  O245  1  0.12816035  1.02571445  0.73350518  1
  O  O246  1  0.62334527  0.50379615  0.23616822  1
  O  O247  1  0.64188399  0.50225435  0.74984682  1
  O  O248  1  0.63244859  0.99809130  0.24799233  1
  O  O249  1  0.62447774  0.99391055  0.74368118  1
  O  O250  1  0.36707203  0.00792031  0.26095561  1
  O  O251  1  0.37631141  0.01779436  0.74345722  1
  O  O252  1  0.36105227  0.49844118  0.25742687  1
  O  O253  1  0.36402804  0.49541072  0.75321754  1
  O  O254  1  0.86654836  -0.01335802  0.25790993  1
  O  O255  1  0.87504192  0.00811865  0.76661679  1
  O  O256  1  0.87749582  0.51636230  0.26440950  1
  O  O257  1  0.87005996  0.51095886  0.75235378  1
  O  O258  1  0.12993932  0.37309059  0.36253502  1
  O  O259  1  0.11421523  0.37231902  0.87761196  1
  O  O260  1  0.13013621  0.87702624  0.37101699  1
  O  O261  1  0.13416796  0.86027655  0.87052298  1
  O  O262  1  0.63498893  0.36753552  0.36892152  1
  O  O263  1  0.67377835  0.29020524  0.91912445  1
  O  O264  1  0.63053873  0.85990734  0.37300882  1
  O  O265  1  0.61710455  0.86812269  0.88035023  1
  O  O266  1  0.37064550  0.13712930  0.13636102  1
  O  O267  1  0.39070716  0.12591259  0.63575776  1
  O  O268  1  0.36041331  0.62828244  0.13358544  1
  O  O269  1  0.37846026  0.62950641  0.61725632  1
  O  O270  1  0.89434984  0.13125392  0.10309603  1
  O  O271  1  0.86651924  0.14655341  0.61255990  1
  O  O272  1  0.87865011  0.61266380  0.13869213  1
  O  O273  1  0.86782039  0.63941929  0.63042729  1
  O  O274  1  0.25567756  0.25716978  0.12149365  1
  O  O275  1  0.23269539  0.25902183  0.61171637  1
  O  O276  1  0.26117957  0.75451117  0.13506477  1
  O  O277  1  0.26616838  0.74499409  0.60915402  1
  O  O278  1  0.76383610  0.26377145  0.13693750  1
  O  O279  1  0.75227339  0.26182880  0.61823637  1
  O  O280  1  0.73173654  0.75044507  0.10219939  1
  O  O281  1  0.75721195  0.76249866  0.62986041  1
  O  O282  1  0.24531132  0.24767955  0.38163909  1
  O  O283  1  0.23974718  0.25647877  0.88070325  1
  O  O284  1  0.25970137  0.73822728  0.38563633  1
  O  O285  1  0.23848338  0.74837204  0.84687211  1
  O  O286  1  0.73849395  0.24293245  0.37399666  1
  O  O287  1  0.73541219  0.25309138  0.88332978  1
  O  O288  1  0.73690159  0.73741187  0.36914740  1
  O  O289  1  0.73212665  0.75624779  0.88939078  1
  O  O290  1  0.02612878  0.11277433  0.00450386  1
  O  O291  1  -0.02171258  0.12393729  0.47621967  1
  O  O292  1  0.02105521  0.62790866  -0.00011893  1
  O  O293  1  0.01446902  0.63793413  0.49211381  1
  O  O294  1  0.49217405  0.12551567  0.02037937  1
  O  O295  1  0.49649532  0.12137259  0.51829535  1
  O  O296  1  0.51051501  0.60343319  -0.00625618  1
  O  O297  1  0.49832429  0.61588090  0.50480807  1
  O  O298  1  0.49024811  0.33121242  0.49247819  1
  O  O299  1  0.50730984  0.38625312  0.99445346  1
  O  O300  1  0.49323387  0.88822245  0.49230671  1
  O  O301  1  0.47606108  0.87803848  0.98655290  1
  O  O302  1  0.98300064  0.37654138  0.49828991  1
  O  O303  1  0.98872299  0.37644114  0.98987348  1
  O  O304  1  0.97534955  0.88410571  0.49898125  1
  O  O305  1  1.00180582  0.89160431  1.00221929  1
  O  O306  1  0.48231178  0.50142083  0.36689801  1
  O  O307  1  0.48825738  0.49645692  0.86561028  1
  O  O308  1  0.49115344  1.00766228  0.37996964  1
  O  O309  1  0.47890187  0.99284681  0.87052430  1
  O  O310  1  0.98327645  0.51260029  0.37882453  1
  O  O311  1  0.99137902  0.49009862  0.86827323  1
  O  O312  1  0.97862059  1.00240427  0.37383048  1
  O  O313  1  1.02190099  0.99959115  0.89454865  1
  O  O314  1  0.00815010  0.00974096  0.10802856  1
  O  O315  1  -0.02312695  0.01683518  0.60080647  1
  O  O316  1  0.01638967  0.50809228  0.13026399  1
  O  O317  1  0.01197538  0.49013695  0.63180280  1
  O  O318  1  0.49271255  0.01444122  0.13690292  1
  O  O319  1  0.51550533  0.00395453  0.61977191  1
  O  O320  1  0.51338600  0.48868577  0.11615786  1
  O  O321  1  0.51800263  0.49383261  0.63916628  1
  O  O322  1  0.24368205  0.38426764  0.23907407  1
  O  O323  1  0.24934569  0.37362537  0.73616060  1
  O  O324  1  0.24294736  0.88192256  0.25752965  1
  O  O325  1  0.24197434  0.90318192  0.71998397  1
  O  O326  1  0.76205488  0.38808453  0.23412994  1
  O  O327  1  0.76231241  0.38787882  0.73570716  1
  O  O328  1  0.74762953  0.88274791  0.23868247  1
  O  O329  1  0.75884610  0.87696617  0.73715900  1
  O  O330  1  0.25674582  0.11974945  0.25769546  1
  O  O331  1  0.26539319  0.13856420  0.75970449  1
  O  O332  1  0.23669370  0.61958210  0.26589488  1
  O  O333  1  0.25259686  0.61419097  0.74256227  1
  O  O334  1  0.74508549  0.11568652  0.25910999  1
  O  O335  1  0.77405310  0.13354234  0.75106508  1
  O  O336  1  0.75912309  0.63270096  0.24454676  1
  O  O337  1  0.76181954  0.61136157  0.74705463  1
  O  O338  1  0.36547915  0.12083129  0.36619228  1
  O  O339  1  0.36156203  0.12464546  0.86627418  1
  O  O340  1  0.35936557  0.61333394  0.37960594  1
  O  O341  1  0.36882586  0.60105181  0.88256236  1
  O  O342  1  0.85341834  0.10486120  0.37164203  1
  O  O343  1  0.86728487  0.13052707  0.88395796  1
  O  O344  1  0.86094240  0.62268745  0.36879247  1
  O  O345  1  0.88393450  0.61443098  0.86109831  1
  O  O346  1  0.12996714  0.38445922  0.13364840  1
  O  O347  1  0.13616506  0.39039729  0.61456838  1
  O  O348  1  0.14673926  0.86698973  0.14715409  1
  O  O349  1  0.11804469  0.89220113  0.61520544  1
  O  O350  1  0.64397127  0.38099359  0.11852021  1
  O  O351  1  0.64012117  0.38324444  0.62992200  1
  O  O352  1  0.59542412  0.87679544  0.11691797  1
  O  O353  1  0.63704677  0.88464293  0.62127292  1
  O  O354  1  0.13131429  0.26952370  0.25912537  1
  O  O355  1  0.12221930  0.25154203  0.75808863  1
  O  O356  1  0.11722259  0.75786710  0.26091062  1
  O  O357  1  0.11956075  0.74854143  0.74194615  1
  O  O358  1  0.61715180  0.25093803  0.25584102  1
  O  O359  1  0.61031129  0.24046885  0.75921180  1
  O  O360  1  0.60877898  0.74457719  0.25794072  1
  O  O361  1  0.61759490  0.74879908  0.76534167  1
  O  O362  1  0.38262935  0.24507582  0.24594177  1
  O  O363  1  0.39428716  0.23488283  0.75406713  1
  O  O364  1  0.38249974  0.74269447  0.24515364  1
  O  O365  1  0.37956885  0.75318190  0.72909322  1
  O  O366  1  0.88520164  0.24239794  0.28553382  1
  O  O367  1  0.87131901  0.25813666  0.72892253  1
  O  O368  1  0.88033781  0.73819850  0.24915052  1
  O  O369  1  0.87180618  0.73649994  0.74744265  1
  O  O370  1  0.37082831  0.49638056  0.48695436  1
  O  O371  1  0.39200971  0.49464773  1.00162815  1
  O  O372  1  0.38694233  1.00009137  0.49358728  1
  O  O373  1  0.36713090  1.00073919  0.99435785  1
  O  O374  1  0.87134114  0.49492326  0.49484352  1
  O  O375  1  0.87006474  0.50994768  0.98232995  1
  O  O376  1  0.87211448  0.99382891  0.48553390  1
  O  O377  1  0.86976212  0.99152219  0.98484049  1
  O  O378  1  0.14161855  -0.00835639  0.00451270  1
  O  O379  1  0.09439939  0.01011419  0.48186565  1
  O  O380  1  0.12689761  0.49390839  0.01237512  1
  O  O381  1  0.12456971  0.51038996  0.50837615  1
  O  O382  1  0.64290204  -0.08234564  0.07668794  1
  O  O383  1  0.61422995  -0.00181933  0.49636734  1
  O  O384  1  0.61725065  0.50401181  -0.00239876  1
  O  O385  1  0.62439859  0.49494512  0.51446552  1
  O  O386  1  0.36795904  0.36514246  0.12948690  1
  O  O387  1  0.35612791  0.37817031  0.62029083  1
  O  O388  1  0.35964724  0.86169958  0.13359192  1
  O  O389  1  0.37901296  0.88016433  0.61051340  1
  O  O390  1  0.87190431  0.38361439  0.11317411  1
  O  O391  1  0.86624890  0.37371191  0.61222212  1
  O  O392  1  0.88391413  0.87915254  0.10580335  1
  O  O393  1  0.86352590  0.86838204  0.61649677  1
  O  O394  1  0.13458399  0.14433002  0.36073601  1
  O  O395  1  0.13782648  0.14411179  0.86759061  1
  O  O396  1  0.13753001  0.61798624  0.39002195  1
  O  O397  1  0.12642733  0.64120334  0.88039565  1
  O  O398  1  0.63387141  0.13074317  0.37368399  1
  O  O399  1  0.63022173  0.11121408  0.89554173  1
  O  O400  1  0.63599778  0.62948200  0.37669350  1
  O  O401  1  0.62303672  0.61693392  0.88042731  1
