# generated using pymatgen
data_V73Zn73O256
_symmetry_space_group_name_H-M   'P 1'
_cell_length_a   16.93767253
_cell_length_b   16.84446097
_cell_length_c   16.89598374
_cell_angle_alpha   90.07385574
_cell_angle_beta   90.12400016
_cell_angle_gamma   89.91845077
_symmetry_Int_Tables_number   1
_chemical_formula_structural   V73Zn73O256
_chemical_formula_sum   'V73 Zn73 O256'
_cell_volume   4820.50477075
_cell_formula_units_Z   1
loop_
 _symmetry_equiv_pos_site_id
 _symmetry_equiv_pos_as_xyz
  1  'x, y, z'
loop_
 _atom_site_type_symbol
 _atom_site_label
 _atom_site_symmetry_multiplicity
 _atom_site_fract_x
 _atom_site_fract_y
 _atom_site_fract_z
 _atom_site_occupancy
  V  V0  1  -0.00348364  0.49469752  0.49479628  1
  V  V1  1  0.87367589  0.87952509  0.49935507  1
  V  V2  1  0.86900367  0.61953086  0.75006432  1
  V  V3  1  0.62748585  0.12476625  0.50739851  1
  V  V4  1  0.87715492  0.75267724  0.63481001  1
  V  V5  1  0.74951803  0.63190908  0.87645941  1
  V  V6  1  0.62687753  0.76532362  0.87203605  1
  V  V7  1  0.50019547  0.75751716  0.24234772  1
  V  V8  1  0.87232926  0.50033010  0.88023440  1
  V  V9  1  0.37390097  0.50260624  0.36476532  1
  V  V10  1  0.87325803  0.36852795  -0.00187197  1
  V  V11  1  0.50220275  0.86945657  0.37796416  1
  V  V12  1  0.50251823  0.89969891  0.87531319  1
  V  V13  1  0.37385551  0.25676706  0.12527304  1
  V  V14  1  0.13951923  -0.00190528  0.62397666  1
  V  V15  1  0.60737874  0.24041209  0.36803526  1
  V  V16  1  0.39748491  0.37992311  0.49854087  1
  V  V17  1  0.37453002  -0.00990390  0.37513973  1
  V  V18  1  0.12862714  0.12572499  0.49786750  1
  V  V19  1  0.25423855  0.26201242  0.50361823  1
  V  V20  1  -0.00239116  0.25393826  0.25014960  1
  V  V21  1  0.00153351  0.74759805  0.24030139  1
  V  V22  1  0.49689040  0.12036243  0.12929535  1
  V  V23  1  0.00959755  0.37776936  0.87604793  1
  V  V24  1  0.74508160  0.75052449  0.50492311  1
  V  V25  1  0.74821487  0.36596957  0.11393682  1
  V  V26  1  0.62374309  0.49841574  0.10857567  1
  V  V27  1  0.00331550  0.86581394  0.37933948  1
  V  V28  1  0.87048799  0.37414077  0.49248245  1
  V  V29  1  0.00247793  0.12736555  0.62418403  1
  V  V30  1  0.62889954  0.24732290  0.86074804  1
  V  V31  1  0.45749643  0.38899792  0.87982017  1
  V  V32  1  0.61298069  0.12753463  0.00253192  1
  V  V33  1  0.12845295  0.12418161  -0.00834797  1
  V  V34  1  0.13683410  0.62693537  0.50506145  1
  V  V35  1  -0.01109826  0.88274577  0.87207734  1
  V  V36  1  0.76565717  0.12116271  0.88911621  1
  V  V37  1  0.87296167  0.11730298  0.26532297  1
  V  V38  1  0.12039153  0.38502287  0.23934205  1
  V  V39  1  0.24966024  0.24642897  -0.01214775  1
  V  V40  1  -0.00275526  0.62580133  0.62892280  1
  V  V41  1  0.75178362  0.24623282  0.48151416  1
  V  V42  1  0.12480680  0.48689705  0.63775013  1
  V  V43  1  0.24456967  -0.01956797  0.25078945  1
  V  V44  1  0.62145339  0.63222705  -0.00390531  1
  V  V45  1  0.87233101  0.62993411  0.23223085  1
  V  V46  1  0.75288103  0.62152120  0.37866620  1
  V  V47  1  0.36113252  0.76073940  0.12322338  1
  V  V48  1  0.87719234  0.88199756  0.01676196  1
  V  V49  1  0.24398209  0.75448364  -0.02945760  1
  V  V50  1  0.00158193  0.12083386  0.12155259  1
  V  V51  1  0.69350641  0.43324013  0.70122845  1
  V  V52  1  0.49996881  0.00361479  0.51148769  1
  V  V53  1  0.13573360  0.74321380  0.37647448  1
  V  V54  1  0.63352241  -0.00904148  0.12945989  1
  V  V55  1  0.12778962  -0.01005098  0.12685097  1
  V  V56  1  0.37630113  0.13293056  0.25209430  1
  V  V57  1  0.24770673  0.12586366  0.37113394  1
  V  V58  1  0.00910042  0.25493098  0.75239308  1
  V  V59  1  0.12161285  0.26013824  0.37098786  1
  V  V60  1  0.61916736  0.61369934  0.51355902  1
  V  V61  1  0.49480442  0.74389428  0.74786375  1
  V  V62  1  0.49439925  0.62150346  0.12588924  1
  V  V63  1  0.87826268  0.11470323  0.75014507  1
  V  V64  1  0.25930746  0.01821965  0.76328029  1
  V  V65  1  0.36345877  0.53201457  0.86336331  1
  V  V66  1  0.12575577  0.87039131  0.75653031  1
  V  V67  1  0.61693302  0.37290606  0.25582314  1
  V  V68  1  0.86430119  0.25393142  0.62403232  1
  V  V69  1  0.72607326  0.00978905  0.74782681  1
  V  V70  1  0.73532982  0.88404872  0.63039490  1
  V  V71  1  0.37762877  0.89262797  -0.00408462  1
  V  V72  1  -0.00349028  0.00010214  0.49352714  1
  Zn  Zn73  1  0.63061457  0.74916837  0.37151530  1
  Zn  Zn74  1  0.24673824  0.37340350  0.12187074  1
  Zn  Zn75  1  0.87580467  0.49572517  0.36875386  1
  Zn  Zn76  1  0.18062100  0.31312578  0.82100288  1
  Zn  Zn77  1  0.27702233  0.80749870  0.62372764  1
  Zn  Zn78  1  0.74960843  0.49897618  0.24744936  1
  Zn  Zn79  1  0.75053663  0.00575978  0.24909540  1
  Zn  Zn80  1  0.86780424  0.23911980  0.12057031  1
  Zn  Zn81  1  0.76007167  0.75970892  0.02917500  1
  Zn  Zn82  1  0.18597113  0.18894610  0.18442422  1
  Zn  Zn83  1  0.26943174  0.22693683  0.71395809  1
  Zn  Zn84  1  0.24294500  0.51010333  0.25403613  1
  Zn  Zn85  1  0.20274418  0.69161351  0.77646399  1
  Zn  Zn86  1  0.68707521  0.18513083  0.18992798  1
  Zn  Zn87  1  0.64960808  0.25379223  0.65038304  1
  Zn  Zn88  1  0.68296129  0.68885150  0.18868856  1
  Zn  Zn89  1  0.68345995  0.69210164  0.69168959  1
  Zn  Zn90  1  0.30919413  0.32390861  0.31401868  1
  Zn  Zn91  1  0.26595944  0.44986374  0.74058812  1
  Zn  Zn92  1  0.30222876  0.67707339  0.28809415  1
  Zn  Zn93  1  0.31829926  0.83574918  0.80378036  1
  Zn  Zn94  1  0.81020727  0.31294556  0.30417386  1
  Zn  Zn95  1  0.81664036  0.30133590  0.81602010  1
  Zn  Zn96  1  0.81733278  0.80754028  0.31217151  1
  Zn  Zn97  1  0.80624891  0.82360239  0.81218413  1
  Zn  Zn98  1  0.18600104  0.44392083  0.43252316  1
  Zn  Zn99  1  0.24901846  0.44590380  0.94340635  1
  Zn  Zn100  1  0.19230992  0.92352527  0.44323504  1
  Zn  Zn101  1  0.18878509  0.94033922  0.93636002  1
  Zn  Zn102  1  0.68884547  0.43500741  0.43720037  1
  Zn  Zn103  1  0.66018818  0.45708348  0.89160352  1
  Zn  Zn104  1  0.68180838  0.93589837  0.44008962  1
  Zn  Zn105  1  0.69677759  0.94592195  0.94456493  1
  Zn  Zn106  1  0.30697513  0.06532502  0.06722667  1
  Zn  Zn107  1  0.32526399  -0.05624754  0.55360568  1
  Zn  Zn108  1  0.31013262  0.58090893  0.05465213  1
  Zn  Zn109  1  0.30566116  0.53524440  0.56134101  1
  Zn  Zn110  1  0.82038337  0.04711491  0.06809161  1
  Zn  Zn111  1  0.80909135  0.06561110  0.56400751  1
  Zn  Zn112  1  0.80534801  0.55841707  0.05403821  1
  Zn  Zn113  1  0.80624175  0.55730523  0.56824065  1
  Zn  Zn114  1  0.43941720  0.43908647  0.18688448  1
  Zn  Zn115  1  0.42894230  0.40935366  0.69796503  1
  Zn  Zn116  1  0.43527207  0.94025014  0.18799556  1
  Zn  Zn117  1  0.43663849  0.92985577  0.69583109  1
  Zn  Zn118  1  0.93268410  0.43779842  0.18794461  1
  Zn  Zn119  1  0.93389908  0.43686306  0.68784530  1
  Zn  Zn120  1  0.94344117  0.93619506  0.19410488  1
  Zn  Zn121  1  0.94487295  0.93483726  0.68094494  1
  Zn  Zn122  1  0.06107741  0.06098517  0.31010589  1
  Zn  Zn123  1  0.06269010  0.05894335  0.80970850  1
  Zn  Zn124  1  0.05872006  0.57088060  0.31439026  1
  Zn  Zn125  1  0.05959899  0.56310068  0.81347734  1
  Zn  Zn126  1  0.55994402  0.05862254  0.31042359  1
  Zn  Zn127  1  0.55533910  0.09144922  0.81878427  1
  Zn  Zn128  1  0.56613295  0.56003321  0.30920616  1
  Zn  Zn129  1  0.52931883  0.53321947  0.75605464  1
  Zn  Zn130  1  0.43434680  0.18547347  0.44276266  1
  Zn  Zn131  1  0.45475906  0.22559809  0.95154563  1
  Zn  Zn132  1  0.45081239  0.65375754  0.41457713  1
  Zn  Zn133  1  0.43776493  0.69902607  0.93688359  1
  Zn  Zn134  1  0.93996873  0.19055367  0.43589428  1
  Zn  Zn135  1  0.94320805  0.18829666  0.93719539  1
  Zn  Zn136  1  0.93390186  0.68630686  0.44370576  1
  Zn  Zn137  1  0.93127006  0.71551189  0.91738608  1
  Zn  Zn138  1  0.06054124  0.30956247  0.05719262  1
  Zn  Zn139  1  0.05974463  0.31090188  0.55968209  1
  Zn  Zn140  1  0.05937611  0.81113172  0.05164923  1
  Zn  Zn141  1  0.06768745  0.80985304  0.56733390  1
  Zn  Zn142  1  0.56320089  0.31030308  0.05520394  1
  Zn  Zn143  1  0.56054098  0.43828124  0.57341318  1
  Zn  Zn144  1  0.56145018  0.81510154  0.05510694  1
  Zn  Zn145  1  0.55368021  0.81442421  0.56256250  1
  O  O146  1  0.11492825  0.11895283  0.12427337  1
  O  O147  1  0.11548785  0.11795442  0.60997017  1
  O  O148  1  0.05406793  0.55393779  0.12609650  1
  O  O149  1  0.10936446  0.61128990  0.61266828  1
  O  O150  1  0.61613393  0.12512848  0.11966079  1
  O  O151  1  0.62145106  0.14542002  0.60410985  1
  O  O152  1  0.61876847  0.61660160  0.11658806  1
  O  O153  1  0.63184762  0.62783045  0.61264726  1
  O  O154  1  0.37549605  0.38726888  0.38238002  1
  O  O155  1  0.35902977  0.38159772  0.88296691  1
  O  O156  1  0.38128131  0.88898302  0.37732960  1
  O  O157  1  0.39153669  0.88732057  0.88424540  1
  O  O158  1  0.87156069  0.37515294  0.38567628  1
  O  O159  1  0.87203740  0.38206224  0.88313736  1
  O  O160  1  0.88755104  0.86314735  0.39479966  1
  O  O161  1  0.88638733  0.88365583  0.86371493  1
  O  O162  1  0.25209495  0.00370696  0.36854118  1
  O  O163  1  0.24502128  0.00983113  0.86302078  1
  O  O164  1  0.25978218  0.50004018  0.37028376  1
  O  O165  1  0.25534605  0.50621667  0.84668459  1
  O  O166  1  0.75857722  -0.04473377  0.35711857  1
  O  O167  1  0.74674435  0.01271757  0.86061377  1
  O  O168  1  0.75259821  0.50803184  0.37165625  1
  O  O169  1  0.75994030  0.51949359  0.88168676  1
  O  O170  1  0.23650155  0.49564389  0.09856632  1
  O  O171  1  0.23099082  0.50039011  0.63811006  1
  O  O172  1  0.23976782  1.00331768  0.14178368  1
  O  O173  1  0.23838365  1.00740606  0.61720703  1
  O  O174  1  0.73672019  0.49139676  0.12324462  1
  O  O175  1  0.74398595  0.49754849  0.64139394  1
  O  O176  1  0.73916844  0.99805236  0.13102784  1
  O  O177  1  0.75093928  0.99858756  0.63783865  1
  O  O178  1  0.00516122  0.36530086  0.24260417  1
  O  O179  1  -0.01176385  0.36717184  0.76385745  1
  O  O180  1  -0.00881327  0.85858529  0.26743008  1
  O  O181  1  0.01614985  0.88866063  0.75424385  1
  O  O182  1  0.51935454  0.37243067  0.23710673  1
  O  O183  1  0.48140619  0.35273760  0.78733480  1
  O  O184  1  0.49349917  0.86475336  0.25888479  1
  O  O185  1  0.50530721  0.87590933  0.77272735  1
  O  O186  1  0.48430832  0.12437722  0.24591644  1
  O  O187  1  0.47277608  0.11512136  0.73682909  1
  O  O188  1  0.50201465  0.63299651  0.23184435  1
  O  O189  1  0.50740918  0.64391748  0.75833447  1
  O  O190  1  0.99303692  0.13223168  0.24409941  1
  O  O191  1  0.99776542  0.13225070  0.74101554  1
  O  O192  1  0.98292893  0.63432244  0.25304462  1
  O  O193  1  0.98453300  0.62119212  0.73733134  1
  O  O194  1  0.35940990  0.23247770  0.01285651  1
  O  O195  1  0.36122791  0.26565799  0.48203995  1
  O  O196  1  0.36795999  0.76224947  0.00664429  1
  O  O197  1  0.38222311  0.69056523  0.57414326  1
  O  O198  1  0.87936855  0.26239877  0.00379639  1
  O  O199  1  0.87056783  0.25359714  0.50245331  1
  O  O200  1  0.87202430  0.76648448  -0.00365076  1
  O  O201  1  0.86172841  0.75605614  0.51289104  1
  O  O202  1  0.12732814  0.24363806  0.48973983  1
  O  O203  1  0.13515127  0.23444756  1.00821681  1
  O  O204  1  0.12426317  0.73448563  0.49826954  1
  O  O205  1  0.14813807  0.77646187  0.99268462  1
  O  O206  1  0.63369262  0.23917536  0.48005823  1
  O  O207  1  0.63240092  0.22999063  1.00260659  1
  O  O208  1  0.63743306  0.74771707  0.50072153  1
  O  O209  1  0.63103406  0.74670584  0.99199984  1
  O  O210  1  0.48254092  0.23798387  0.11648473  1
  O  O211  1  0.49864911  0.25798019  0.63483787  1
  O  O212  1  0.50271954  0.74691653  0.13320336  1
  O  O213  1  0.51203338  0.76012247  0.64834041  1
  O  O214  1  1.00017969  0.23752495  0.13439179  1
  O  O215  1  0.99414184  0.24131849  0.62788015  1
  O  O216  1  1.01319275  0.75461577  0.14259066  1
  O  O217  1  0.98644204  0.73972124  0.61531697  1
  O  O218  1  0.01060942  0.24519495  0.36271616  1
  O  O219  1  -0.00682516  0.26502368  0.86606346  1
  O  O220  1  0.00310522  0.75468538  0.38234656  1
  O  O221  1  0.00674467  0.77579037  0.86308919  1
  O  O222  1  0.50935674  0.24787477  0.37552509  1
  O  O223  1  0.52831245  0.20700650  0.86887388  1
  O  O224  1  0.48800137  0.75941926  0.36590721  1
  O  O225  1  0.51723038  0.75760324  0.87332404  1
  O  O226  1  0.23990999  0.13515555  0.48214450  1
  O  O227  1  0.23633429  0.13047462  1.00539201  1
  O  O228  1  0.23418149  0.61500171  0.50989270  1
  O  O229  1  0.24958184  0.65709517  0.99662634  1
  O  O230  1  0.73764019  0.12771270  0.49593650  1
  O  O231  1  0.76682030  0.11822904  0.98993913  1
  O  O232  1  0.74301167  0.63076547  0.49801500  1
  O  O233  1  0.74257645  0.63588839  0.99366425  1
  O  O234  1  0.24073207  0.35078284  0.00553842  1
  O  O235  1  0.23778722  0.36192501  0.49661551  1
  O  O236  1  0.27147100  0.87198533  -0.01395600  1
  O  O237  1  0.24811940  0.86506555  0.52105857  1
  O  O238  1  0.75682703  0.37606579  0.01178544  1
  O  O239  1  0.75798040  0.36130080  0.49666842  1
  O  O240  1  0.76919893  0.87623794  -0.00488726  1
  O  O241  1  0.75617966  0.87221556  0.50963314  1
  O  O242  1  0.11217704  0.48674144  0.25661937  1
  O  O243  1  0.10964085  0.48978461  0.73628852  1
  O  O244  1  0.13609279  1.00111223  0.24476243  1
  O  O245  1  0.13441248  1.00773852  0.73222835  1
  O  O246  1  0.62565064  0.48810791  0.23683915  1
  O  O247  1  0.63545717  0.48289967  0.77541228  1
  O  O248  1  0.62869820  1.01061286  0.23469233  1
  O  O249  1  0.62910367  1.02468292  0.74779496  1
  O  O250  1  0.36125437  0.00802220  0.25526431  1
  O  O251  1  0.35693396  -0.00311710  0.74625546  1
  O  O252  1  0.36737673  0.48791933  0.25833646  1
  O  O253  1  0.37248516  0.49830992  0.75697618  1
  O  O254  1  0.87942504  0.01433614  0.24945077  1
  O  O255  1  0.88620107  0.01466526  0.74103271  1
  O  O256  1  0.87531835  0.51493480  0.25069693  1
  O  O257  1  0.87325786  0.51124315  0.75998683  1
  O  O258  1  0.12673519  0.36545030  0.36167869  1
  O  O259  1  0.10956292  0.38189027  0.87951682  1
  O  O260  1  0.11550237  0.85487390  0.38877331  1
  O  O261  1  0.12426447  0.88061703  0.86021503  1
  O  O262  1  0.62701180  0.36831067  0.36045883  1
  O  O263  1  0.63176232  0.34624550  0.88428919  1
  O  O264  1  0.60546559  0.86813301  0.37899144  1
  O  O265  1  0.61947114  0.87067121  0.89019525  1
  O  O266  1  0.37852589  0.12837551  0.13595817  1
  O  O267  1  0.45225220  0.20865904  0.60754766  1
  O  O268  1  0.39165470  0.64027044  0.11218935  1
  O  O269  1  0.38136651  0.62902421  0.61481583  1
  O  O270  1  0.89156536  0.12121937  0.12810708  1
  O  O271  1  0.88605476  0.13232788  0.62649181  1
  O  O272  1  0.86672997  0.62233798  0.13368940  1
  O  O273  1  0.87445290  0.63163432  0.63233764  1
  O  O274  1  0.26209185  0.24766655  0.12138480  1
  O  O275  1  0.25326482  0.23817293  0.59934752  1
  O  O276  1  0.26545648  0.76073862  0.12451738  1
  O  O277  1  0.25377891  0.71463099  0.67991004  1
  O  O278  1  0.74983657  0.26246916  0.12655427  1
  O  O279  1  0.76138609  0.24281706  0.60900394  1
  O  O280  1  0.74006416  0.76652786  0.13885688  1
  O  O281  1  0.75537454  0.76203924  0.62302236  1
  O  O282  1  0.23873122  0.24465313  0.37550942  1
  O  O283  1  0.24692038  0.24115608  0.88911464  1
  O  O284  1  0.23271391  0.74244080  0.36236657  1
  O  O285  1  0.25543208  0.75741633  0.86717957  1
  O  O286  1  0.74834663  0.24842966  0.37887967  1
  O  O287  1  0.74535096  0.22774830  0.87199362  1
  O  O288  1  0.75122224  0.74194897  0.38867085  1
  O  O289  1  0.73924111  0.74914994  0.87307181  1
  O  O290  1  0.01062245  0.13079125  0.01503621  1
  O  O291  1  0.00748445  0.12066082  0.50204727  1
  O  O292  1  0.02007268  0.65248208  -0.00138769  1
  O  O293  1  -0.00783943  0.61168562  0.51271567  1
  O  O294  1  0.50975494  0.12526324  0.00840732  1
  O  O295  1  0.51151722  0.11349758  0.49155978  1
  O  O296  1  0.51300544  0.63980067  0.01190987  1
  O  O297  1  0.52220357  0.63792534  0.49857059  1
  O  O298  1  0.49719101  0.37475954  0.49816448  1
  O  O299  1  0.49193845  0.34047263  0.96998059  1
  O  O300  1  0.50118742  0.88810280  0.48810809  1
  O  O301  1  0.48948386  0.87439075  0.98743343  1
  O  O302  1  0.99064490  0.38732588  0.50039913  1
  O  O303  1  0.99119340  0.37072887  0.98528192  1
  O  O304  1  0.99400042  0.88172473  0.50021027  1
  O  O305  1  0.98768767  0.87075027  0.98552126  1
  O  O306  1  0.47797964  0.52279671  0.37003805  1
  O  O307  1  0.47667380  0.49454705  0.87010646  1
  O  O308  1  0.49298809  0.98686027  0.37154302  1
  O  O309  1  0.51351418  0.99838374  0.87750629  1
  O  O310  1  0.99367842  0.50806841  0.39241600  1
  O  O311  1  0.98683282  0.48766990  0.86944736  1
  O  O312  1  1.01116452  0.98693179  0.38697039  1
  O  O313  1  1.01094149  0.98557213  0.87646071  1
  O  O314  1  0.01524183  0.01297637  0.13834734  1
  O  O315  1  0.00684582  0.01201374  0.61200561  1
  O  O316  1  0.00391591  0.50422763  0.10355944  1
  O  O317  1  0.00108312  0.50527414  0.61694999  1
  O  O318  1  0.50730033  0.01463152  0.13166624  1
  O  O319  1  0.49685774  -0.00529760  0.60905531  1
  O  O320  1  0.50555809  0.51357845  0.12337770  1
  O  O321  1  0.50318796  0.48611046  0.65575612  1
  O  O322  1  0.23239017  0.38321322  0.24207496  1
  O  O323  1  0.25793087  0.33641331  0.74446597  1
  O  O324  1  0.25095611  0.88544347  0.25383116  1
  O  O325  1  0.23523088  0.89395656  0.74442907  1
  O  O326  1  0.74127352  0.37805635  0.23490118  1
  O  O327  1  0.75812192  0.37347415  0.74910756  1
  O  O328  1  0.74333974  0.89271813  0.29497104  1
  O  O329  1  0.74738385  0.89825162  0.74455086  1
  O  O330  1  0.25424367  0.12532946  0.26111004  1
  O  O331  1  0.25131245  0.11850387  0.74334434  1
  O  O332  1  0.24647878  0.61338748  0.21411963  1
  O  O333  1  0.14698525  0.62323606  0.84201486  1
  O  O334  1  0.76998786  0.12700703  0.24527736  1
  O  O335  1  0.76371606  0.11212210  0.75504620  1
  O  O336  1  0.75995533  0.62651540  0.25864748  1
  O  O337  1  0.75907414  0.63395826  0.76216917  1
  O  O338  1  0.36654819  0.11903243  0.36845086  1
  O  O339  1  0.40976330  0.14475913  0.77669202  1
  O  O340  1  0.35689198  0.61644368  0.37069539  1
  O  O341  1  0.37671511  0.63111774  0.86535787  1
  O  O342  1  0.88029388  0.12416380  0.36500357  1
  O  O343  1  0.87150235  0.12987432  0.86613816  1
  O  O344  1  0.86188045  0.62354493  0.37663123  1
  O  O345  1  0.87153320  0.62374213  0.86974409  1
  O  O346  1  0.12008988  0.37198480  0.13608625  1
  O  O347  1  0.11634075  0.38827341  0.61801719  1
  O  O348  1  0.11569223  0.89257763  0.12093068  1
  O  O349  1  0.11691710  0.89455117  0.62872068  1
  O  O350  1  0.63165070  0.37796811  0.12183985  1
  O  O351  1  0.63565087  0.36972923  0.63808541  1
  O  O352  1  0.61390521  0.89379227  0.11934357  1
  O  O353  1  0.63793206  0.87791715  0.61731683  1
  O  O354  1  0.11722618  0.25806531  0.25341881  1
  O  O355  1  0.10831022  0.24927560  0.75038706  1
  O  O356  1  0.10304797  0.73629973  0.27336425  1
  O  O357  1  0.12398386  0.77310010  0.73635471  1
  O  O358  1  0.62954113  0.25901497  0.25925441  1
  O  O359  1  0.63394626  0.23695511  0.76141761  1
  O  O360  1  0.60337617  0.74318933  0.25694875  1
  O  O361  1  0.62300209  0.75662322  0.76778701  1
  O  O362  1  0.36554783  0.24294249  0.23943809  1
  O  O363  1  0.38885270  0.21699593  0.75657520  1
  O  O364  1  0.38610205  0.74545738  0.23184276  1
  O  O365  1  0.39624632  0.76258343  0.76059204  1
  O  O366  1  0.88340271  0.24084475  0.24546035  1
  O  O367  1  0.88176545  0.23849659  0.73902642  1
  O  O368  1  0.88454127  0.73886095  0.25118052  1
  O  O369  1  0.86785093  0.74558907  0.73928411  1
  O  O370  1  0.37450928  0.48835159  0.48696952  1
  O  O371  1  0.35018003  0.51192228  0.96984693  1
  O  O372  1  0.39183617  1.01136986  0.48840808  1
  O  O373  1  0.37315552  0.99158080  1.01189684  1
  O  O374  1  0.88021133  0.49056639  0.50459446  1
  O  O375  1  0.87381666  0.48995332  0.98992484  1
  O  O376  1  0.88472631  0.99251803  0.50687993  1
  O  O377  1  0.88157489  0.98407810  0.99820450  1
  O  O378  1  0.13623985  0.01209179  0.01792257  1
  O  O379  1  0.11954429  0.00714929  0.50484396  1
  O  O380  1  0.18385098  0.49802725  0.03687929  1
  O  O381  1  0.10999414  0.50630244  0.50229145  1
  O  O382  1  0.63609964  0.01879460  0.01583867  1
  O  O383  1  0.61647979  0.01374124  0.49419967  1
  O  O384  1  0.62657103  0.51069343  0.00084485  1
  O  O385  1  0.62486932  0.50734289  0.50217946  1
  O  O386  1  0.37566290  0.35970167  0.12718528  1
  O  O387  1  0.37497533  0.37796014  0.59885427  1
  O  O388  1  0.38655619  0.86753346  0.11205243  1
  O  O389  1  0.37440648  0.86933696  0.62370211  1
  O  O390  1  0.86234393  0.37800021  0.11798501  1
  O  O391  1  0.88166964  0.36127664  0.61277251  1
  O  O392  1  0.88532867  0.87740438  0.11772553  1
  O  O393  1  0.87156463  0.86945009  0.61782074  1
  O  O394  1  0.12876143  0.13090728  0.37903892  1
  O  O395  1  0.11414000  0.12211669  0.89368709  1
  O  O396  1  0.11773345  0.63127495  0.39414864  1
  O  O397  1  0.07942298  0.61544899  0.97588578  1
  O  O398  1  0.62151879  0.13663695  0.37105572  1
  O  O399  1  0.64514922  0.12372397  0.89406277  1
  O  O400  1  0.63716692  0.62553762  0.38272015  1
  O  O401  1  0.63542414  0.63868505  0.88471051  1
