# generated using pymatgen
data_V73Zn73O256
_symmetry_space_group_name_H-M   'P 1'
_cell_length_a   16.83053349
_cell_length_b   16.84380219
_cell_length_c   16.81495168
_cell_angle_alpha   90.08354000
_cell_angle_beta   90.20017171
_cell_angle_gamma   89.98768404
_symmetry_Int_Tables_number   1
_chemical_formula_structural   V73Zn73O256
_chemical_formula_sum   'V73 Zn73 O256'
_cell_volume   4766.83936214
_cell_formula_units_Z   1
loop_
 _symmetry_equiv_pos_site_id
 _symmetry_equiv_pos_as_xyz
  1  'x, y, z'
loop_
 _atom_site_type_symbol
 _atom_site_label
 _atom_site_symmetry_multiplicity
 _atom_site_fract_x
 _atom_site_fract_y
 _atom_site_fract_z
 _atom_site_occupancy
  V  V0  1  0.49278193  0.12857681  0.13851618  1
  V  V1  1  0.36995351  0.25690911  0.62176430  1
  V  V2  1  0.12900497  0.62192447  0.50910768  1
  V  V3  1  0.62898426  0.63741619  0.49647583  1
  V  V4  1  0.89729305  0.87707569  -0.00464742  1
  V  V5  1  0.51281809  0.49078203  0.49761333  1
  V  V6  1  0.00408564  0.87718781  0.84601590  1
  V  V7  1  0.11515079  0.13055496  -0.00275146  1
  V  V8  1  0.87343484  0.25748081  0.62102726  1
  V  V9  1  0.49733542  0.75087597  0.26260963  1
  V  V10  1  0.50066736  0.12371569  0.61902287  1
  V  V11  1  0.36895732  0.38569382  -0.00400506  1
  V  V12  1  0.24943574  0.62630570  0.88304885  1
  V  V13  1  0.24803243  0.24507522  -0.01310465  1
  V  V14  1  0.11179205  0.01049274  0.12516676  1
  V  V15  1  0.74483376  0.00288850  0.73160860  1
  V  V16  1  0.75002179  0.12698141  0.37135955  1
  V  V17  1  0.50374757  -0.00914560  0.49357176  1
  V  V18  1  0.17912758  0.43358474  0.69611240  1
  V  V19  1  0.36997562  0.75351981  0.61372749  1
  V  V20  1  0.50514444  0.24438246  0.75445817  1
  V  V21  1  0.87844296  0.63368493  0.74763757  1
  V  V22  1  0.50829785  0.62121203  0.63575463  1
  V  V23  1  0.11724127  0.61747778  0.01010260  1
  V  V24  1  0.35280279  0.38397857  0.49971284  1
  V  V25  1  0.25812737  0.13182412  0.37131223  1
  V  V26  1  0.61751422  0.87244222  0.26420071  1
  V  V27  1  0.36899088  0.75089783  0.12019905  1
  V  V28  1  0.49690010  0.87142821  0.89935818  1
  V  V29  1  0.37746994  -0.01928379  0.37759995  1
  V  V30  1  0.87561697  0.86184949  0.50282583  1
  V  V31  1  -0.00573411  0.49324406  0.50515702  1
  V  V32  1  0.13139319  0.12208645  0.50415740  1
  V  V33  1  0.13123462  0.76025887  0.38675552  1
  V  V34  1  0.74137534  0.25612507  -0.00971264  1
  V  V35  1  -0.00991241  0.75018745  0.24662146  1
  V  V36  1  -0.00024262  0.12604925  0.62617319  1
  V  V37  1  0.74822462  0.38472628  0.62179915  1
  V  V38  1  0.86493732  0.25072178  0.12240273  1
  V  V39  1  0.75253944  0.85743677  0.11637444  1
  V  V40  1  0.87086612  0.48798501  0.37554881  1
  V  V41  1  -0.01598641  0.61515183  0.12683173  1
  V  V42  1  0.60385105  0.48482064  0.12898249  1
  V  V43  1  0.89148795  0.50506589  0.88063347  1
  V  V44  1  0.61075848  0.87043762  0.74460373  1
  V  V45  1  0.62492426  0.62298939  0.01277851  1
  V  V46  1  0.49520901  0.38385557  0.87913360  1
  V  V47  1  0.00372658  0.26099972  0.76657514  1
  V  V48  1  0.25954275  0.61790948  0.37780955  1
  V  V49  1  0.11479277  0.25006937  0.37730000  1
  V  V50  1  0.74424591  0.50228259  0.76667762  1
  V  V51  1  0.88819151  0.37636992  -0.00595633  1
  V  V52  1  0.25688816  -0.00199775  0.24135538  1
  V  V53  1  0.87853111  0.12042848  0.24147426  1
  V  V54  1  0.75352894  0.10889883  0.87881224  1
  V  V55  1  0.36215946  0.61757372  0.74737409  1
  V  V56  1  0.62618566  0.37501468  0.75740848  1
  V  V57  1  0.12658025  0.87109142  0.24019070  1
  V  V58  1  0.37461251  0.61585400  0.24990274  1
  V  V59  1  0.23261877  0.38458599  0.14323249  1
  V  V60  1  0.62696302  0.13091217  0.49854969  1
  V  V61  1  0.74830976  0.84983653  0.62200880  1
  V  V62  1  0.63822447  0.74689368  0.88009750  1
  V  V63  1  0.23744264  0.89052675  0.62566366  1
  V  V64  1  0.74653479  0.49165453  0.24201020  1
  V  V65  1  0.75323786  0.63643815  0.37383965  1
  V  V66  1  0.87749587  -0.00311454  0.37662191  1
  V  V67  1  0.00282111  0.24962140  0.24029319  1
  V  V68  1  0.00017503  -0.00126643  0.50140305  1
  V  V69  1  0.34756413  0.87205453  -0.00182831  1
  V  V70  1  0.61460006  0.11951085  -0.00980878  1
  V  V71  1  0.61734463  -0.00792733  0.11916794  1
  V  V72  1  0.61903820  0.26001266  0.35805990  1
  Zn  Zn73  1  0.00147191  0.62462366  0.63061238  1
  Zn  Zn74  1  0.74866458  -0.00584885  0.24875857  1
  Zn  Zn75  1  0.04542106  0.41658468  0.31823566  1
  Zn  Zn76  1  0.75548101  0.26226369  0.49241238  1
  Zn  Zn77  1  0.49221370  0.37607396  0.36300854  1
  Zn  Zn78  1  0.12229673  0.75381592  0.88150237  1
  Zn  Zn79  1  0.35207173  0.04521527  0.83054119  1
  Zn  Zn80  1  0.37431739  0.24933099  0.13184088  1
  Zn  Zn81  1  0.87589231  0.12261341  0.75495771  1
  Zn  Zn82  1  0.19420556  0.19002491  0.18327199  1
  Zn  Zn83  1  0.16792499  0.23839372  0.67274660  1
  Zn  Zn84  1  0.19011841  0.68160773  0.18715434  1
  Zn  Zn85  1  0.19632019  0.70304995  0.69964101  1
  Zn  Zn86  1  0.68519624  0.18303915  0.18128373  1
  Zn  Zn87  1  0.68566726  0.19013268  0.68890104  1
  Zn  Zn88  1  0.68284902  0.68191888  0.19403896  1
  Zn  Zn89  1  0.68275186  0.67991172  0.69717908  1
  Zn  Zn90  1  0.30861206  0.31939737  0.31846549  1
  Zn  Zn91  1  0.32027128  0.29459328  0.81370692  1
  Zn  Zn92  1  0.30877189  0.80710325  0.31265936  1
  Zn  Zn93  1  0.31625598  0.79962858  0.80322117  1
  Zn  Zn94  1  0.81082442  0.31301134  0.30734713  1
  Zn  Zn95  1  0.81693164  0.30845712  0.81319471  1
  Zn  Zn96  1  0.80486860  0.81640718  0.31232829  1
  Zn  Zn97  1  0.81707605  0.82292591  0.81777815  1
  Zn  Zn98  1  0.17963510  0.45290002  0.41408723  1
  Zn  Zn99  1  0.19647364  0.44547853  0.92583389  1
  Zn  Zn100  1  0.19460600  0.93774179  0.44093437  1
  Zn  Zn101  1  0.16924195  0.94006257  0.93439432  1
  Zn  Zn102  1  0.68544889  0.44234371  0.43396546  1
  Zn  Zn103  1  0.67920601  0.44098162  0.94282180  1
  Zn  Zn104  1  0.69063748  0.93896341  0.44411023  1
  Zn  Zn105  1  0.68394312  0.93245735  0.93501916  1
  Zn  Zn106  1  0.33467244  0.07871858  0.01997902  1
  Zn  Zn107  1  0.31898109  0.06375224  0.56113087  1
  Zn  Zn108  1  0.31049836  0.56349049  0.06457759  1
  Zn  Zn109  1  0.30922943  0.55471822  0.57041265  1
  Zn  Zn110  1  0.80858397  0.05209657  0.06300387  1
  Zn  Zn111  1  0.81445524  0.06660899  0.56011182  1
  Zn  Zn112  1  0.80563605  0.56779532  0.05532553  1
  Zn  Zn113  1  0.81409280  0.56669575  0.56390512  1
  Zn  Zn114  1  0.42072330  0.43629939  0.18308759  1
  Zn  Zn115  1  0.43837560  0.43991971  0.68448199  1
  Zn  Zn116  1  0.43567586  0.93274044  0.17939367  1
  Zn  Zn117  1  0.39429812  0.92462581  0.69955406  1
  Zn  Zn118  1  0.92280890  0.43703593  0.18378933  1
  Zn  Zn119  1  0.93948142  0.44117881  0.69416647  1
  Zn  Zn120  1  0.93633615  0.92906522  0.18674703  1
  Zn  Zn121  1  0.92880356  0.94233573  0.68205220  1
  Zn  Zn122  1  0.06286043  0.06231905  0.31333600  1
  Zn  Zn123  1  0.04795559  0.07661914  0.82626097  1
  Zn  Zn124  1  0.06425118  0.57985304  0.31519393  1
  Zn  Zn125  1  0.06747894  0.56296598  0.81335538  1
  Zn  Zn126  1  0.56218492  0.06220236  0.31182650  1
  Zn  Zn127  1  0.52929620  0.03085555  0.78400150  1
  Zn  Zn128  1  0.56267275  0.56243361  0.31459550  1
  Zn  Zn129  1  0.54836261  0.57890810  0.84176142  1
  Zn  Zn130  1  0.43726833  0.20000439  0.43880826  1
  Zn  Zn131  1  0.43734170  0.19570852  0.93901818  1
  Zn  Zn132  1  0.44381468  0.68567449  0.44125720  1
  Zn  Zn133  1  0.44471381  0.69042879  0.93233220  1
  Zn  Zn134  1  0.93731705  0.18820633  0.43724901  1
  Zn  Zn135  1  0.93158123  0.17986011  0.94453014  1
  Zn  Zn136  1  0.94493852  0.68100876  0.42859381  1
  Zn  Zn137  1  0.93636881  0.69949820  0.93926428  1
  Zn  Zn138  1  0.06489358  0.31327111  0.06477806  1
  Zn  Zn139  1  0.06141743  0.31679521  0.56096217  1
  Zn  Zn140  1  0.06839870  0.80141533  0.06140679  1
  Zn  Zn141  1  0.07165174  0.82247994  0.56978932  1
  Zn  Zn142  1  0.55973683  0.30817544  0.06326002  1
  Zn  Zn143  1  0.56934202  0.30965813  0.56419138  1
  Zn  Zn144  1  0.55933411  0.79577109  0.07223364  1
  Zn  Zn145  1  0.55517362  0.80748549  0.56719917  1
  O  O146  1  0.12286826  0.11405814  0.13034762  1
  O  O147  1  0.11671945  0.14004210  0.60911899  1
  O  O148  1  0.12390267  0.62094348  0.11588036  1
  O  O149  1  0.13214843  0.63086755  0.60991116  1
  O  O150  1  0.61565310  0.11170708  0.11947491  1
  O  O151  1  0.61738808  0.13683709  0.60872206  1
  O  O152  1  0.61660361  0.62213914  0.11647099  1
  O  O153  1  0.61686886  0.62717931  0.61569732  1
  O  O154  1  0.37821626  0.36444135  0.39814113  1
  O  O155  1  0.38572418  0.36537368  0.88142114  1
  O  O156  1  0.37124469  0.88282048  0.38024239  1
  O  O157  1  0.38555977  0.85176829  0.89162813  1
  O  O158  1  0.86695875  0.38711858  0.37969012  1
  O  O159  1  0.87068580  0.38092592  0.88797239  1
  O  O160  1  0.86172398  0.88667404  0.39145033  1
  O  O161  1  0.89383812  0.87798806  0.88327847  1
  O  O162  1  0.26468377  0.00938170  0.37384718  1
  O  O163  1  0.24270728  -0.00660552  0.85367838  1
  O  O164  1  0.26826900  0.51924797  0.37925040  1
  O  O165  1  0.25055509  0.52772950  0.86372385  1
  O  O166  1  0.75840831  0.01009355  0.37423137  1
  O  O167  1  0.74447439  0.00619466  0.86774650  1
  O  O168  1  0.75646265  0.50546107  0.36938943  1
  O  O169  1  0.75423513  0.49445857  0.86936337  1
  O  O170  1  0.25520775  0.48219679  0.12126607  1
  O  O171  1  0.24275213  0.48323011  0.63536078  1
  O  O172  1  0.24429729  1.00296263  0.14307054  1
  O  O173  1  0.26348311  0.99237654  0.62511063  1
  O  O174  1  0.75184017  0.50758885  0.14061482  1
  O  O175  1  0.76188962  0.48614936  0.63998178  1
  O  O176  1  0.73139389  0.99335936  0.13035710  1
  O  O177  1  0.73867014  1.01068597  0.63036831  1
  O  O178  1  -0.01623701  0.35505282  0.24839004  1
  O  O179  1  -0.00392116  0.36092155  0.75159919  1
  O  O180  1  0.01580131  0.86483867  0.24912399  1
  O  O181  1  -0.01169301  0.87236065  0.74620227  1
  O  O182  1  0.45796674  0.34690575  0.24936704  1
  O  O183  1  0.50622626  0.36728199  0.75591744  1
  O  O184  1  0.50877152  0.86963658  0.24951536  1
  O  O185  1  0.51212199  0.87393864  0.73968267  1
  O  O186  1  0.49817957  0.12317442  0.23874044  1
  O  O187  1  0.52041065  0.13807418  0.73164129  1
  O  O188  1  0.48714291  0.63806213  0.26218712  1
  O  O189  1  0.50805002  0.61791994  0.73782007  1
  O  O190  1  0.98626990  0.13364338  0.25543668  1
  O  O191  1  0.99670013  0.12814027  0.73927881  1
  O  O192  1  1.00307230  0.63781226  0.23863010  1
  O  O193  1  0.98268688  0.61744475  0.75138399  1
  O  O194  1  0.35915712  0.25713987  0.00348210  1
  O  O195  1  0.37564898  0.26518365  0.51364765  1
  O  O196  1  0.38146859  0.74827700  0.01418340  1
  O  O197  1  0.36988013  0.73056639  0.51428190  1
  O  O198  1  0.86339210  0.25683904  0.00319804  1
  O  O199  1  0.87464894  0.24967672  0.51398349  1
  O  O200  1  0.87356363  0.77479115  0.00010333  1
  O  O201  1  0.88676954  0.76431424  0.49246083  1
  O  O202  1  0.11373514  0.23496155  0.48662173  1
  O  O203  1  0.13465625  0.24264732  1.00615988  1
  O  O204  1  0.11421818  0.74432805  0.49142881  1
  O  O205  1  0.12883057  0.72919192  0.99897974  1
  O  O206  1  0.63306872  0.24401547  0.48764969  1
  O  O207  1  0.63664419  0.23410425  1.00698667  1
  O  O208  1  0.61965020  0.73687688  0.49826502  1
  O  O209  1  0.62127240  0.73497215  0.99296525  1
  O  O210  1  0.49858974  0.23256885  0.12173584  1
  O  O211  1  0.49626350  0.24591727  0.63094183  1
  O  O212  1  0.48381287  0.74901537  0.14311162  1
  O  O213  1  0.49197583  0.72671435  0.61704655  1
  O  O214  1  0.98837286  0.24786646  0.13527325  1
  O  O215  1  0.98966815  0.24636576  0.62947364  1
  O  O216  1  1.00474083  0.74315886  0.14067412  1
  O  O217  1  1.03411778  0.74434496  0.65620211  1
  O  O218  1  0.00722137  0.24387319  0.36360290  1
  O  O219  1  -0.01751352  0.24312288  0.86394859  1
  O  O220  1  0.02126194  0.73755028  0.35718279  1
  O  O221  1  0.00353637  0.76661123  0.87417010  1
  O  O222  1  0.51580038  0.25296575  0.37523645  1
  O  O223  1  0.49910484  0.25069697  0.85804305  1
  O  O224  1  0.49214344  0.75743883  0.36349865  1
  O  O225  1  0.51752398  0.76397590  0.87472349  1
  O  O226  1  0.23779540  0.12059809  0.48971203  1
  O  O227  1  0.23720813  0.14247283  1.01716085  1
  O  O228  1  0.23921188  0.61796908  0.49431748  1
  O  O229  1  0.24916232  0.62926007  0.98781733  1
  O  O230  1  0.74347046  0.12591087  0.48772215  1
  O  O231  1  0.74360249  0.12475454  0.98991645  1
  O  O232  1  0.73663339  0.61876694  0.49542201  1
  O  O233  1  0.72496937  0.61533575  0.99038779  1
  O  O234  1  0.25514264  0.36680687  -0.00845418  1
  O  O235  1  0.25405033  0.39060903  0.49198561  1
  O  O236  1  0.24898784  0.86571229  -0.01509730  1
  O  O237  1  0.24635428  0.87835967  0.52111515  1
  O  O238  1  0.74623057  0.35769110  -0.00732797  1
  O  O239  1  0.74434161  0.37995727  0.51801522  1
  O  O240  1  0.73817974  0.87338137  0.01644705  1
  O  O241  1  0.75627980  0.87433093  0.51346755  1
  O  O242  1  0.12896470  0.48887639  0.30922338  1
  O  O243  1  0.10871678  0.50166407  0.72476316  1
  O  O244  1  0.13055647  0.99193693  0.24708632  1
  O  O245  1  0.19686887  1.02905537  0.78838377  1
  O  O246  1  0.63197488  0.50565172  0.23801395  1
  O  O247  1  0.63899830  0.49034904  0.75878700  1
  O  O248  1  0.62151214  0.98720236  0.24217507  1
  O  O249  1  0.63344158  0.98118867  0.75145755  1
  O  O250  1  0.36506355  -0.01001990  0.26000548  1
  O  O251  1  0.41783419  0.02121092  0.74552807  1
  O  O252  1  0.38158061  0.51715039  0.25493085  1
  O  O253  1  0.38792321  0.51845803  0.75030169  1
  O  O254  1  0.87580591  0.00309759  0.25913086  1
  O  O255  1  0.85105725  0.00683279  0.74136093  1
  O  O256  1  0.86224416  0.49961436  0.26372642  1
  O  O257  1  0.86667921  0.50062271  0.76743847  1
  O  O258  1  0.12580755  0.35043283  0.38315029  1
  O  O259  1  0.18081548  0.39123020  0.80951015  1
  O  O260  1  0.12766603  0.86558357  0.37296144  1
  O  O261  1  0.11272377  0.86960958  0.86583360  1
  O  O262  1  0.62659068  0.36278985  0.37292423  1
  O  O263  1  0.61030834  0.37492970  0.87042480  1
  O  O264  1  0.63087971  0.87999156  0.36274246  1
  O  O265  1  0.61433746  0.86922568  0.86558190  1
  O  O266  1  0.38990946  0.12027440  0.11645193  1
  O  O267  1  0.39443451  0.14001410  0.60999977  1
  O  O268  1  0.36970528  0.63137022  0.14167455  1
  O  O269  1  0.38447046  0.62392390  0.63090437  1
  O  O270  1  0.86701493  0.12923501  0.13363238  1
  O  O271  1  0.88257969  0.13705666  0.62453304  1
  O  O272  1  0.88504244  0.62764351  0.11496020  1
  O  O273  1  0.87554523  0.62609642  0.64146354  1
  O  O274  1  0.25474233  0.26696254  0.12475116  1
  O  O275  1  0.27311803  0.23495326  0.63813193  1
  O  O276  1  0.26807878  0.74787817  0.13342019  1
  O  O277  1  0.26222929  0.76704778  0.62886086  1
  O  O278  1  0.75758309  0.24076979  0.10941624  1
  O  O279  1  0.76134969  0.25680822  0.62664613  1
  O  O280  1  0.74012160  0.75850129  0.13016204  1
  O  O281  1  0.75264048  0.75209050  0.62860432  1
  O  O282  1  0.23382272  0.23632705  0.36162532  1
  O  O283  1  0.24821976  0.24260329  0.88615548  1
  O  O284  1  0.23670479  0.74696378  0.37836038  1
  O  O285  1  0.22687277  0.72920309  0.83074107  1
  O  O286  1  0.74554584  0.24219218  0.37403782  1
  O  O287  1  0.75074806  0.23603493  0.88537289  1
  O  O288  1  0.75156516  0.73652224  0.37424161  1
  O  O289  1  0.73527174  0.77532356  0.88349259  1
  O  O290  1  0.01415265  0.13586771  0.00889951  1
  O  O291  1  0.00601123  0.11864110  0.50555294  1
  O  O292  1  0.00700511  0.62755661  0.01425917  1
  O  O293  1  0.01015151  0.62170448  0.50524173  1
  O  O294  1  0.51389861  0.12908957  0.00288198  1
  O  O295  1  0.50996836  0.13022536  0.50271081  1
  O  O296  1  0.52841690  0.61237571  -0.04015313  1
  O  O297  1  0.51326530  0.61265566  0.50045104  1
  O  O298  1  0.50539607  0.38594101  0.50546993  1
  O  O299  1  0.48795772  0.36352933  0.98661757  1
  O  O300  1  0.51475981  0.89322329  0.50070406  1
  O  O301  1  0.50382104  0.87110685  1.00022388  1
  O  O302  1  1.00715989  0.39296741  0.49660259  1
  O  O303  1  0.98702622  0.36726824  0.99852579  1
  O  O304  1  0.98626851  0.88577746  0.51476286  1
  O  O305  1  0.99860466  0.87876800  1.01110508  1
  O  O306  1  0.50508702  0.49205535  0.38841573  1
  O  O307  1  0.49487848  0.48187361  0.87033861  1
  O  O308  1  0.48618476  1.00459500  0.37925833  1
  O  O309  1  0.50049482  0.97163842  0.87798567  1
  O  O310  1  0.98115284  0.50524275  0.37900337  1
  O  O311  1  0.98981212  0.49472007  0.87526940  1
  O  O312  1  0.98810240  1.00565200  0.38587833  1
  O  O313  1  1.00897053  0.98095746  0.86472891  1
  O  O314  1  0.01325519  -0.00138185  0.13411448  1
  O  O315  1  -0.00741395  0.01499759  0.61515536  1
  O  O316  1  -0.00656776  0.51477848  0.13805883  1
  O  O317  1  -0.01199585  0.50348719  0.60953660  1
  O  O318  1  0.51059815  0.00651389  0.12680027  1
  O  O319  1  0.50039201  0.01940286  0.60378025  1
  O  O320  1  0.50487152  0.49739603  0.13463398  1
  O  O321  1  0.49897515  0.51191893  0.61237715  1
  O  O322  1  0.24871935  0.37930365  0.24373187  1
  O  O323  1  0.25519338  0.38312388  0.76675359  1
  O  O324  1  0.23790233  0.88898704  0.25984825  1
  O  O325  1  0.28818748  0.88253102  0.72858204  1
  O  O326  1  0.74816716  0.39076082  0.24971926  1
  O  O327  1  0.74509648  0.38060591  0.74998199  1
  O  O328  1  0.73355347  0.87316664  0.23989603  1
  O  O329  1  0.75195121  0.88567903  0.73289956  1
  O  O330  1  0.24391566  0.11060759  0.26338477  1
  O  O331  1  0.23699091  0.08304265  0.75309623  1
  O  O332  1  0.26136656  0.62985755  0.26445353  1
  O  O333  1  0.26097690  0.61327780  0.73560692  1
  O  O334  1  0.75852096  0.12126610  0.25728557  1
  O  O335  1  0.73749237  0.11531053  0.76220076  1
  O  O336  1  0.74119491  0.61573218  0.26802655  1
  O  O337  1  0.75874012  0.60574696  0.74655727  1
  O  O338  1  0.35927737  0.13544582  0.38015121  1
  O  O339  1  0.36459031  0.11531034  0.91315897  1
  O  O340  1  0.36487580  0.64033025  0.36670281  1
  O  O341  1  0.36049032  0.64307739  0.86082534  1
  O  O342  1  0.86751528  0.11924543  0.36850718  1
  O  O343  1  0.85765624  0.11984717  0.87591772  1
  O  O344  1  0.85820427  0.61724195  0.38379531  1
  O  O345  1  0.88017903  0.61018348  0.87637641  1
  O  O346  1  0.13161606  0.37721773  0.12974218  1
  O  O347  1  0.13913618  0.35308106  0.63773200  1
  O  O348  1  0.12871779  0.88437382  0.13694995  1
  O  O349  1  0.13618378  0.88659751  0.63899470  1
  O  O350  1  0.61686673  0.38484939  0.12519893  1
  O  O351  1  0.64121349  0.37045880  0.63895403  1
  O  O352  1  0.62525037  0.88241293  0.12890520  1
  O  O353  1  0.63738097  0.86445497  0.63273421  1
  O  O354  1  0.10783761  0.23999647  0.25513672  1
  O  O355  1  0.10403407  0.23846490  0.76289980  1
  O  O356  1  0.13050393  0.76393906  0.25426482  1
  O  O357  1  0.08538286  0.74395489  0.71754508  1
  O  O358  1  0.63111989  0.24738306  0.25855714  1
  O  O359  1  0.61611968  0.26228926  0.74771221  1
  O  O360  1  0.60937512  0.76053954  0.24718271  1
  O  O361  1  0.63495256  0.76607011  0.75893961  1
  O  O362  1  0.39985813  0.28384543  0.24939058  1
  O  O363  1  0.39505920  0.25162108  0.73714163  1
  O  O364  1  0.38260611  0.75133777  0.24429282  1
  O  O365  1  0.38061966  0.72851331  0.73112797  1
  O  O366  1  0.87703791  0.24088401  0.24127928  1
  O  O367  1  0.88017766  0.24282173  0.73901361  1
  O  O368  1  0.89219736  0.76227350  0.25968466  1
  O  O369  1  0.86251594  0.73064610  0.76495441  1
  O  O370  1  0.38499451  0.48542512  0.50815568  1
  O  O371  1  0.36801064  0.48526471  0.99392256  1
  O  O372  1  0.38960972  1.00531830  0.48576584  1
  O  O373  1  0.36402464  0.97059218  1.00107403  1
  O  O374  1  0.88336571  0.50527629  0.49035795  1
  O  O375  1  0.86890166  0.48611697  0.99238657  1
  O  O376  1  0.88149917  0.99751050  0.49407990  1
  O  O377  1  0.86661348  0.97753526  1.00475521  1
  O  O378  1  0.13305430  0.01320175  0.01830469  1
  O  O379  1  0.11437688  0.01326142  0.49196571  1
  O  O380  1  0.13021106  0.51666081  -0.01120844  1
  O  O381  1  0.10933362  0.51515044  0.49087383  1
  O  O382  1  0.62678314  0.00792311  0.01056231  1
  O  O383  1  0.61193657  0.01700611  0.48375542  1
  O  O384  1  0.62507271  0.50360474  0.02125970  1
  O  O385  1  0.61663024  0.50453523  0.50456742  1
  O  O386  1  0.36863600  0.37159126  0.10420087  1
  O  O387  1  0.37467682  0.36581290  0.61905038  1
  O  O388  1  0.37178261  0.86317229  0.11124004  1
  O  O389  1  0.39966313  0.85192879  0.61252016  1
  O  O390  1  0.87140021  0.36310321  0.10882941  1
  O  O391  1  0.86486188  0.36420209  0.63346884  1
  O  O392  1  0.85743843  0.87536414  0.12322330  1
  O  O393  1  0.86019809  0.87525744  0.61291931  1
  O  O394  1  0.13111372  0.12934204  0.38356101  1
  O  O395  1  0.12507484  0.11845449  0.89757443  1
  O  O396  1  0.14083369  0.63866204  0.38451406  1
  O  O397  1  0.13002274  0.62861166  0.88378536  1
  O  O398  1  0.63285963  0.13448935  0.37592908  1
  O  O399  1  0.63059836  0.11765534  0.88932576  1
  O  O400  1  0.63465734  0.62004988  0.38831848  1
  O  O401  1  0.64014799  0.64754913  0.85454608  1
