# generated using pymatgen
data_V73Zn73O256
_symmetry_space_group_name_H-M   'P 1'
_cell_length_a   16.86476488
_cell_length_b   16.85450371
_cell_length_c   16.86695265
_cell_angle_alpha   90.00445834
_cell_angle_beta   89.99663973
_cell_angle_gamma   90.10112854
_symmetry_Int_Tables_number   1
_chemical_formula_structural   V73Zn73O256
_chemical_formula_sum   'V73 Zn73 O256'
_cell_volume   4794.37728491
_cell_formula_units_Z   1
loop_
 _symmetry_equiv_pos_site_id
 _symmetry_equiv_pos_as_xyz
  1  'x, y, z'
loop_
 _atom_site_type_symbol
 _atom_site_label
 _atom_site_symmetry_multiplicity
 _atom_site_fract_x
 _atom_site_fract_y
 _atom_site_fract_z
 _atom_site_occupancy
  V  V0  1  0.14047976  -0.00373804  0.12323130  1
  V  V1  1  -0.00473459  0.37132854  0.38465593  1
  V  V2  1  0.76058273  0.11588038  0.37267494  1
  V  V3  1  0.63873890  0.25642787  0.85383826  1
  V  V4  1  0.61402980  0.00381854  0.64040811  1
  V  V5  1  0.87752057  0.62645173  0.73563512  1
  V  V6  1  0.22954015  0.14913240  0.87476656  1
  V  V7  1  -0.00507757  0.87538990  0.37401895  1
  V  V8  1  0.77677683  0.37225486  0.61910038  1
  V  V9  1  0.63016148  0.49340734  0.12236550  1
  V  V10  1  0.48823077  0.91061503  0.87305893  1
  V  V11  1  0.27601636  0.48419072  0.23123715  1
  V  V12  1  0.87026860  0.74251134  0.12224395  1
  V  V13  1  0.62506310  0.48923566  0.62459892  1
  V  V14  1  0.50845847  0.87737109  0.35129258  1
  V  V15  1  0.02115421  0.51233344  0.50514496  1
  V  V16  1  0.87856274  0.62456399  0.24913070  1
  V  V17  1  0.61849079  0.25358690  0.38292859  1
  V  V18  1  -0.00144638  0.14243639  0.63163861  1
  V  V19  1  0.75187439  0.49543313  0.24751555  1
  V  V20  1  0.37328063  0.13320180  0.75841402  1
  V  V21  1  0.12212247  0.87344318  0.75728992  1
  V  V22  1  -0.00356183  0.75033053  0.73978018  1
  V  V23  1  0.24798741  0.86982752  0.61729718  1
  V  V24  1  0.75206763  0.63233695  0.37536527  1
  V  V25  1  0.49777289  0.62921175  0.64136151  1
  V  V26  1  0.39094078  0.64429002  0.23698588  1
  V  V27  1  0.74594354  0.24740811  0.00963211  1
  V  V28  1  0.75019335  0.88553166  0.64080063  1
  V  V29  1  0.11833712  0.13464398  0.00357332  1
  V  V30  1  0.49133614  0.48065407  0.00611441  1
  V  V31  1  0.13024428  0.24227292  0.36896245  1
  V  V32  1  0.00322907  0.74620893  0.24176357  1
  V  V33  1  0.89037779  0.49858592  0.87881513  1
  V  V34  1  0.75762209  0.75064910  0.51094339  1
  V  V35  1  0.87368120  0.37172270  0.01068001  1
  V  V36  1  0.60800397  0.11967626  0.50611844  1
  V  V37  1  -0.01929969  0.11330477  0.12577038  1
  V  V38  1  0.60111333  0.75468822  0.86464142  1
  V  V39  1  0.87682502  0.49605635  0.38510469  1
  V  V40  1  0.50418016  0.36285902  0.84785565  1
  V  V41  1  0.36808548  0.90892913  0.00413095  1
  V  V42  1  0.12967539  0.74473109  0.38445191  1
  V  V43  1  0.10306994  0.51404461  0.12682728  1
  V  V44  1  0.36497050  0.11870066  0.23944301  1
  V  V45  1  0.74956260  0.49180609  0.74834977  1
  V  V46  1  0.11862486  0.37904184  0.24219196  1
  V  V47  1  0.74538422  0.62034398  0.87582386  1
  V  V48  1  0.38298547  0.49615106  0.37557555  1
  V  V49  1  0.24453502  0.00074167  0.76261747  1
  V  V50  1  0.86969426  0.13084912  0.75437744  1
  V  V51  1  0.25537290  0.62938070  0.37798499  1
  V  V52  1  0.26530744  0.73804417  0.00484196  1
  V  V53  1  0.75325236  0.74304406  -0.00325960  1
  V  V54  1  -0.01615103  0.24380442  0.24209265  1
  V  V55  1  0.37715860  0.24486251  0.63234464  1
  V  V56  1  0.01187300  0.35683191  0.86694800  1
  V  V57  1  0.62315739  0.37510776  0.25680376  1
  V  V58  1  0.37206827  0.37551564  0.50834192  1
  V  V59  1  0.36825502  0.48761009  0.85668746  1
  V  V60  1  0.00099464  0.87636157  0.88327623  1
  V  V61  1  0.11414638  0.62861750  -0.00290205  1
  V  V62  1  0.60394786  0.63452820  0.01425349  1
  V  V63  1  0.24535019  0.24467646  0.49933065  1
  V  V64  1  0.87454610  0.87602571  0.50316349  1
  V  V65  1  0.39765757  0.87698314  0.50479008  1
  V  V66  1  0.13751736  0.87620242  0.24411371  1
  V  V67  1  0.87269655  0.88119757  0.00238186  1
  V  V68  1  0.00469795  0.00288086  0.50285588  1
  V  V69  1  0.76772249  0.24914498  0.50199735  1
  V  V70  1  0.49924092  0.24291327  0.24531418  1
  V  V71  1  0.62066985  0.01337394  0.13875336  1
  V  V72  1  0.62015744  0.62752689  0.49978031  1
  Zn  Zn73  1  0.37594249  0.00277193  0.37967067  1
  Zn  Zn74  1  0.24666466  0.10948057  0.36891368  1
  Zn  Zn75  1  0.75428148  0.00136178  0.24278647  1
  Zn  Zn76  1  0.50311809  0.13209902  0.09396898  1
  Zn  Zn77  1  0.37674782  0.74863343  0.63040770  1
  Zn  Zn78  1  0.12626772  0.00468423  0.62118275  1
  Zn  Zn79  1  0.85764897  -0.00008749  0.86561883  1
  Zn  Zn80  1  0.62248196  0.75702034  0.37373700  1
  Zn  Zn81  1  0.50918224  0.48835514  0.49567741  1
  Zn  Zn82  1  0.18082759  0.18754599  0.18269058  1
  Zn  Zn83  1  0.19354484  0.17320503  0.66703766  1
  Zn  Zn84  1  0.20240264  0.68531274  0.18343546  1
  Zn  Zn85  1  0.20343056  0.69968373  0.72354458  1
  Zn  Zn86  1  0.68845078  0.18524894  0.18752558  1
  Zn  Zn87  1  0.69250808  0.18820600  0.68083132  1
  Zn  Zn88  1  0.64162110  0.71726191  0.15848991  1
  Zn  Zn89  1  0.68718703  0.68549388  0.68716530  1
  Zn  Zn90  1  0.31466880  0.31903361  0.28832164  1
  Zn  Zn91  1  0.29130105  0.33478858  0.83114316  1
  Zn  Zn92  1  0.32001396  0.81673651  0.31684874  1
  Zn  Zn93  1  0.31345697  0.82461644  0.83405035  1
  Zn  Zn94  1  0.80848579  0.31037465  0.31663804  1
  Zn  Zn95  1  0.82232750  0.31125138  0.81004214  1
  Zn  Zn96  1  0.81387345  0.83031795  0.30032805  1
  Zn  Zn97  1  0.81775678  0.80991109  0.81359775  1
  Zn  Zn98  1  0.19377962  0.43326305  0.42242361  1
  Zn  Zn99  1  0.16913973  0.47554123  0.91888720  1
  Zn  Zn100  1  0.18728824  0.93664754  0.43182487  1
  Zn  Zn101  1  0.18727210  0.93685210  0.94660937  1
  Zn  Zn102  1  0.69302701  0.43690957  0.43947512  1
  Zn  Zn103  1  0.68643125  0.43144377  0.93773210  1
  Zn  Zn104  1  0.68205599  0.93884758  0.44506221  1
  Zn  Zn105  1  0.68130337  0.92119000  0.93473736  1
  Zn  Zn106  1  0.35094339  0.12596510  0.01814291  1
  Zn  Zn107  1  0.31242594  0.05725341  0.56427882  1
  Zn  Zn108  1  0.31448285  0.56244609  0.06200427  1
  Zn  Zn109  1  0.31278469  0.56934936  0.56244830  1
  Zn  Zn110  1  0.79427720  0.06308848  0.05113442  1
  Zn  Zn111  1  0.81750690  0.06206823  0.56414219  1
  Zn  Zn112  1  0.81323886  0.55932365  0.06158930  1
  Zn  Zn113  1  0.81319460  0.55934431  0.55872595  1
  Zn  Zn114  1  0.44999819  0.44218498  0.19350696  1
  Zn  Zn115  1  0.43748440  0.44058962  0.67993362  1
  Zn  Zn116  1  0.43744811  0.94488630  0.17855729  1
  Zn  Zn117  1  0.42989874  0.94587670  0.69343322  1
  Zn  Zn118  1  0.93685210  0.43569488  0.19292693  1
  Zn  Zn119  1  0.95375933  0.43911273  0.68775264  1
  Zn  Zn120  1  0.93113149  0.93332517  0.18895682  1
  Zn  Zn121  1  0.93146213  0.94199323  0.68734404  1
  Zn  Zn122  1  0.05634248  0.05753336  0.30797542  1
  Zn  Zn123  1  0.05115406  0.06102629  0.81483531  1
  Zn  Zn124  1  0.06323321  0.56154859  0.31834158  1
  Zn  Zn125  1  0.07035035  0.57867616  0.80865966  1
  Zn  Zn126  1  0.56501188  0.05957175  0.31973126  1
  Zn  Zn127  1  0.69210814  0.06992677  0.82424032  1
  Zn  Zn128  1  0.56329475  0.56934302  0.30973326  1
  Zn  Zn129  1  0.56216305  0.55000257  0.81919859  1
  Zn  Zn130  1  0.43162092  0.18796657  0.43044519  1
  Zn  Zn131  1  0.50974351  0.12951238  0.89576609  1
  Zn  Zn132  1  0.43597895  0.70126201  0.43767692  1
  Zn  Zn133  1  0.42400488  0.66993752  0.92863505  1
  Zn  Zn134  1  0.94288490  0.18249109  0.43436498  1
  Zn  Zn135  1  0.93416751  0.18932326  0.93793284  1
  Zn  Zn136  1  0.94048779  0.68896818  0.44058084  1
  Zn  Zn137  1  0.93847921  0.68845912  0.92721975  1
  Zn  Zn138  1  0.05256814  0.31843960  0.05829787  1
  Zn  Zn139  1  0.06858927  0.31710575  0.56260295  1
  Zn  Zn140  1  0.06761809  0.80538591  0.06302392  1
  Zn  Zn141  1  0.06549558  0.81427485  0.56440234  1
  Zn  Zn142  1  0.57222569  0.30904171  0.06293504  1
  Zn  Zn143  1  0.55606070  0.30567604  0.56216139  1
  Zn  Zn144  1  0.47116524  0.78683889  0.06383099  1
  Zn  Zn145  1  0.57316913  0.80969914  0.57424698  1
  O  O146  1  0.11912548  0.11213687  0.12014069  1
  O  O147  1  0.10609926  0.12110072  0.62146312  1
  O  O148  1  0.12077783  0.61974167  0.12012448  1
  O  O149  1  0.14989733  0.59522268  0.71649360  1
  O  O150  1  0.62192355  0.11900793  0.11782320  1
  O  O151  1  0.62779852  0.11897562  0.61472190  1
  O  O152  1  0.63830468  0.60426994  0.11788702  1
  O  O153  1  0.62033430  0.61547275  0.61856291  1
  O  O154  1  0.37422256  0.39395139  0.37019832  1
  O  O155  1  0.39659032  0.37031809  0.86737557  1
  O  O156  1  0.39082287  0.87306597  0.38992486  1
  O  O157  1  0.37509734  0.90552774  0.88638355  1
  O  O158  1  0.88290108  0.38467003  0.36982362  1
  O  O159  1  0.88547274  0.38887326  0.87334008  1
  O  O160  1  0.88949829  0.85647879  0.38885260  1
  O  O161  1  0.88178461  0.87508282  0.88626386  1
  O  O162  1  0.25836265  -0.00301830  0.37383753  1
  O  O163  1  0.23804406  0.00642610  0.86376548  1
  O  O164  1  0.26406247  0.51112053  0.36001357  1
  O  O165  1  0.27178793  0.44915535  0.87968939  1
  O  O166  1  0.74395502  0.01498214  0.38192407  1
  O  O167  1  0.74590301  0.00225703  0.89533615  1
  O  O168  1  0.75909447  0.50848562  0.37296366  1
  O  O169  1  0.75582478  0.50232007  0.86384031  1
  O  O170  1  0.23790024  0.50829989  0.14007610  1
  O  O171  1  0.22015338  0.52362212  0.62353646  1
  O  O172  1  0.23531194  0.99883153  0.13320897  1
  O  O173  1  0.24319825  0.99085650  0.63655359  1
  O  O174  1  0.74972908  0.50000575  0.14068849  1
  O  O175  1  0.74764823  0.48638435  0.62512280  1
  O  O176  1  0.73212465  1.00880206  0.12606512  1
  O  O177  1  0.74598428  0.98930468  0.62063592  1
  O  O178  1  0.00184991  0.36206109  0.25791475  1
  O  O179  1  0.00157757  0.37618167  0.76579535  1
  O  O180  1  0.00431588  0.86244127  0.25787992  1
  O  O181  1  0.00200053  0.86816794  0.75519629  1
  O  O182  1  0.51543295  0.36547160  0.25226687  1
  O  O183  1  0.50590892  0.37737414  0.74840292  1
  O  O184  1  0.49814067  0.87364355  0.25204890  1
  O  O185  1  0.47711656  0.88176750  0.77451260  1
  O  O186  1  0.50153550  0.13914128  0.25685934  1
  O  O187  1  0.46909035  0.12967238  0.77257867  1
  O  O188  1  0.49317197  0.63719756  0.25346868  1
  O  O189  1  0.50449637  0.61155011  0.73938248  1
  O  O190  1  0.99831296  0.13435478  0.24091957  1
  O  O191  1  0.99802047  0.12771101  0.73666583  1
  O  O192  1  0.98774068  0.63350200  0.26160411  1
  O  O193  1  0.98909742  0.63726737  0.75311063  1
  O  O194  1  0.31960103  0.28589899  0.02316065  1
  O  O195  1  0.36651642  0.25722440  0.50574590  1
  O  O196  1  0.37333095  0.73674053  0.00647690  1
  O  O197  1  0.37672438  0.77034039  0.51089399  1
  O  O198  1  0.86487505  0.26497902  -0.00655202  1
  O  O199  1  0.86592316  0.25023764  0.49364641  1
  O  O200  1  0.87066445  0.74165067  0.00659091  1
  O  O201  1  0.86666152  0.75388332  0.50400477  1
  O  O202  1  0.13674680  0.25711039  0.48369402  1
  O  O203  1  0.12339981  0.23382468  1.01779828  1
  O  O204  1  0.12161893  0.75219016  0.48305688  1
  O  O205  1  0.12844254  0.73277832  0.99772819  1
  O  O206  1  0.62929976  0.24163362  0.49914215  1
  O  O207  1  0.64187424  0.26139933  0.98759953  1
  O  O208  1  0.63828630  0.74199460  0.49892510  1
  O  O209  1  0.64151087  0.73875676  0.96968353  1
  O  O210  1  0.51311890  0.24863606  0.14225591  1
  O  O211  1  0.47662834  0.25088071  0.62688666  1
  O  O212  1  0.55468672  0.71612016  0.08450714  1
  O  O213  1  0.50749532  0.73360141  0.63280391  1
  O  O214  1  0.99912274  0.24122699  0.13817946  1
  O  O215  1  1.00117636  0.24131976  0.61530896  1
  O  O216  1  0.99076539  0.74886817  0.13524328  1
  O  O217  1  0.99941022  0.75746018  0.63956847  1
  O  O218  1  0.00778098  0.25148436  0.36717768  1
  O  O219  1  0.00667919  0.25630499  0.87543438  1
  O  O220  1  0.01318077  0.75283787  0.36636061  1
  O  O221  1  -0.00976591  0.76557168  0.85851151  1
  O  O222  1  0.51383462  0.24937656  0.36999027  1
  O  O223  1  0.51776649  0.26164117  0.86390748  1
  O  O224  1  0.50509861  0.76942164  0.37721704  1
  O  O225  1  0.50409221  0.72965931  0.86932421  1
  O  O226  1  0.25802333  0.14122727  0.49120176  1
  O  O227  1  0.23748392  0.13197796  0.98262281  1
  O  O228  1  0.25249262  0.61895703  0.47761934  1
  O  O229  1  0.24421338  0.63239674  1.00630697  1
  O  O230  1  0.74871878  0.13857640  0.49884371  1
  O  O231  1  0.76191167  0.14907718  0.98754901  1
  O  O232  1  0.74515956  0.63088502  0.49690426  1
  O  O233  1  0.74358628  0.62437671  0.99155411  1
  O  O234  1  0.26226394  0.30183578  0.06965909  1
  O  O235  1  0.26427697  0.36045552  0.48344988  1
  O  O236  1  0.26775230  0.87371636  0.00033715  1
  O  O237  1  0.24193623  0.87376650  0.51723183  1
  O  O238  1  0.76572200  0.37305458  -0.00304243  1
  O  O239  1  0.75234456  0.36475203  0.50948941  1
  O  O240  1  0.76671622  0.85544180  -0.01173019  1
  O  O241  1  0.75853741  0.86690829  0.50012575  1
  O  O242  1  0.11995788  0.49644774  0.24072997  1
  O  O243  1  0.21194671  0.53439792  0.70000158  1
  O  O244  1  0.11957838  0.98326503  0.24431590  1
  O  O245  1  0.12746619  0.98957012  0.74942434  1
  O  O246  1  0.63146822  0.49543102  0.24762710  1
  O  O247  1  0.64218513  0.50505304  0.73927060  1
  O  O248  1  0.63212042  1.00198351  0.24336552  1
  O  O249  1  0.63272288  1.01398803  0.73737702  1
  O  O250  1  0.37719095  0.01644660  0.24678898  1
  O  O251  1  0.35128931  0.02112931  0.74539900  1
  O  O252  1  0.38350929  0.52187041  0.26663625  1
  O  O253  1  0.36917083  0.49191907  0.75573420  1
  O  O254  1  0.84227504  -0.06480723  0.25660602  1
  O  O255  1  0.87750183  0.01497485  0.75091724  1
  O  O256  1  0.87110133  0.50570337  0.26014108  1
  O  O257  1  0.87156323  0.50925971  0.75547386  1
  O  O258  1  0.11117108  0.36483788  0.36440466  1
  O  O259  1  0.10804487  0.38452217  0.88654340  1
  O  O260  1  0.11914702  0.86182560  0.36312104  1
  O  O261  1  0.11132171  0.87983557  0.87175318  1
  O  O262  1  0.63042245  0.36667259  0.37219025  1
  O  O263  1  0.61417128  0.37309424  0.86979329  1
  O  O264  1  0.61282460  0.87834898  0.37754028  1
  O  O265  1  0.59966604  0.86174608  0.87665607  1
  O  O266  1  0.38131487  0.13364675  0.13937286  1
  O  O267  1  0.36122404  0.13682532  0.63806671  1
  O  O268  1  0.37951933  0.62015718  0.13907262  1
  O  O269  1  0.39278419  0.62688863  0.61891703  1
  O  O270  1  0.88275287  0.11635721  0.11830914  1
  O  O271  1  0.89033275  0.12035069  0.63266886  1
  O  O272  1  0.87021966  0.63005941  0.13720743  1
  O  O273  1  0.87276936  0.61911602  0.63699532  1
  O  O274  1  0.26418236  0.26119309  0.14214454  1
  O  O275  1  0.25067693  0.25006095  0.60553169  1
  O  O276  1  0.23975120  0.75870142  0.10427029  1
  O  O277  1  0.25093904  0.76648469  0.63857810  1
  O  O278  1  0.74363904  0.25061227  0.11130643  1
  O  O279  1  0.75439164  0.26339960  0.61361162  1
  O  O280  1  0.75538038  0.74044245  0.10672616  1
  O  O281  1  0.73953214  0.76498672  0.61775818  1
  O  O282  1  0.23643675  0.25170641  0.37116825  1
  O  O283  1  0.22183383  0.24731510  0.86221187  1
  O  O284  1  0.24018534  0.74210805  0.36938444  1
  O  O285  1  0.24995526  0.75863129  0.90145638  1
  O  O286  1  0.74207449  0.24474817  0.38910935  1
  O  O287  1  0.74139071  0.26593593  0.87725776  1
  O  O288  1  0.75511998  0.73939969  0.38546911  1
  O  O289  1  0.76455889  0.73092466  0.88029630  1
  O  O290  1  0.00694010  0.12843135  0.01590057  1
  O  O291  1  -0.00802796  0.10805267  0.50702066  1
  O  O292  1  0.01354439  0.62744467  -0.00937954  1
  O  O293  1  0.00774589  0.61249750  0.49113164  1
  O  O294  1  0.45806367  0.15391560  -0.00792049  1
  O  O295  1  0.50906235  0.13104495  0.49888121  1
  O  O296  1  0.50829838  0.60146553  -0.01421132  1
  O  O297  1  0.51482599  0.63044170  0.50123957  1
  O  O298  1  0.47850389  0.37213031  0.49916898  1
  O  O299  1  0.50514191  0.38006783  0.99987742  1
  O  O300  1  0.49705183  0.87793475  0.51521229  1
  O  O301  1  0.47717724  0.87279629  0.97687674  1
  O  O302  1  1.00472105  0.37901277  0.48774776  1
  O  O303  1  0.98234543  0.37125311  0.98480722  1
  O  O304  1  0.99408003  0.87698246  0.49474937  1
  O  O305  1  0.98993287  0.86223534  0.98976666  1
  O  O306  1  0.48697835  0.51239931  0.38242812  1
  O  O307  1  0.49120132  0.48190516  0.88320104  1
  O  O308  1  0.49466356  0.98392906  0.37135306  1
  O  O309  1  0.50958049  1.00766626  0.88017997  1
  O  O310  1  0.99471746  0.49053330  0.38068600  1
  O  O311  1  0.98975546  0.50616733  0.86545104  1
  O  O312  1  1.00359096  0.98523799  0.38376336  1
  O  O313  1  0.99105614  0.97950666  0.87202081  1
  O  O314  1  -0.00058248  0.01106416  0.13760720  1
  O  O315  1  0.00317734  -0.00700744  0.61025395  1
  O  O316  1  0.00323728  0.50873472  0.13063918  1
  O  O317  1  0.00657953  0.49466156  0.60469617  1
  O  O318  1  0.51335691  0.01853799  0.13286195  1
  O  O319  1  0.51384680  -0.00283549  0.63550177  1
  O  O320  1  0.51348259  0.49391233  0.11467942  1
  O  O321  1  0.50778692  0.51023166  0.61536176  1
  O  O322  1  0.22578169  0.39268748  0.27146711  1
  O  O323  1  0.22032568  0.37932806  0.73874350  1
  O  O324  1  0.23557202  0.86876616  0.25316239  1
  O  O325  1  0.24254819  0.88724943  0.75393132  1
  O  O326  1  0.74145124  0.38724915  0.26151802  1
  O  O327  1  0.76398812  0.38264626  0.73125723  1
  O  O328  1  0.71106729  0.83195097  0.24285825  1
  O  O329  1  0.75769205  0.87452242  0.74007171  1
  O  O330  1  0.26153862  0.13606796  0.24784078  1
  O  O331  1  0.22797195  0.11726544  0.75955379  1
  O  O332  1  0.26614646  0.61532852  0.25434981  1
  O  O333  1  0.31073393  0.67632684  0.76521454  1
  O  O334  1  0.74574901  0.12645885  0.26937625  1
  O  O335  1  0.76331112  0.12526297  0.74629185  1
  O  O336  1  0.76208462  0.61427249  0.26280916  1
  O  O337  1  0.76205821  0.61613201  0.75341598  1
  O  O338  1  0.37132867  0.12385148  0.36018526  1
  O  O339  1  0.33863285  0.13924683  0.86018589  1
  O  O340  1  0.36721854  0.62906004  0.37203253  1
  O  O341  1  0.36554242  0.58470291  0.88505301  1
  O  O342  1  0.86070904  0.12465291  0.37956428  1
  O  O343  1  0.88729616  0.11921689  0.86076938  1
  O  O344  1  0.87033214  0.61875742  0.37027356  1
  O  O345  1  0.86713581  0.61105429  0.86880217  1
  O  O346  1  0.11056283  0.38634025  0.13614588  1
  O  O347  1  0.12978772  0.37950033  0.64220796  1
  O  O348  1  0.11703486  0.88355271  0.13446466  1
  O  O349  1  0.13447066  0.87511333  0.63859752  1
  O  O350  1  0.62934643  0.38536604  0.13928136  1
  O  O351  1  0.62042764  0.38799006  0.61493009  1
  O  O352  1  0.61208258  0.90217398  0.09778803  1
  O  O353  1  0.63844975  0.89126092  0.62355082  1
  O  O354  1  0.11632987  0.25787935  0.25577896  1
  O  O355  1  0.16457358  0.33717108  0.70271525  1
  O  O356  1  0.11885199  0.75777682  0.24820427  1
  O  O357  1  0.11005001  0.76023013  0.75403058  1
  O  O358  1  0.62327994  0.25666653  0.26230546  1
  O  O359  1  0.64190223  0.26041784  0.75306587  1
  O  O360  1  0.65758327  0.76995197  0.25686937  1
  O  O361  1  0.63515575  0.74180320  0.77072100  1
  O  O362  1  0.39483438  0.24649184  0.25825713  1
  O  O363  1  0.35347310  0.24653566  0.73670316  1
  O  O364  1  0.37024960  0.74332424  0.24619917  1
  O  O365  1  0.35980301  0.74075858  0.75684602  1
  O  O366  1  0.88515735  0.25202856  0.25389913  1
  O  O367  1  0.87740359  0.23351637  0.74951681  1
  O  O368  1  0.88016848  0.74324636  0.24171827  1
  O  O369  1  0.88073635  0.73558577  0.74776949  1
  O  O370  1  0.36708345  0.48815008  0.49259073  1
  O  O371  1  0.39023009  0.48949721  1.01296803  1
  O  O372  1  0.37108147  0.98130882  0.50390119  1
  O  O373  1  0.36229811  1.00657586  1.01606164  1
  O  O374  1  0.88546357  0.50456234  0.48826912  1
  O  O375  1  0.87186535  0.49342210  0.98451676  1
  O  O376  1  0.88620707  0.98456603  0.50014135  1
  O  O377  1  0.87015818  0.98061237  1.00774013  1
  O  O378  1  0.12635916  0.00650609  0.01625155  1
  O  O379  1  0.10878554  -0.00869260  0.49812244  1
  O  O380  1  0.12876230  0.50581923  0.02483129  1
  O  O381  1  0.11960185  0.49481965  0.48549967  1
  O  O382  1  0.61819208  -0.04700135  0.03401325  1
  O  O383  1  0.62414548  0.01625589  0.50965433  1
  O  O384  1  0.62022259  0.50221943  0.00782486  1
  O  O385  1  0.62866445  0.50973258  0.50558430  1
  O  O386  1  0.34105484  0.40981469  0.19170210  1
  O  O387  1  0.36631287  0.36845146  0.61344896  1
  O  O388  1  0.39746009  0.87040425  0.10199401  1
  O  O389  1  0.36335845  0.87698708  0.62283771  1
  O  O390  1  0.88210573  0.38051736  0.11022185  1
  O  O391  1  0.87426189  0.38026898  0.61749617  1
  O  O392  1  0.88152050  0.85602941  0.10784664  1
  O  O393  1  0.86067763  0.87647645  0.61638753  1
  O  O394  1  0.12356021  0.13863754  0.36418055  1
  O  O395  1  0.11988876  0.11936088  0.89285437  1
  O  O396  1  0.13848689  0.63725913  0.36313093  1
  O  O397  1  0.13927441  0.59095425  0.89721122  1
  O  O398  1  0.63287606  0.13297303  0.39196899  1
  O  O399  1  0.62204764  0.15073265  0.86842658  1
  O  O400  1  0.63641745  0.62736145  0.38184968  1
  O  O401  1  0.63518600  0.62104034  0.87972487  1
