# generated using pymatgen
data_V73Zn73O256
_symmetry_space_group_name_H-M   'P 1'
_cell_length_a   16.86559862
_cell_length_b   16.84872925
_cell_length_c   16.83284742
_cell_angle_alpha   90.05528498
_cell_angle_beta   90.14017022
_cell_angle_gamma   90.15849111
_symmetry_Int_Tables_number   1
_chemical_formula_structural   V73Zn73O256
_chemical_formula_sum   'V73 Zn73 O256'
_cell_volume   4783.25277900
_cell_formula_units_Z   1
loop_
 _symmetry_equiv_pos_site_id
 _symmetry_equiv_pos_as_xyz
  1  'x, y, z'
loop_
 _atom_site_type_symbol
 _atom_site_label
 _atom_site_symmetry_multiplicity
 _atom_site_fract_x
 _atom_site_fract_y
 _atom_site_fract_z
 _atom_site_occupancy
  V  V0  1  -0.00329725  0.61132923  0.12336959  1
  V  V1  1  0.50727501  0.37123078  0.84595767  1
  V  V2  1  -0.00080207  0.36735370  0.85644923  1
  V  V3  1  0.00519248  0.75236582  0.24964581  1
  V  V4  1  0.50041428  0.14317021  0.63213001  1
  V  V5  1  0.25199369  0.61842793  0.35254561  1
  V  V6  1  0.49350895  0.26946436  0.24346668  1
  V  V7  1  0.50466184  0.74472135  0.25056203  1
  V  V8  1  0.37657653  0.11896348  0.24839275  1
  V  V9  1  0.49977596  0.88229234  0.36910867  1
  V  V10  1  0.62085886  0.48779713  0.63331567  1
  V  V11  1  0.11358030  0.75449687  0.86862881  1
  V  V12  1  0.38699604  0.63133387  0.74850134  1
  V  V13  1  0.61975672  0.27470744  0.36933914  1
  V  V14  1  0.09552995  0.12069163  0.01330396  1
  V  V15  1  0.62118726  0.61833899  0.50321453  1
  V  V16  1  0.63980638  0.75346908  0.87444678  1
  V  V17  1  0.74342026  0.89052181  0.15007194  1
  V  V18  1  0.76255003  0.00101340  0.74105422  1
  V  V19  1  0.13568491  -0.00109079  0.62706117  1
  V  V20  1  0.75256983  0.49673272  0.76214286  1
  V  V21  1  0.75606987  0.87077132  0.61689445  1
  V  V22  1  0.14897796  0.48687490  0.13027458  1
  V  V23  1  0.61816664  0.88058363  0.73906219  1
  V  V24  1  0.38687365  0.50165074  0.36664108  1
  V  V25  1  0.88329710  0.37507148  0.00301092  1
  V  V26  1  0.61720096  0.12037777  0.01040844  1
  V  V27  1  0.49739542  0.86908302  0.87433665  1
  V  V28  1  -0.00643738  0.13579796  0.62896748  1
  V  V29  1  0.49954554  0.00503990  0.51320230  1
  V  V30  1  -0.01026844  0.89421075  0.88667377  1
  V  V31  1  0.23825947  0.39279072  0.64227907  1
  V  V32  1  0.37328666  0.74609242  0.13091495  1
  V  V33  1  0.86725811  0.76039695  0.11827787  1
  V  V34  1  0.11577968  0.24119174  0.86929331  1
  V  V35  1  0.35203314  0.12706515  0.73445995  1
  V  V36  1  0.01396762  0.37563170  0.36613234  1
  V  V37  1  0.37211891  0.87934468  0.00003838  1
  V  V38  1  0.01668228  0.50679318  0.50646785  1
  V  V39  1  0.36238311  0.26393483  0.10616618  1
  V  V40  1  -0.01727180  0.62767986  0.63872647  1
  V  V41  1  0.24511008  0.75375840  0.00067340  1
  V  V42  1  0.14703789  0.11072553  0.48203150  1
  V  V43  1  0.62423546  0.49650277  0.12491281  1
  V  V44  1  0.75658170  0.11437021  0.87162809  1
  V  V45  1  0.11450636  0.00214251  0.13951127  1
  V  V46  1  0.12181781  0.61886879  0.00072229  1
  V  V47  1  0.49294669  0.48910207  -0.01191878  1
  V  V48  1  -0.00907109  0.00022988  0.50215899  1
  V  V49  1  0.24944636  0.11999435  0.90533921  1
  V  V50  1  0.74231601  0.37306296  0.13099281  1
  V  V51  1  0.00709883  0.87654719  0.37334289  1
  V  V52  1  0.62371812  0.24873631  0.85818428  1
  V  V53  1  0.74583236  0.24776932  0.00414729  1
  V  V54  1  0.63143087  0.12991739  0.48765382  1
  V  V55  1  0.49527647  0.62376586  0.12206687  1
  V  V56  1  0.37636417  0.86736376  0.50724786  1
  V  V57  1  0.12409669  0.88043901  0.75093983  1
  V  V58  1  0.25157568  0.25933625  0.51226730  1
  V  V59  1  0.38452668  0.38815226  0.50657773  1
  V  V60  1  0.88235890  0.23923235  0.14306212  1
  V  V61  1  0.50773549  0.64222040  0.62881597  1
  V  V62  1  0.13802060  0.25704990  0.36095480  1
  V  V63  1  0.87487021  0.49156404  0.38326405  1
  V  V64  1  0.50264874  -0.00008446  0.00905726  1
  V  V65  1  0.74677565  0.49447713  0.24920821  1
  V  V66  1  0.25302572  0.62604122  0.86407449  1
  V  V67  1  0.24780041  0.73828757  0.51028229  1
  V  V68  1  0.62736275  0.74809740  0.37810806  1
  V  V69  1  0.87014680  0.85826030  0.49400293  1
  V  V70  1  0.24629452  0.88227028  0.14446865  1
  V  V71  1  0.63305233  0.63114746  -0.00652807  1
  V  V72  1  0.75031722  0.62582393  0.38104974  1
  Zn  Zn73  1  0.86429803  0.63771937  0.78294741  1
  Zn  Zn74  1  0.88533257  0.49993913  0.87700068  1
  Zn  Zn75  1  0.33724512  0.46445037  0.86283453  1
  Zn  Zn76  1  0.87212301  0.62404691  0.24767286  1
  Zn  Zn77  1  0.75898890  0.37451196  0.62353827  1
  Zn  Zn78  1  0.36152500  -0.00414406  0.86765872  1
  Zn  Zn79  1  0.26290387  0.87318167  0.64005523  1
  Zn  Zn80  1  0.87816622  0.33909072  0.50990167  1
  Zn  Zn81  1  0.12559221  0.74017646  0.37777038  1
  Zn  Zn82  1  0.19732975  0.19038782  0.17851824  1
  Zn  Zn83  1  0.17494386  0.19413306  0.67772345  1
  Zn  Zn84  1  0.18376570  0.68481275  0.18561382  1
  Zn  Zn85  1  0.18413248  0.68963426  0.68630676  1
  Zn  Zn86  1  0.67746392  0.18771543  0.19812216  1
  Zn  Zn87  1  0.68091794  0.17201927  0.68149818  1
  Zn  Zn88  1  0.68645281  0.68320807  0.18801408  1
  Zn  Zn89  1  0.71966923  0.69915627  0.70093676  1
  Zn  Zn90  1  0.31474360  0.32393320  0.30989674  1
  Zn  Zn91  1  0.30290991  0.30422641  0.82818501  1
  Zn  Zn92  1  0.31727140  0.80381936  0.32132011  1
  Zn  Zn93  1  0.30986651  0.80847395  0.81094117  1
  Zn  Zn94  1  0.82877560  0.26369751  0.34985349  1
  Zn  Zn95  1  0.80284265  0.31712803  0.81275140  1
  Zn  Zn96  1  0.81604238  0.81013696  0.30895966  1
  Zn  Zn97  1  0.81668408  0.81758885  0.81212548  1
  Zn  Zn98  1  0.19755965  0.44368586  0.43960814  1
  Zn  Zn99  1  0.17840278  0.42870577  0.94332783  1
  Zn  Zn100  1  0.18526859  0.92784505  0.44323289  1
  Zn  Zn101  1  0.17646720  0.94310104  0.94601044  1
  Zn  Zn102  1  0.69323698  0.43231604  0.44962673  1
  Zn  Zn103  1  0.68208312  0.43385747  0.94210131  1
  Zn  Zn104  1  0.68065327  0.94317913  0.43179337  1
  Zn  Zn105  1  0.68667744  0.93812083  0.93731906  1
  Zn  Zn106  1  0.32168412  0.06442871  0.07782362  1
  Zn  Zn107  1  0.31922252  0.06054033  0.54810127  1
  Zn  Zn108  1  0.31503756  0.55909074  0.04896728  1
  Zn  Zn109  1  0.31722677  0.55948241  0.56912133  1
  Zn  Zn110  1  0.80152827  0.06253914  0.07413082  1
  Zn  Zn111  1  0.81124763  0.06592471  0.55791098  1
  Zn  Zn112  1  0.83852036  0.58915774  0.01557029  1
  Zn  Zn113  1  0.80739771  0.56107762  0.56719276  1
  Zn  Zn114  1  0.42761323  0.43858562  0.18127010  1
  Zn  Zn115  1  0.42798039  0.44946742  0.68845539  1
  Zn  Zn116  1  0.43923127  0.93493147  0.19005766  1
  Zn  Zn117  1  0.43521032  0.94635693  0.69153779  1
  Zn  Zn118  1  0.92964136  0.43092632  0.19050530  1
  Zn  Zn119  1  0.93305233  0.43851023  0.68411071  1
  Zn  Zn120  1  0.93159194  0.93923651  0.19336432  1
  Zn  Zn121  1  0.94189544  0.93453969  0.68884620  1
  Zn  Zn122  1  0.20113476  0.06591388  0.31527342  1
  Zn  Zn123  1  0.06000082  0.06472286  0.80985964  1
  Zn  Zn124  1  0.06827585  0.55935525  0.30745916  1
  Zn  Zn125  1  0.05266480  0.56388011  0.81474436  1
  Zn  Zn126  1  0.51150432  0.09501039  0.33642368  1
  Zn  Zn127  1  0.56163182  0.05746056  0.81719382  1
  Zn  Zn128  1  0.56111106  0.55877918  0.31031599  1
  Zn  Zn129  1  0.56877380  0.56376012  0.80893953  1
  Zn  Zn130  1  0.42739339  0.20523805  0.42957445  1
  Zn  Zn131  1  0.43738981  0.19045704  0.92818140  1
  Zn  Zn132  1  0.43498574  0.68187987  0.44036554  1
  Zn  Zn133  1  0.43921021  0.68838906  0.94024097  1
  Zn  Zn134  1  0.96307753  0.18194487  0.42977497  1
  Zn  Zn135  1  0.93267518  0.18796587  0.94333743  1
  Zn  Zn136  1  0.93781533  0.68290774  0.43901106  1
  Zn  Zn137  1  0.93877501  0.70113092  0.94249009  1
  Zn  Zn138  1  0.06561252  0.30377065  0.07062961  1
  Zn  Zn139  1  0.06798250  0.32096673  0.55654207  1
  Zn  Zn140  1  0.05951576  0.81860138  0.06611323  1
  Zn  Zn141  1  0.06357446  0.80870131  0.56352503  1
  Zn  Zn142  1  0.55651974  0.30678151  0.06071795  1
  Zn  Zn143  1  0.56217697  0.31031147  0.55837455  1
  Zn  Zn144  1  0.56457873  0.81472440  0.06304544  1
  Zn  Zn145  1  0.56702949  0.81177025  0.55763113  1
  O  O146  1  0.12158337  0.11696566  0.12191484  1
  O  O147  1  0.12229110  0.10954816  0.60896845  1
  O  O148  1  0.11585884  0.61577633  0.11881866  1
  O  O149  1  0.10987750  0.59976516  0.66430896  1
  O  O150  1  0.62921049  0.12643571  0.10921695  1
  O  O151  1  0.60956472  0.13514984  0.60268845  1
  O  O152  1  0.61539804  0.62029926  0.11251544  1
  O  O153  1  0.61874130  0.62659688  0.62168005  1
  O  O154  1  0.36710960  0.39317675  0.38936638  1
  O  O155  1  0.40755234  0.36466693  0.86062668  1
  O  O156  1  0.39390009  0.86446941  0.38724222  1
  O  O157  1  0.37729196  0.87490175  0.88317782  1
  O  O158  1  0.88551172  0.38893944  0.37205398  1
  O  O159  1  0.88586087  0.36154216  0.88586904  1
  O  O160  1  0.88135029  0.87028535  0.38832548  1
  O  O161  1  0.89100125  0.87474636  0.87088784  1
  O  O162  1  0.21520449  0.03554476  0.42272818  1
  O  O163  1  0.24018616  0.01581605  0.88064456  1
  O  O164  1  0.25734338  0.51413070  0.37284315  1
  O  O165  1  0.23285747  0.52772890  0.87748103  1
  O  O166  1  0.74197069  0.00976821  0.35282905  1
  O  O167  1  0.74905274  0.00914018  0.86686250  1
  O  O168  1  0.75758210  0.50187784  0.37019111  1
  O  O169  1  0.75010334  0.48479746  0.86631608  1
  O  O170  1  0.24824807  0.50517209  0.12094370  1
  O  O171  1  0.24927779  0.49405940  0.63135413  1
  O  O172  1  0.25238683  0.98388805  0.12707724  1
  O  O173  1  0.23786718  0.99258699  0.61054242  1
  O  O174  1  0.74008970  0.49231384  0.13029252  1
  O  O175  1  0.73648264  0.50116146  0.63386592  1
  O  O176  1  0.75031451  0.99163366  0.14657864  1
  O  O177  1  0.74935459  0.99730854  0.63505703  1
  O  O178  1  0.00129334  0.38531676  0.26663655  1
  O  O179  1  -0.00732452  0.36457476  0.75794197  1
  O  O180  1  -0.00918587  0.86870397  0.26815556  1
  O  O181  1  0.01547542  0.88159051  0.76260141  1
  O  O182  1  0.49653033  0.37053728  0.24716586  1
  O  O183  1  0.51053147  0.38245923  0.74784999  1
  O  O184  1  0.49777758  0.86378174  0.26206438  1
  O  O185  1  0.51182051  0.88210267  0.75639212  1
  O  O186  1  0.48654002  0.14145688  0.23668298  1
  O  O187  1  0.51229718  0.12053704  0.73170834  1
  O  O188  1  0.50254488  0.62983239  0.23126075  1
  O  O189  1  0.49683580  0.63005983  0.74607914  1
  O  O190  1  0.92906020  0.07415219  0.29002149  1
  O  O191  1  1.00419747  0.12172786  0.72906036  1
  O  O192  1  0.99953693  0.63038667  0.23445919  1
  O  O193  1  0.97753253  0.62154391  0.74583345  1
  O  O194  1  0.38290369  0.24883916  0.00755524  1
  O  O195  1  0.35893722  0.26822247  0.49403837  1
  O  O196  1  0.36628057  0.76020051  0.00739878  1
  O  O197  1  0.37039778  0.75943433  0.50335130  1
  O  O198  1  0.86095297  0.25580629  0.01014615  1
  O  O199  1  0.87257384  0.24238663  0.45154327  1
  O  O200  1  0.87637402  0.75943357  0.01821043  1
  O  O201  1  0.87014384  0.75932565  0.49899615  1
  O  O202  1  0.13995893  0.24233934  0.49266174  1
  O  O203  1  0.11413147  0.22640709  0.99939539  1
  O  O204  1  0.14493044  0.75822228  0.49611688  1
  O  O205  1  0.13075216  0.74577380  0.99548441  1
  O  O206  1  0.61330386  0.24043814  0.48159716  1
  O  O207  1  0.62950174  0.23783367  0.99575847  1
  O  O208  1  0.62104049  0.73654181  0.48713566  1
  O  O209  1  0.61768797  0.73773478  0.99141628  1
  O  O210  1  0.48905715  0.25636740  0.13507019  1
  O  O211  1  0.49538585  0.24229575  0.62573488  1
  O  O212  1  0.49399538  0.74562935  0.12893062  1
  O  O213  1  0.50740663  0.74187168  0.62974765  1
  O  O214  1  0.98181404  0.25433637  0.13274353  1
  O  O215  1  1.01514091  0.23336828  0.61027029  1
  O  O216  1  0.99017941  0.75454458  0.13399099  1
  O  O217  1  1.02022247  0.72074092  0.61963304  1
  O  O218  1  0.02100576  0.26889631  0.37680691  1
  O  O219  1  0.00406780  0.25082118  0.87836012  1
  O  O220  1  0.00026554  0.75420816  0.36989204  1
  O  O221  1  0.01170688  0.75861545  0.87661268  1
  O  O222  1  0.50574189  0.25310470  0.35963477  1
  O  O223  1  0.51549957  0.25504567  0.86863792  1
  O  O224  1  0.50611461  0.74653871  0.36682643  1
  O  O225  1  0.50464012  0.76420935  0.87975969  1
  O  O226  1  0.25127086  0.14637469  0.51245021  1
  O  O227  1  0.24750736  0.12165653  1.00498577  1
  O  O228  1  0.25485658  0.63761309  0.51035932  1
  O  O229  1  0.24173632  0.63828818  0.99399309  1
  O  O230  1  0.73063720  0.11831715  0.49696043  1
  O  O231  1  0.73811836  0.12694579  0.99032796  1
  O  O232  1  0.74085246  0.62073599  0.48773713  1
  O  O233  1  0.73093682  0.62276127  1.00391764  1
  O  O234  1  0.27403923  0.38221655  -0.08455873  1
  O  O235  1  0.25118319  0.37262592  0.51432873  1
  O  O236  1  0.25498782  0.86817976  0.00339891  1
  O  O237  1  0.26886257  0.86715764  0.49485961  1
  O  O238  1  0.75211800  0.36268246  0.00812440  1
  O  O239  1  0.76062669  0.36685482  0.50998777  1
  O  O240  1  0.77935744  0.91091449  0.00889663  1
  O  O241  1  0.75993515  0.89135058  0.50530667  1
  O  O242  1  0.12296579  0.49885282  0.22746848  1
  O  O243  1  0.11990823  0.54105158  0.71921829  1
  O  O244  1  0.13658161  1.00860838  0.23818153  1
  O  O245  1  0.12473038  0.99799541  0.73369156  1
  O  O246  1  0.63004522  0.50587929  0.23426161  1
  O  O247  1  0.63503636  0.49861083  0.74144820  1
  O  O248  1  0.70167426  1.04744588  0.29553952  1
  O  O249  1  0.63496728  0.98251465  0.76033192  1
  O  O250  1  0.38030995  0.01702566  0.23840037  1
  O  O251  1  0.38119415  0.02122652  0.75708619  1
  O  O252  1  0.37902271  0.49717471  0.26547886  1
  O  O253  1  0.37986202  0.52072597  0.76909222  1
  O  O254  1  0.87815185  0.01995189  0.26039614  1
  O  O255  1  0.86161261  -0.00523734  0.74831064  1
  O  O256  1  0.86361272  0.50296588  0.25744810  1
  O  O257  1  0.86397025  0.50091452  0.75763478  1
  O  O258  1  0.12097620  0.37575192  0.37652641  1
  O  O259  1  0.10788552  0.35257666  0.88508051  1
  O  O260  1  0.11038861  0.86482007  0.38115033  1
  O  O261  1  0.12051894  0.86750971  0.87394092  1
  O  O262  1  0.61940775  0.37464691  0.38195702  1
  O  O263  1  0.62100658  0.35651626  0.87853691  1
  O  O264  1  0.60970575  0.86073043  0.38549245  1
  O  O265  1  0.61769532  0.86658717  0.87703439  1
  O  O266  1  0.37112699  0.14614965  0.13724992  1
  O  O267  1  0.38602602  0.12122978  0.63031807  1
  O  O268  1  0.38392965  0.63686346  0.10846945  1
  O  O269  1  0.39305442  0.61917926  0.63934511  1
  O  O270  1  0.86576245  0.14016646  0.12396963  1
  O  O271  1  0.89475475  0.12475870  0.60811953  1
  O  O272  1  0.88823973  0.63448439  0.11614315  1
  O  O273  1  0.88325350  0.62935174  0.61784036  1
  O  O274  1  0.25957791  0.25859753  0.11471217  1
  O  O275  1  0.24545160  0.26387593  0.61661763  1
  O  O276  1  0.25334630  0.75794870  0.11922200  1
  O  O277  1  0.24491270  0.75686587  0.61619445  1
  O  O278  1  0.74561722  0.25537522  0.12117030  1
  O  O279  1  0.78191662  0.23924266  0.66036000  1
  O  O280  1  0.76601242  0.74580323  0.13388190  1
  O  O281  1  0.73523784  0.77352296  0.61173779  1
  O  O282  1  0.24050314  0.26719224  0.38728484  1
  O  O283  1  0.22834873  0.22496526  0.87766825  1
  O  O284  1  0.25427776  0.73355228  0.38643455  1
  O  O285  1  0.23708804  0.74563350  0.88400034  1
  O  O286  1  0.71717131  0.25004015  0.35887824  1
  O  O287  1  0.74026085  0.24297423  0.88421948  1
  O  O288  1  0.73893784  0.73690408  0.36493389  1
  O  O289  1  0.73669807  0.76543221  0.88895808  1
  O  O290  1  -0.00397707  0.11547500  0.00706461  1
  O  O291  1  0.01808625  0.10695690  0.49670309  1
  O  O292  1  0.01166611  0.63589334  0.01513111  1
  O  O293  1  0.00017173  0.61124673  0.50280601  1
  O  O294  1  0.51077609  0.11672667  -0.00893115  1
  O  O295  1  0.49269676  0.11475242  0.50776851  1
  O  O296  1  0.50776425  0.61606767  0.00298403  1
  O  O297  1  0.50659398  0.62885631  0.51795448  1
  O  O298  1  0.48301848  0.37433482  0.50578720  1
  O  O299  1  0.50399814  0.38910286  0.99792520  1
  O  O300  1  0.49559879  0.88192313  0.49558826  1
  O  O301  1  0.48969755  0.87740292  0.99539821  1
  O  O302  1  0.99783540  0.38978710  0.48829702  1
  O  O303  1  0.98300824  0.36658805  1.00535021  1
  O  O304  1  0.98653589  0.87523016  0.49916002  1
  O  O305  1  1.00547195  0.87722954  0.98640629  1
  O  O306  1  0.48726952  0.51295800  0.38083237  1
  O  O307  1  0.51835231  0.48405507  0.88030872  1
  O  O308  1  0.50438364  0.98335770  0.37429165  1
  O  O309  1  0.49732223  0.98549455  0.88668551  1
  O  O310  1  0.99295005  0.49897668  0.38168937  1
  O  O311  1  1.00526624  0.47428518  0.87206058  1
  O  O312  1  1.00532273  0.97976130  0.39287368  1
  O  O313  1  1.00198495  0.99441976  0.87701715  1
  O  O314  1  0.01540377  -0.01162892  0.13584902  1
  O  O315  1  0.00557701  0.00280802  0.61498404  1
  O  O316  1  -0.00785879  0.51140179  0.12453653  1
  O  O317  1  -0.00637878  0.51005976  0.61264919  1
  O  O318  1  0.50270955  -0.01314665  0.10896227  1
  O  O319  1  0.50285339  0.00402203  0.61465212  1
  O  O320  1  0.50254542  0.50584110  0.11132056  1
  O  O321  1  0.51814967  0.51181972  0.63564842  1
  O  O322  1  0.24656049  0.37705882  0.23778407  1
  O  O323  1  0.26205508  0.37026890  0.73922776  1
  O  O324  1  0.25767875  0.86833681  0.24336587  1
  O  O325  1  0.23448018  0.87335422  0.75343428  1
  O  O326  1  0.74951886  0.38551272  0.23821881  1
  O  O327  1  0.75176326  0.38727015  0.73956446  1
  O  O328  1  0.73951530  0.87117370  0.25001058  1
  O  O329  1  0.74326667  0.88540448  0.73633487  1
  O  O330  1  0.26632238  0.13342140  0.25310960  1
  O  O331  1  0.25157870  0.12216310  0.73118869  1
  O  O332  1  0.25950365  0.63183632  0.25311600  1
  O  O333  1  0.25782622  0.63380274  0.75986822  1
  O  O334  1  0.74070703  0.11023581  0.26730042  1
  O  O335  1  0.74128932  0.10922136  0.75904602  1
  O  O336  1  0.74717258  0.61127869  0.25979052  1
  O  O337  1  0.74667847  0.60323031  0.75636356  1
  O  O338  1  0.39239794  0.12328847  0.35795637  1
  O  O339  1  0.35411384  0.12104006  0.88044907  1
  O  O340  1  0.36332251  0.61492158  0.38097252  1
  O  O341  1  0.35925418  0.63313780  0.87461681  1
  O  O342  1  0.89751193  0.11539754  0.34888761  1
  O  O343  1  0.85447779  0.13234817  0.87829327  1
  O  O344  1  0.86547993  0.61540301  0.37276338  1
  O  O345  1  0.87750488  0.61494288  0.90145315  1
  O  O346  1  0.12924926  0.39089008  0.10216815  1
  O  O347  1  0.13710631  0.37611368  0.63032833  1
  O  O348  1  0.13932805  0.88439108  0.12481741  1
  O  O349  1  0.12095067  0.88504293  0.63324010  1
  O  O350  1  0.63150602  0.38563251  0.11263340  1
  O  O351  1  0.62515944  0.38613682  0.61853244  1
  O  O352  1  0.65299078  0.86626972  0.10784023  1
  O  O353  1  0.62747664  0.87830569  0.63481284  1
  O  O354  1  0.13859799  0.25122743  0.26169520  1
  O  O355  1  0.11851466  0.23526148  0.76949226  1
  O  O356  1  0.10964266  0.74733376  0.24925803  1
  O  O357  1  0.12580591  0.75743452  0.76452853  1
  O  O358  1  0.60625585  0.25486356  0.25562096  1
  O  O359  1  0.63632148  0.24641971  0.75965602  1
  O  O360  1  0.61273634  0.74143376  0.25894185  1
  O  O361  1  0.63548093  0.76707962  0.76500739  1
  O  O362  1  0.38241434  0.25314139  0.24626856  1
  O  O363  1  0.37088978  0.22113392  0.76707767  1
  O  O364  1  0.38648057  0.75154981  0.23798442  1
  O  O365  1  0.37553004  0.73325255  0.75577267  1
  O  O366  1  0.86262344  0.25246905  0.24162468  1
  O  O367  1  0.83182530  0.23737609  0.71978390  1
  O  O368  1  0.88660718  0.74230126  0.24268380  1
  O  O369  1  0.82735392  0.73564083  0.74010751  1
  O  O370  1  0.37298870  0.49377947  0.49343634  1
  O  O371  1  0.39128948  0.50572140  0.98025551  1
  O  O372  1  0.39047726  0.98600450  0.49592932  1
  O  O373  1  0.38002785  0.98913034  1.00235518  1
  O  O374  1  0.87525604  0.50231632  0.48540394  1
  O  O375  1  0.86516459  0.47679819  0.99796397  1
  O  O376  1  0.88836284  0.99520940  0.50106934  1
  O  O377  1  0.83405644  0.96815658  1.00316435  1
  O  O378  1  0.12505612  0.01335159  0.01945127  1
  O  O379  1  0.11107355  -0.00773330  0.51445242  1
  O  O380  1  0.12992427  0.51344601  0.00672649  1
  O  O381  1  0.11533302  0.50129114  0.49973860  1
  O  O382  1  0.61928956  0.01292609  -0.00634420  1
  O  O383  1  0.60721111  0.01061226  0.49334273  1
  O  O384  1  0.61678309  0.51111403  0.00477073  1
  O  O385  1  0.62964602  0.51171082  0.51464567  1
  O  O386  1  0.37181409  0.36697756  0.11649872  1
  O  O387  1  0.36478096  0.38737220  0.61318463  1
  O  O388  1  0.36520454  0.86603063  0.11921372  1
  O  O389  1  0.37870192  0.87933181  0.61362957  1
  O  O390  1  0.86329381  0.36551191  0.11763954  1
  O  O391  1  0.87653240  0.36693129  0.61965174  1
  O  O392  1  0.85942878  0.86743986  0.13920620  1
  O  O393  1  0.86346672  0.87611515  0.61496008  1
  O  O394  1  0.12294255  0.14683779  0.37898738  1
  O  O395  1  0.12222189  0.12413972  0.89395129  1
  O  O396  1  0.14413222  0.62327196  0.36733865  1
  O  O397  1  0.12495908  0.63922331  0.87995894  1
  O  O398  1  0.61000543  0.12452690  0.38606747  1
  O  O399  1  0.63168420  0.13448875  0.87991403  1
  O  O400  1  0.62947512  0.62586783  0.38241340  1
  O  O401  1  0.62138644  0.64020869  0.88199195  1
