# generated using pymatgen
data_V73Zn73O256
_symmetry_space_group_name_H-M   'P 1'
_cell_length_a   16.87922288
_cell_length_b   16.84858967
_cell_length_c   16.87536149
_cell_angle_alpha   90.12620029
_cell_angle_beta   90.20145510
_cell_angle_gamma   89.98604941
_symmetry_Int_Tables_number   1
_chemical_formula_structural   V73Zn73O256
_chemical_formula_sum   'V73 Zn73 O256'
_cell_volume   4799.16118463
_cell_formula_units_Z   1
loop_
 _symmetry_equiv_pos_site_id
 _symmetry_equiv_pos_as_xyz
  1  'x, y, z'
loop_
 _atom_site_type_symbol
 _atom_site_label
 _atom_site_symmetry_multiplicity
 _atom_site_fract_x
 _atom_site_fract_y
 _atom_site_fract_z
 _atom_site_occupancy
  V  V0  1  0.51359257  0.75285137  0.25264032  1
  V  V1  1  0.85880371  0.87131972  -0.00177029  1
  V  V2  1  0.12435329  0.62152450  -0.00977860  1
  V  V3  1  0.36154571  0.61844457  0.75938438  1
  V  V4  1  0.48876277  0.37715469  0.87812540  1
  V  V5  1  0.62117282  0.50147602  0.61306957  1
  V  V6  1  0.39155726  -0.01645872  0.36708418  1
  V  V7  1  0.13115954  0.85582067  0.26102340  1
  V  V8  1  0.76866661  -0.00620931  0.24283328  1
  V  V9  1  0.48100451  0.50226958  -0.01103829  1
  V  V10  1  0.63799731  0.88229495  0.74874536  1
  V  V11  1  0.37349861  0.75403201  0.61450230  1
  V  V12  1  0.75001195  0.25149865  0.01473843  1
  V  V13  1  0.24918869  0.00268135  0.74800189  1
  V  V14  1  0.37285188  0.00197762  0.88095679  1
  V  V15  1  0.76688978  0.12504316  0.86138992  1
  V  V16  1  0.87761239  0.13151262  0.26245002  1
  V  V17  1  0.62696295  0.75043756  0.87831424  1
  V  V18  1  0.86083737  0.77019706  0.61898475  1
  V  V19  1  0.37765501  0.48076746  0.41290929  1
  V  V20  1  0.75196340  0.62913005  0.87516517  1
  V  V21  1  0.63131013  -0.00305129  0.61930204  1
  V  V22  1  0.86466392  0.36909242  0.50217737  1
  V  V23  1  0.38130310  0.13977483  0.75569987  1
  V  V24  1  0.21272051  0.19682024  0.42409770  1
  V  V25  1  0.00472381  0.64171803  0.12901790  1
  V  V26  1  0.86757375  0.37697564  0.01398930  1
  V  V27  1  0.12461147  0.00607403  0.61408065  1
  V  V28  1  0.87882515  0.62384919  0.73754769  1
  V  V29  1  0.52887669  0.24120677  0.26300383  1
  V  V30  1  0.49705142  0.87858381  0.88050146  1
  V  V31  1  0.00076217  0.14140718  0.61652825  1
  V  V32  1  0.25283747  0.87210282  0.61379898  1
  V  V33  1  0.48474388  -0.02068327  0.50333077  1
  V  V34  1  0.50118294  0.62340804  0.60847951  1
  V  V35  1  0.50373048  0.11563889  0.10926113  1
  V  V36  1  0.11844819  0.87615818  0.75457091  1
  V  V37  1  0.49182723  0.12852737  0.61297135  1
  V  V38  1  0.25529268  0.00526993  0.25598392  1
  V  V39  1  0.33180280  0.33263086  0.09530970  1
  V  V40  1  0.49837126  0.74883064  0.74952184  1
  V  V41  1  0.74902643  0.49720878  0.74440117  1
  V  V42  1  0.62752859  0.24989798  0.88267804  1
  V  V43  1  0.49650410  0.62038700  0.12348737  1
  V  V44  1  0.74617909  0.12105959  0.39315720  1
  V  V45  1  0.72071489  0.64039179  0.37491492  1
  V  V46  1  0.23068198  0.13800094  0.87925144  1
  V  V47  1  0.38352499  0.13128352  0.24305023  1
  V  V48  1  -0.00452442  0.51169318  0.51266027  1
  V  V49  1  0.00208494  -0.01309580  0.00027881  1
  V  V50  1  0.11641700  0.39983207  0.24172072  1
  V  V51  1  0.85765019  0.75434961  0.12848851  1
  V  V52  1  0.62526352  0.89608107  0.24132487  1
  V  V53  1  0.12618036  0.00784627  0.12669019  1
  V  V54  1  0.87632153  0.62425117  0.26048632  1
  V  V55  1  0.14027214  0.62948645  0.49806261  1
  V  V56  1  -0.00135854  0.74701442  0.74601025  1
  V  V57  1  -0.00639125  -0.00301127  0.48976812  1
  V  V58  1  0.00096489  0.50021365  0.00661198  1
  V  V59  1  0.62815352  0.37687649  0.75105827  1
  V  V60  1  0.13385074  0.50206183  0.63112258  1
  V  V61  1  0.00700615  0.24901036  0.27160966  1
  V  V62  1  0.87807607  0.49531389  0.87472300  1
  V  V63  1  -0.00146293  0.13246421  0.12435200  1
  V  V64  1  0.24926959  0.74360234  -0.01324167  1
  V  V65  1  -0.00573789  0.25802427  0.76877832  1
  V  V66  1  -0.01016010  0.86384601  0.37463752  1
  V  V67  1  0.12039386  0.37847962  0.76156319  1
  V  V68  1  0.24992051  0.87457075  0.12026343  1
  V  V69  1  0.62898321  0.61376516  -0.00320193  1
  V  V70  1  0.37633163  0.74117812  0.12397498  1
  V  V71  1  -0.00092252  0.39491620  0.38156878  1
  V  V72  1  0.25749952  0.36133596  0.62284840  1
  Zn  Zn73  1  0.11443134  0.75483585  0.87497895  1
  Zn  Zn74  1  0.64877291  0.08758208  0.01475430  1
  Zn  Zn75  1  0.68947285  0.45704747  0.21477731  1
  Zn  Zn76  1  0.49789767  0.25645918  0.74366447  1
  Zn  Zn77  1  0.37958915  0.87975511  -0.00002633  1
  Zn  Zn78  1  0.20710881  0.78910383  0.43842764  1
  Zn  Zn79  1  0.85353095  0.25014758  0.62714076  1
  Zn  Zn80  1  0.26075429  0.61024637  0.34737522  1
  Zn  Zn81  1  0.87862030  -0.00602944  0.85707955  1
  Zn  Zn82  1  0.21296784  0.22209770  0.23473433  1
  Zn  Zn83  1  0.17924374  0.19249466  0.70367780  1
  Zn  Zn84  1  0.19566857  0.67338509  0.17977286  1
  Zn  Zn85  1  0.18447841  0.68883667  0.68160198  1
  Zn  Zn86  1  0.68837780  0.17182723  0.18534612  1
  Zn  Zn87  1  0.67174784  0.17200114  0.69988412  1
  Zn  Zn88  1  0.69477723  0.65474655  0.17948327  1
  Zn  Zn89  1  0.68650822  0.68653891  0.68680598  1
  Zn  Zn90  1  0.31786815  0.34686691  0.31448959  1
  Zn  Zn91  1  0.27572769  0.34864537  0.84592950  1
  Zn  Zn92  1  0.31722352  0.80619087  0.30357562  1
  Zn  Zn93  1  0.31256862  0.81353558  0.80480073  1
  Zn  Zn94  1  0.79280415  0.30940890  0.32823779  1
  Zn  Zn95  1  0.81494653  0.31080095  0.81488454  1
  Zn  Zn96  1  0.80272748  0.80947705  0.31300007  1
  Zn  Zn97  1  0.81823385  0.81166504  0.81236382  1
  Zn  Zn98  1  0.18755340  0.43444425  0.43804576  1
  Zn  Zn99  1  0.27194999  0.47557074  0.99317552  1
  Zn  Zn100  1  0.24500426  1.00222850  0.47532572  1
  Zn  Zn101  1  0.18632094  0.94487221  0.93757967  1
  Zn  Zn102  1  0.70895283  0.47179570  0.42826854  1
  Zn  Zn103  1  0.68912353  0.43645716  0.93756154  1
  Zn  Zn104  1  0.66109956  0.96422005  0.40849558  1
  Zn  Zn105  1  0.69342774  0.94015975  0.93169126  1
  Zn  Zn106  1  0.30698333  0.07478008  0.06132973  1
  Zn  Zn107  1  0.30858252  0.17882243  0.56836684  1
  Zn  Zn108  1  0.27817247  0.48832588  0.20219619  1
  Zn  Zn109  1  0.31466236  0.55878239  0.57453924  1
  Zn  Zn110  1  0.82209292  0.06346105  0.06644499  1
  Zn  Zn111  1  0.82474355  0.05314133  0.57337632  1
  Zn  Zn112  1  0.81355997  0.55931930  0.07449179  1
  Zn  Zn113  1  0.80849405  0.56539051  0.55572973  1
  Zn  Zn114  1  0.46799522  0.43434829  0.22989384  1
  Zn  Zn115  1  0.43587966  0.43946120  0.68837796  1
  Zn  Zn116  1  0.44398965  0.93525227  0.17561680  1
  Zn  Zn117  1  0.43566486  0.93976785  0.69434652  1
  Zn  Zn118  1  0.88150586  0.41232574  0.22620742  1
  Zn  Zn119  1  0.93578902  0.43235617  0.68211019  1
  Zn  Zn120  1  0.94442445  0.92933525  0.18845263  1
  Zn  Zn121  1  0.93651902  0.94101191  0.68448822  1
  Zn  Zn122  1  0.07627154  0.06467259  0.32012417  1
  Zn  Zn123  1  0.03988756  0.06239564  0.79996083  1
  Zn  Zn124  1  0.05738609  0.57999437  0.31933051  1
  Zn  Zn125  1  0.05949322  0.56214869  0.81417752  1
  Zn  Zn126  1  0.55648101  0.08551037  0.32931323  1
  Zn  Zn127  1  0.57551327  0.05142423  0.84220794  1
  Zn  Zn128  1  0.57106513  0.55131393  0.32503297  1
  Zn  Zn129  1  0.55796277  0.56297525  0.80820531  1
  Zn  Zn130  1  0.41644628  0.19195856  0.41734905  1
  Zn  Zn131  1  0.41604864  0.20919584  0.94674190  1
  Zn  Zn132  1  0.40473380  0.69478601  0.41593097  1
  Zn  Zn133  1  0.43564214  0.68949495  0.93522393  1
  Zn  Zn134  1  0.93343681  0.18456985  0.44560376  1
  Zn  Zn135  1  0.93813123  0.19005583  0.94749830  1
  Zn  Zn136  1  0.93997593  0.69480641  0.44558829  1
  Zn  Zn137  1  0.93572778  0.69410768  0.93496887  1
  Zn  Zn138  1  0.04215744  0.32361170  0.07600345  1
  Zn  Zn139  1  0.08443520  0.31702652  0.54658268  1
  Zn  Zn140  1  0.06737137  0.81473422  0.06579084  1
  Zn  Zn141  1  0.05732839  0.81161599  0.56412917  1
  Zn  Zn142  1  0.53364286  0.33149890  0.09675945  1
  Zn  Zn143  1  0.59322494  0.29796443  0.57166287  1
  Zn  Zn144  1  0.57360393  0.81407831  0.06510732  1
  Zn  Zn145  1  0.56102254  0.81389233  0.56685071  1
  O  O146  1  0.11151658  0.11129066  0.13961830  1
  O  O147  1  0.11817746  0.11067575  0.63312660  1
  O  O148  1  0.11000121  0.63475574  0.10921888  1
  O  O149  1  0.12602624  0.61103797  0.61793236  1
  O  O150  1  0.61269170  0.11958403  0.11519279  1
  O  O151  1  0.60116789  0.10258849  0.63807316  1
  O  O152  1  0.60637810  0.63897963  0.09921466  1
  O  O153  1  0.61241894  0.61743448  0.62779756  1
  O  O154  1  0.38277894  0.37823094  0.40604532  1
  O  O155  1  0.39153293  0.36999152  0.86562299  1
  O  O156  1  0.38464906  0.88425348  0.35685834  1
  O  O157  1  0.37924103  0.88147424  0.87450020  1
  O  O158  1  0.89227169  0.36882169  0.38885467  1
  O  O159  1  0.86702015  0.39101060  0.88511704  1
  O  O160  1  0.89136596  0.86998487  0.36313315  1
  O  O161  1  0.86940063  0.87911622  0.89091160  1
  O  O162  1  0.26587277  -0.00888718  0.35843042  1
  O  O163  1  0.25289971  0.00647818  0.86353151  1
  O  O164  1  0.26963848  0.49861302  0.39369171  1
  O  O165  1  0.24260669  0.44691447  0.89324108  1
  O  O166  1  0.75558498  0.00851051  0.35289110  1
  O  O167  1  0.76165264  0.01947260  0.87458153  1
  O  O168  1  0.68369427  0.51492169  0.32909752  1
  O  O169  1  0.75593749  0.50946380  0.86552805  1
  O  O170  1  0.27976485  0.42947507  0.09430118  1
  O  O171  1  0.23707729  0.49251079  0.63215572  1
  O  O172  1  0.24566035  0.99226863  0.12825791  1
  O  O173  1  0.23856407  0.99041173  0.63232679  1
  O  O174  1  0.72870707  0.54410408  0.14417753  1
  O  O175  1  0.73329554  0.51162732  0.63442806  1
  O  O176  1  0.74924644  1.01887072  0.14371962  1
  O  O177  1  0.72982679  1.00740047  0.61981059  1
  O  O178  1  -0.01174305  0.36515457  0.26653341  1
  O  O179  1  0.00518345  0.36721977  0.74570084  1
  O  O180  1  0.02289222  0.88161209  0.26550826  1
  O  O181  1  0.01586127  0.86948578  0.74376459  1
  O  O182  1  0.51072764  0.33699865  0.28085910  1
  O  O183  1  0.50936918  0.37764400  0.76146435  1
  O  O184  1  0.51252241  0.86319267  0.23719292  1
  O  O185  1  0.50265619  0.86443132  0.75660054  1
  O  O186  1  0.49243304  0.11248305  0.23398408  1
  O  O187  1  0.48575626  0.12376496  0.75211157  1
  O  O188  1  0.50193545  0.63273631  0.22398496  1
  O  O189  1  0.49544766  0.63898728  0.74742263  1
  O  O190  1  1.00011429  0.13329570  0.25344314  1
  O  O191  1  1.00773281  0.15495556  0.72994632  1
  O  O192  1  0.99777954  0.63508358  0.23355238  1
  O  O193  1  0.98769802  0.63061639  0.75092437  1
  O  O194  1  0.35268207  0.28681007  0.00529681  1
  O  O195  1  0.32682025  0.22982414  0.46784573  1
  O  O196  1  0.36080293  0.75233082  0.00185059  1
  O  O197  1  0.38155930  0.74981296  0.51544596  1
  O  O198  1  0.86635295  0.26833120  -0.00133468  1
  O  O199  1  0.87431393  0.26359923  0.50457978  1
  O  O200  1  0.87410107  0.76378908  0.00548493  1
  O  O201  1  0.87725763  0.74808434  0.52125124  1
  O  O202  1  0.14973944  0.25318483  0.47844185  1
  O  O203  1  0.12389440  0.26005261  1.00309983  1
  O  O204  1  0.12705915  0.73602267  0.50781873  1
  O  O205  1  0.13372097  0.74687623  0.99592767  1
  O  O206  1  0.69449816  0.24623956  0.54972523  1
  O  O207  1  0.64305903  0.25853753  0.99167122  1
  O  O208  1  0.65977541  0.78724701  0.50142481  1
  O  O209  1  0.62028411  0.74319672  0.98166263  1
  O  O210  1  0.51166152  0.22988034  0.15069424  1
  O  O211  1  0.51193042  0.23316505  0.62327112  1
  O  O212  1  0.48810119  0.74453498  0.11397910  1
  O  O213  1  0.49734236  0.74214967  0.63013975  1
  O  O214  1  1.00045940  0.23559091  0.13465654  1
  O  O215  1  1.01326103  0.23955917  0.59992894  1
  O  O216  1  0.99231120  0.74444607  0.11721167  1
  O  O217  1  0.98523940  0.75747581  0.63815439  1
  O  O218  1  0.00451798  0.24847782  0.37266399  1
  O  O219  1  -0.00575355  0.25058149  0.86805510  1
  O  O220  1  0.00705502  0.76519709  0.38156426  1
  O  O221  1  -0.00340074  0.75111968  0.85478284  1
  O  O222  1  0.51294630  0.19702061  0.36151368  1
  O  O223  1  0.50924355  0.26523599  0.88278138  1
  O  O224  1  0.48892213  0.74224486  0.34870761  1
  O  O225  1  0.50628681  0.75731043  0.86603011  1
  O  O226  1  0.24449287  0.11406010  0.49458068  1
  O  O227  1  0.24325571  0.12367197  0.98017747  1
  O  O228  1  0.23980953  0.62309943  0.51143867  1
  O  O229  1  0.23328632  0.63620223  1.00189872  1
  O  O230  1  0.77470153  0.10849843  0.48825099  1
  O  O231  1  0.75673328  0.13846022  0.99575483  1
  O  O232  1  0.75542655  0.58437292  0.45857696  1
  O  O233  1  0.73717913  0.61920002  0.98725188  1
  O  O234  1  0.18388300  0.30267847  -0.00602374  1
  O  O235  1  0.24417257  0.37789203  0.52361159  1
  O  O236  1  0.24290370  0.86383583  0.00799084  1
  O  O237  1  0.24551102  0.88254165  0.51134467  1
  O  O238  1  0.75853251  0.36992278  0.00235440  1
  O  O239  1  0.76761735  0.38965434  0.47980119  1
  O  O240  1  0.75930652  0.88172433  0.00388554  1
  O  O241  1  0.70870994  0.84322844  0.49555352  1
  O  O242  1  0.09628352  0.49791772  0.25071484  1
  O  O243  1  0.11065258  0.49406779  0.73725490  1
  O  O244  1  0.14405315  0.99264755  0.24753231  1
  O  O245  1  0.12753012  0.98931145  0.74097123  1
  O  O246  1  0.57110240  0.48275900  0.22758984  1
  O  O247  1  0.63285218  0.49473774  0.74917945  1
  O  O248  1  0.62643538  0.99790239  0.24781676  1
  O  O249  1  0.61824333  0.98657595  0.74568380  1
  O  O250  1  0.36788604  -0.00699801  0.24712332  1
  O  O251  1  0.36219907  0.00591143  0.75730711  1
  O  O252  1  0.36373969  0.44540264  0.26548803  1
  O  O253  1  0.37917019  0.51954003  0.74702137  1
  O  O254  1  0.87369326  0.00336289  0.24634087  1
  O  O255  1  0.93444370  0.01751145  0.76341634  1
  O  O256  1  0.88446611  0.52623086  0.24094117  1
  O  O257  1  0.86952486  0.50404872  0.75387065  1
  O  O258  1  0.10392704  0.38337192  0.36813949  1
  O  O259  1  0.11888058  0.38836651  0.85833305  1
  O  O260  1  0.14645155  0.85913820  0.36162885  1
  O  O261  1  0.13137320  0.87653575  0.85785687  1
  O  O262  1  0.60473813  0.35628050  0.41121558  1
  O  O263  1  0.62310925  0.36907042  0.86775245  1
  O  O264  1  0.63132094  0.87234267  0.34428452  1
  O  O265  1  0.61842396  0.86793861  0.86289972  1
  O  O266  1  0.38136430  0.12257817  0.13429593  1
  O  O267  1  0.38436275  0.12731801  0.64046594  1
  O  O268  1  0.38442438  0.63831704  0.11100978  1
  O  O269  1  0.38790623  0.63426502  0.63339102  1
  O  O270  1  0.89390220  0.11806885  0.14477017  1
  O  O271  1  0.89530838  0.13308407  0.62048665  1
  O  O272  1  0.88526568  0.64101077  0.12500670  1
  O  O273  1  0.86650521  0.62485084  0.63587726  1
  O  O274  1  0.27353818  0.26956907  0.14987753  1
  O  O275  1  0.24405198  0.25415631  0.63001514  1
  O  O276  1  0.26062263  0.75392242  0.11569446  1
  O  O277  1  0.25537960  0.76562163  0.62532861  1
  O  O278  1  0.74788335  0.24412589  0.11300727  1
  O  O279  1  0.73381665  0.23594497  0.62160361  1
  O  O280  1  0.75959131  0.73943392  0.12183551  1
  O  O281  1  0.76108566  0.74945145  0.63153390  1
  O  O282  1  0.24919006  0.25529006  0.34058600  1
  O  O283  1  0.24648309  0.23735261  0.86354111  1
  O  O284  1  0.28448395  0.72711724  0.37797297  1
  O  O285  1  0.24798050  0.75613634  0.88588030  1
  O  O286  1  0.75202156  0.22281453  0.38099340  1
  O  O287  1  0.74729176  0.24514577  0.88239897  1
  O  O288  1  0.75683178  0.73573247  0.38596281  1
  O  O289  1  0.74065012  0.73825824  0.86427175  1
  O  O290  1  -0.00696076  0.11912458  0.02110920  1
  O  O291  1  0.00387390  0.10970818  0.50667961  1
  O  O292  1  0.00689867  0.62765472  0.00174543  1
  O  O293  1  0.00904347  0.61434229  0.49922616  1
  O  O294  1  0.48436652  0.14429888  0.01273951  1
  O  O295  1  0.48544193  0.11649734  0.51375615  1
  O  O296  1  0.50869062  0.61625505  -0.01108310  1
  O  O297  1  0.49769425  0.63220253  0.51246275  1
  O  O298  1  0.55222976  0.33789374  0.46086746  1
  O  O299  1  0.50176050  0.39201454  0.98913787  1
  O  O300  1  0.48970612  0.88007291  0.50614629  1
  O  O301  1  0.50092305  0.86679739  0.98353954  1
  O  O302  1  1.00060598  0.38573279  0.49215400  1
  O  O303  1  0.98657189  0.39232675  1.00183982  1
  O  O304  1  1.01309783  0.88472472  0.48454838  1
  O  O305  1  0.99883154  0.88354211  1.00055787  1
  O  O306  1  0.47747820  0.51104695  0.37441703  1
  O  O307  1  0.50542900  0.48896539  0.87900666  1
  O  O308  1  0.49856528  0.99741265  0.39060488  1
  O  O309  1  0.48060059  0.98857783  0.85992921  1
  O  O310  1  0.99646367  0.49833702  0.38853718  1
  O  O311  1  0.98480731  0.51279578  0.88956315  1
  O  O312  1  1.01142878  0.99456849  0.38557039  1
  O  O313  1  1.00442814  1.01348156  0.90313973  1
  O  O314  1  0.00890655  0.00280699  0.12192121  1
  O  O315  1  0.01418039  -0.00042188  0.61169451  1
  O  O316  1  -0.00993387  0.52405830  0.10441658  1
  O  O317  1  0.00912446  0.49662319  0.61567309  1
  O  O318  1  0.49262627  0.01301986  0.10939678  1
  O  O319  1  0.49147355  0.00272061  0.61337101  1
  O  O320  1  0.48829485  0.51800547  0.10051243  1
  O  O321  1  0.50951057  0.51393090  0.63019722  1
  O  O322  1  0.21760952  0.39388730  0.25526314  1
  O  O323  1  0.22624380  0.37031584  0.73952875  1
  O  O324  1  0.24737420  0.87900580  0.23751249  1
  O  O325  1  0.24063962  0.88332590  0.74123577  1
  O  O326  1  0.77485779  0.38704292  0.25394298  1
  O  O327  1  0.74216461  0.38682493  0.75497613  1
  O  O328  1  0.74813067  0.88936036  0.24527113  1
  O  O329  1  0.73684778  0.87642225  0.75754997  1
  O  O330  1  0.26360906  0.10883505  0.23871369  1
  O  O331  1  0.25904443  0.11815176  0.75224831  1
  O  O332  1  0.24796454  0.59301932  0.23368762  1
  O  O333  1  0.26250525  0.63263210  0.74196016  1
  O  O334  1  0.76995184  0.12189128  0.25670337  1
  O  O335  1  0.75993110  0.13463799  0.76070386  1
  O  O336  1  0.76663659  0.63474436  0.27114489  1
  O  O337  1  0.75578845  0.61581474  0.75709009  1
  O  O338  1  0.38174806  0.09741359  0.34888687  1
  O  O339  1  0.36621575  0.12209540  0.86783862  1
  O  O340  1  0.38166271  0.59395158  0.36946136  1
  O  O341  1  0.37307438  0.63536041  0.85889017  1
  O  O342  1  0.87984730  0.11739917  0.36494241  1
  O  O343  1  0.86798410  0.13109636  0.87893502  1
  O  O344  1  0.89908558  0.63301188  0.35778820  1
  O  O345  1  0.86553562  0.62089040  0.86740674  1
  O  O346  1  0.10530126  0.38663761  0.14144700  1
  O  O347  1  0.12850674  0.38847541  0.62695551  1
  O  O348  1  0.13321596  0.88298618  0.13653256  1
  O  O349  1  0.13441117  0.88057032  0.63161568  1
  O  O350  1  0.62091236  0.39335456  0.13690742  1
  O  O351  1  0.61401585  0.39095869  0.63883990  1
  O  O352  1  0.63267663  0.87102909  0.13893676  1
  O  O353  1  0.61938863  0.88436599  0.63967301  1
  O  O354  1  0.10567480  0.26683521  0.24794768  1
  O  O355  1  0.10606343  0.26713738  0.74889726  1
  O  O356  1  0.13709390  0.75862965  0.23871983  1
  O  O357  1  0.11922624  0.76016792  0.74677159  1
  O  O358  1  0.63049052  0.23214456  0.26145173  1
  O  O359  1  0.62077936  0.26130807  0.75887400  1
  O  O360  1  0.61266024  0.73789686  0.23793404  1
  O  O361  1  0.61749525  0.75864507  0.75449473  1
  O  O362  1  0.38743768  0.22890490  0.26165424  1
  O  O363  1  0.37882720  0.23941311  0.75749319  1
  O  O364  1  0.38755220  0.75273527  0.22644909  1
  O  O365  1  0.38256613  0.74709053  0.73818324  1
  O  O366  1  0.88883269  0.23623193  0.25778289  1
  O  O367  1  0.88919544  0.26510265  0.73970168  1
  O  O368  1  0.87148443  0.74664155  0.23423496  1
  O  O369  1  0.87852765  0.74287590  0.74123033  1
  O  O370  1  0.38610674  0.49712922  0.51323404  1
  O  O371  1  0.38391034  0.51208161  0.98077371  1
  O  O372  1  0.37846336  0.99297616  0.47750664  1
  O  O373  1  0.36121553  0.99904454  0.98436352  1
  O  O374  1  0.89181046  0.49239149  0.51029228  1
  O  O375  1  0.87568215  0.49683599  0.99548288  1
  O  O376  1  0.89552786  0.99047955  0.50439436  1
  O  O377  1  0.88793233  0.98573738  1.00987725  1
  O  O378  1  0.11538697  -0.00634115  0.01498444  1
  O  O379  1  0.12774928  -0.00190921  0.51291647  1
  O  O380  1  0.10989916  0.51575115  -0.00205490  1
  O  O381  1  0.11724946  0.50749539  0.51153334  1
  O  O382  1  0.60870974  0.00967674  -0.05063244  1
  O  O383  1  0.60621254  -0.01346164  0.51440659  1
  O  O384  1  0.61872813  0.51202191  -0.00735687  1
  O  O385  1  0.62522004  0.49161787  0.51582612  1
  O  O386  1  0.42225922  0.36000222  0.13539710  1
  O  O387  1  0.35662822  0.37407032  0.64008643  1
  O  O388  1  0.36614158  0.86646560  0.11651122  1
  O  O389  1  0.35974843  0.87201105  0.63191953  1
  O  O390  1  0.87683967  0.38418566  0.11212213  1
  O  O391  1  0.86945559  0.37339160  0.60907921  1
  O  O392  1  0.87892587  0.86237116  0.11704540  1
  O  O393  1  0.86713255  0.87166073  0.63057339  1
  O  O394  1  0.15294065  0.13354936  0.36767028  1
  O  O395  1  0.13405497  0.11864661  0.85488676  1
  O  O396  1  0.13641213  0.61829810  0.39292552  1
  O  O397  1  0.11986462  0.63141506  0.88618189  1
  O  O398  1  0.64497831  0.09809124  0.39831623  1
  O  O399  1  0.64046708  0.14346436  0.86763481  1
  O  O400  1  0.62059532  0.64692301  0.37907297  1
  O  O401  1  0.63024410  0.63041545  0.87789448  1
