# generated using pymatgen
data_V73Zn73O256
_symmetry_space_group_name_H-M   'P 1'
_cell_length_a   16.95809873
_cell_length_b   16.93776748
_cell_length_c   16.91378100
_cell_angle_alpha   89.96280823
_cell_angle_beta   90.13756019
_cell_angle_gamma   90.06368822
_symmetry_Int_Tables_number   1
_chemical_formula_structural   V73Zn73O256
_chemical_formula_sum   'V73 Zn73 O256'
_cell_volume   4858.16676099
_cell_formula_units_Z   1
loop_
 _symmetry_equiv_pos_site_id
 _symmetry_equiv_pos_as_xyz
  1  'x, y, z'
loop_
 _atom_site_type_symbol
 _atom_site_label
 _atom_site_symmetry_multiplicity
 _atom_site_fract_x
 _atom_site_fract_y
 _atom_site_fract_z
 _atom_site_occupancy
  V  V0  1  0.87738148  0.39327087  0.50816159  1
  V  V1  1  -0.01602294  0.87677599  0.38763870  1
  V  V2  1  0.88233885  0.87828345  0.00387823  1
  V  V3  1  -0.00509304  0.38599041  0.38320806  1
  V  V4  1  0.26245552  0.37367215  0.12522212  1
  V  V5  1  0.75018989  -0.00311515  0.24622563  1
  V  V6  1  0.67391278  0.36434907  0.20943086  1
  V  V7  1  0.36452445  0.35447100  -0.02163070  1
  V  V8  1  0.88421782  0.49395996  0.85928156  1
  V  V9  1  0.00628878  0.00749909  0.00329288  1
  V  V10  1  0.25484643  0.00046543  0.73366763  1
  V  V11  1  -0.01141227  0.13066709  0.63407040  1
  V  V12  1  0.00895177  0.87630289  0.86760133  1
  V  V13  1  0.12494861  0.25084931  0.37665975  1
  V  V14  1  0.12688521  0.50334311  0.11972084  1
  V  V15  1  0.63253725  0.87865148  0.75047120  1
  V  V16  1  0.37009074  0.37863683  0.51358230  1
  V  V17  1  0.74306362  0.13066057  0.37413441  1
  V  V18  1  0.11418169  -0.01030659  0.62264499  1
  V  V19  1  0.89143742  0.38078527  -0.00150233  1
  V  V20  1  0.11967254  0.12406299  0.50613825  1
  V  V21  1  0.48413250  0.49982991  -0.00706921  1
  V  V22  1  0.48756405  0.86807127  0.87531829  1
  V  V23  1  0.77476139  0.64063214  0.86152547  1
  V  V24  1  0.87198653  0.12794111  0.24978221  1
  V  V25  1  0.39355775  0.22965063  0.63112284  1
  V  V26  1  0.25186696  0.50466333  0.26143194  1
  V  V27  1  0.74358163  0.50534862  0.74515197  1
  V  V28  1  -0.00007402  0.25318689  0.25367079  1
  V  V29  1  0.36575169  0.01679432  0.87044502  1
  V  V30  1  0.87907733  0.01182576  0.87385250  1
  V  V31  1  0.11791638  0.87815126  0.25885121  1
  V  V32  1  0.24817163  0.24943427  0.51615684  1
  V  V33  1  0.13082732  0.24180258  0.88436974  1
  V  V34  1  0.16648780  0.78119356  0.39875004  1
  V  V35  1  0.61842578  0.26129979  0.37918643  1
  V  V36  1  0.10547149  0.60482791  0.50294478  1
  V  V37  1  -0.01225543  0.26028987  0.75647615  1
  V  V38  1  0.74506476  0.25680788  -0.00472786  1
  V  V39  1  0.25938357  0.61042055  0.39538182  1
  V  V40  1  0.89536316  0.75389599  0.12277812  1
  V  V41  1  0.31603269  0.76397042  0.16160658  1
  V  V42  1  0.74533572  0.13097249  0.88253505  1
  V  V43  1  0.74922488  0.00921381  0.74812523  1
  V  V44  1  0.49413688  -0.00332078  0.00485318  1
  V  V45  1  0.24996766  0.12324298  0.35835958  1
  V  V46  1  0.72847940  0.71249280  0.46609534  1
  V  V47  1  0.87093633  0.00009855  0.38957043  1
  V  V48  1  0.27684182  0.61328755  0.87441242  1
  V  V49  1  0.49042319  0.37436984  0.37017223  1
  V  V50  1  0.63786417  0.01187236  0.11468590  1
  V  V51  1  0.61528476  0.12036184  0.51523346  1
  V  V52  1  0.63146339  0.75014673  0.87749636  1
  V  V53  1  0.38929825  0.01429209  0.36707028  1
  V  V54  1  0.00607912  0.12752917  0.12434155  1
  V  V55  1  0.86986224  0.25912576  0.12501401  1
  V  V56  1  -0.04671357  0.63430527  0.65144924  1
  V  V57  1  0.75973061  0.24950984  0.50773028  1
  V  V58  1  0.75961845  0.75850253  0.00889031  1
  V  V59  1  0.49502139  0.74217761  0.74141527  1
  V  V60  1  0.74581720  0.37223768  0.62955775  1
  V  V61  1  0.76484933  0.87121718  0.61823721  1
  V  V62  1  0.61971479  0.36312348  0.76770415  1
  V  V63  1  0.13810172  0.73403791  0.87640208  1
  V  V64  1  0.61700715  0.87014613  0.24298450  1
  V  V65  1  0.01146676  0.62867803  0.10310146  1
  V  V66  1  0.52373739  0.62008408  0.62305891  1
  V  V67  1  -0.06327390  0.69383785  0.30526727  1
  V  V68  1  0.12638803  -0.00151024  0.13922112  1
  V  V69  1  0.25540565  0.49416237  0.73542968  1
  V  V70  1  0.63978053  0.61211685  0.00638668  1
  V  V71  1  0.51274605  0.49664603  0.50615867  1
  V  V72  1  0.50239512  0.85584724  0.37356543  1
  Zn  Zn73  1  0.43798286  0.56028925  0.31621629  1
  Zn  Zn74  1  0.02791488  0.49653984  -0.02949792  1
  Zn  Zn75  1  0.48838418  -0.00516611  0.51487909  1
  Zn  Zn76  1  0.43050560  0.18139927  0.17355540  1
  Zn  Zn77  1  0.12605929  0.37530739  0.74797326  1
  Zn  Zn78  1  0.75736993  0.51330605  0.27799092  1
  Zn  Zn79  1  0.56365227  0.17556006  0.02168666  1
  Zn  Zn80  1  0.13087481  0.86543393  0.74249398  1
  Zn  Zn81  1  0.12585992  0.37599010  0.25100495  1
  Zn  Zn82  1  0.27113193  0.17182531  0.15373868  1
  Zn  Zn83  1  0.17808401  0.18120556  0.70069915  1
  Zn  Zn84  1  0.16490401  0.68398917  0.22162646  1
  Zn  Zn85  1  0.16749109  0.66458033  0.69918599  1
  Zn  Zn86  1  0.59059854  0.20315942  0.18811967  1
  Zn  Zn87  1  0.68965435  0.18981114  0.69073587  1
  Zn  Zn88  1  0.69753336  0.69529695  0.18336317  1
  Zn  Zn89  1  0.69323125  0.69554200  0.68173637  1
  Zn  Zn90  1  0.31907494  0.30875885  0.30551820  1
  Zn  Zn91  1  0.30007460  0.30409116  0.79794440  1
  Zn  Zn92  1  0.30930549  0.83917143  0.33213537  1
  Zn  Zn93  1  0.30567320  0.80612157  0.80176801  1
  Zn  Zn94  1  0.79881409  0.33775964  0.32979617  1
  Zn  Zn95  1  0.81729858  0.31451323  0.80972981  1
  Zn  Zn96  1  0.80298561  0.81298917  0.31394303  1
  Zn  Zn97  1  0.81685014  0.82083429  0.81414242  1
  Zn  Zn98  1  0.18298552  0.43473222  0.45195356  1
  Zn  Zn99  1  0.19876837  0.43193472  0.92264447  1
  Zn  Zn100  1  0.18392382  0.95228394  0.43372313  1
  Zn  Zn101  1  0.18921791  0.93070439  0.94493900  1
  Zn  Zn102  1  0.68747988  0.44776832  0.44019201  1
  Zn  Zn103  1  0.70383801  0.43383391  0.92907321  1
  Zn  Zn104  1  0.67728793  0.93281894  0.43748298  1
  Zn  Zn105  1  0.69457493  0.93657056  0.93514471  1
  Zn  Zn106  1  0.30260533  0.01565544  0.06128872  1
  Zn  Zn107  1  0.31020426  0.06132639  0.55271880  1
  Zn  Zn108  1  0.30093632  0.58587994  0.06882303  1
  Zn  Zn109  1  0.32028526  0.55999641  0.58040858  1
  Zn  Zn110  1  0.81993100  0.06982881  0.06159076  1
  Zn  Zn111  1  0.80345388  0.06408540  0.56595549  1
  Zn  Zn112  1  0.82855135  0.57399602  0.05280377  1
  Zn  Zn113  1  0.79639236  0.56774211  0.55592130  1
  Zn  Zn114  1  0.43781299  0.46097100  0.17763817  1
  Zn  Zn115  1  0.43791085  0.43203178  0.69455020  1
  Zn  Zn116  1  0.42613021  0.92970763  0.18769221  1
  Zn  Zn117  1  0.44419850  0.94376203  0.69770720  1
  Zn  Zn118  1  0.93807932  0.44351818  0.18722945  1
  Zn  Zn119  1  0.98531891  0.43452299  0.65462432  1
  Zn  Zn120  1  0.94529721  0.93618921  0.19690837  1
  Zn  Zn121  1  0.93470872  0.94703826  0.68951629  1
  Zn  Zn122  1  0.05469808  0.06575786  0.32065014  1
  Zn  Zn123  1  0.06968339  0.06401744  0.80941169  1
  Zn  Zn124  1  0.07209454  0.56131324  0.31964297  1
  Zn  Zn125  1  0.06588057  0.56352759  0.79611905  1
  Zn  Zn126  1  0.56243648  0.06705043  0.30144154  1
  Zn  Zn127  1  0.56772478  0.05546879  0.84044097  1
  Zn  Zn128  1  0.58775971  0.53686189  0.17019768  1
  Zn  Zn129  1  0.56976066  0.56096962  0.81536937  1
  Zn  Zn130  1  0.43430575  0.18801680  0.44090920  1
  Zn  Zn131  1  0.29342849  0.17761403  0.95180961  1
  Zn  Zn132  1  0.43939077  0.68119829  0.44942150  1
  Zn  Zn133  1  0.45684701  0.67105332  0.93732740  1
  Zn  Zn134  1  0.93773831  0.18654469  0.44045509  1
  Zn  Zn135  1  0.94267247  0.19232634  0.93622716  1
  Zn  Zn136  1  0.92849800  0.70506217  0.48694195  1
  Zn  Zn137  1  0.94433856  0.68836049  0.84516647  1
  Zn  Zn138  1  0.06997012  0.31433471  0.06349932  1
  Zn  Zn139  1  0.06289270  0.30876268  0.56747366  1
  Zn  Zn140  1  0.12024394  0.79306704  0.07922841  1
  Zn  Zn141  1  0.05100748  0.80226645  0.56623822  1
  Zn  Zn142  1  0.53393237  0.34698709  0.07539716  1
  Zn  Zn143  1  0.56367670  0.30967472  0.56668878  1
  Zn  Zn144  1  0.58041903  0.82602346  0.05675608  1
  Zn  Zn145  1  0.56737764  0.82888421  0.56669672  1
  O  O146  1  0.10689177  0.11092837  0.13948751  1
  O  O147  1  0.11630121  0.11510375  0.62024233  1
  O  O148  1  0.11930631  0.61559041  0.13375536  1
  O  O149  1  0.12786709  0.64853305  0.59629864  1
  O  O150  1  0.62161787  0.11290076  0.11344802  1
  O  O151  1  0.63156755  0.12666740  0.61403204  1
  O  O152  1  0.64811068  0.61917575  0.11241550  1
  O  O153  1  0.62244235  0.62048104  0.62724396  1
  O  O154  1  0.38530719  0.35823188  0.39289829  1
  O  O155  1  0.35388426  0.36554001  0.88047207  1
  O  O156  1  0.40163456  0.89288312  0.37264292  1
  O  O157  1  0.38930746  0.85611924  0.87442842  1
  O  O158  1  0.89167743  0.36292103  0.39132738  1
  O  O159  1  0.87411893  0.38689670  0.88427309  1
  O  O160  1  0.87114865  0.89292512  0.36956282  1
  O  O161  1  0.88680072  0.88799593  0.88237699  1
  O  O162  1  0.25393898  0.02057258  0.37552093  1
  O  O163  1  0.26650374  -0.00812727  0.87195019  1
  O  O164  1  0.24361877  0.49694485  0.36982366  1
  O  O165  1  0.26216441  0.50783049  0.86422641  1
  O  O166  1  0.75531691  0.01047776  0.36677102  1
  O  O167  1  0.76002142  0.01304851  0.87635443  1
  O  O168  1  0.76184094  0.44404756  0.36257025  1
  O  O169  1  0.76443293  0.51231102  0.86202363  1
  O  O170  1  0.23984792  0.50400285  0.13777592  1
  O  O171  1  0.23708359  0.51231302  0.63650635  1
  O  O172  1  0.22201102  1.00030673  0.15227446  1
  O  O173  1  0.24253541  0.99769388  0.62832139  1
  O  O174  1  0.79267460  0.52303294  0.15277006  1
  O  O175  1  0.75570015  0.49029734  0.64049120  1
  O  O176  1  0.74411081  1.01097804  0.12912517  1
  O  O177  1  0.74932158  1.00048216  0.64561791  1
  O  O178  1  -0.00772404  0.36758421  0.26372628  1
  O  O179  1  -0.01039020  0.36182769  0.74983085  1
  O  O180  1  0.00004615  0.86910516  0.27244465  1
  O  O181  1  -0.00301768  0.88603729  0.76529659  1
  O  O182  1  0.48674707  0.38376167  0.27228637  1
  O  O183  1  0.52259949  0.37951636  0.74408453  1
  O  O184  1  0.51055584  0.87903107  0.25558897  1
  O  O185  1  0.51219007  0.85962035  0.76202329  1
  O  O186  1  0.51087083  0.14638365  0.24527892  1
  O  O187  1  0.50518869  0.14890677  0.77879479  1
  O  O188  1  0.49016085  0.55707866  0.22017976  1
  O  O189  1  0.51166445  0.63348644  0.74074076  1
  O  O190  1  0.98919557  0.13354410  0.24892306  1
  O  O191  1  1.00042210  0.12501128  0.73740641  1
  O  O192  1  1.01224234  0.64044795  0.25894658  1
  O  O193  1  0.99079252  0.63999464  0.75073743  1
  O  O194  1  0.36847196  0.25708768  -0.00356355  1
  O  O195  1  0.36567022  0.25141941  0.51352912  1
  O  O196  1  0.43942540  0.75158832  0.02600719  1
  O  O197  1  0.38294481  0.70448432  0.54993259  1
  O  O198  1  0.88162915  0.26397117  0.00551222  1
  O  O199  1  0.86150893  0.24997463  0.49648993  1
  O  O200  1  0.87602033  0.76377911  0.00639544  1
  O  O201  1  0.82254289  0.73621373  0.49960450  1
  O  O202  1  0.12925397  0.24543552  0.49516576  1
  O  O203  1  0.11724636  0.25047971  0.98554032  1
  O  O204  1  0.11561223  0.75280967  0.47978306  1
  O  O205  1  0.13860706  0.77528745  0.97077067  1
  O  O206  1  0.63348439  0.24095760  0.49531107  1
  O  O207  1  0.64629252  0.25206008  0.99208626  1
  O  O208  1  0.64704723  0.75343746  0.51440102  1
  O  O209  1  0.64058156  0.74647803  0.99870327  1
  O  O210  1  0.51275238  0.23898395  0.10392003  1
  O  O211  1  0.49346659  0.24317295  0.62625905  1
  O  O212  1  0.48984027  0.75087204  0.08349481  1
  O  O213  1  0.51714369  0.74029394  0.63720301  1
  O  O214  1  0.99589686  0.24692746  0.13483801  1
  O  O215  1  1.00107953  0.23654923  0.63798851  1
  O  O216  1  1.01236453  0.73758422  0.11399254  1
  O  O217  1  0.97535433  0.72486985  0.59842813  1
  O  O218  1  0.00729149  0.24980538  0.37105224  1
  O  O219  1  0.00796682  0.24567712  0.86153908  1
  O  O220  1  -0.03464885  0.76274493  0.38375475  1
  O  O221  1  0.01227287  0.77272587  0.87908568  1
  O  O222  1  0.50814531  0.26039316  0.38428783  1
  O  O223  1  0.49460280  0.20872600  0.81997630  1
  O  O224  1  0.48934229  0.75691099  0.38025786  1
  O  O225  1  0.51329820  0.75199077  0.86805205  1
  O  O226  1  0.23574599  0.13475530  0.49314375  1
  O  O227  1  0.25726064  0.12292399  1.04331119  1
  O  O228  1  0.25052313  0.60299770  0.49521238  1
  O  O229  1  0.24924877  0.61843348  0.97239184  1
  O  O230  1  0.74231838  0.13226030  0.49169490  1
  O  O231  1  0.76051216  0.13665806  0.98886831  1
  O  O232  1  0.72657933  0.60770991  0.47674722  1
  O  O233  1  0.75575134  0.64063472  0.98700837  1
  O  O234  1  0.26690314  0.39465008  0.01295241  1
  O  O235  1  0.26234482  0.36361108  0.49697807  1
  O  O236  1  0.25951161  0.91660970  0.02659890  1
  O  O237  1  0.23794346  0.85299318  0.42956260  1
  O  O238  1  0.76724903  0.36014970  -0.00772195  1
  O  O239  1  0.76213950  0.36923340  0.51153509  1
  O  O240  1  0.76800822  0.87000818  -0.00302494  1
  O  O241  1  0.74089571  0.88888795  0.52078791  1
  O  O242  1  0.13302138  0.49465048  0.24451660  1
  O  O243  1  0.13959079  0.49248468  0.76163279  1
  O  O244  1  0.09896059  0.99069938  0.24809551  1
  O  O245  1  0.13254017  0.99495181  0.73315213  1
  O  O246  1  0.65136336  0.46229886  0.23391037  1
  O  O247  1  0.64128895  0.48793564  0.75753789  1
  O  O248  1  0.63403932  1.00325415  0.23442819  1
  O  O249  1  0.63969877  0.99215384  0.76951646  1
  O  O250  1  0.37688407  -0.00141932  0.26669375  1
  O  O251  1  0.36589562  -0.00400180  0.75646372  1
  O  O252  1  0.35259578  0.49613331  0.25438857  1
  O  O253  1  0.35958313  0.49990341  0.73397153  1
  O  O254  1  0.86713005  0.01173501  0.25080822  1
  O  O255  1  0.86000851  -0.00057853  0.76394040  1
  O  O256  1  0.85519265  0.52218400  0.21324105  1
  O  O257  1  0.86544235  0.49412837  0.75969803  1
  O  O258  1  0.11068116  0.36465817  0.38285180  1
  O  O259  1  0.13215388  0.35734132  0.86976421  1
  O  O260  1  0.09854399  0.88588298  0.37767834  1
  O  O261  1  0.11199200  0.89567802  0.86987136  1
  O  O262  1  0.60602208  0.36779181  0.39149295  1
  O  O263  1  0.62941282  0.37487754  0.86787088  1
  O  O264  1  0.61684003  0.88382887  0.35179024  1
  O  O265  1  0.62462760  0.86580876  0.87148044  1
  O  O266  1  0.36174948  0.09824202  0.12334102  1
  O  O267  1  0.37678314  0.13021712  0.61639409  1
  O  O268  1  0.34616697  0.67471375  0.12133876  1
  O  O269  1  0.39586899  0.64631240  0.60582545  1
  O  O270  1  0.88437898  0.13617291  0.13416753  1
  O  O271  1  0.89109024  0.11588010  0.61776673  1
  O  O272  1  0.90278368  0.64120680  0.11557100  1
  O  O273  1  0.85383880  0.62620653  0.63785908  1
  O  O274  1  0.23474803  0.27898854  0.11930071  1
  O  O275  1  0.24172529  0.24111062  0.61584176  1
  O  O276  1  0.21036941  0.76117712  0.14687487  1
  O  O277  1  0.26894966  0.81253914  0.59910033  1
  O  O278  1  0.76916034  0.23875314  0.10298827  1
  O  O279  1  0.75294860  0.25736172  0.61833208  1
  O  O280  1  0.77529904  0.74355795  0.11569002  1
  O  O281  1  0.76210550  0.77297611  0.64277795  1
  O  O282  1  0.23727637  0.24349941  0.38149444  1
  O  O283  1  0.23868583  0.23844695  0.87181939  1
  O  O284  1  0.24982474  0.71758593  0.38505662  1
  O  O285  1  0.24522005  0.73008047  0.86336228  1
  O  O286  1  0.74114907  0.24850215  0.38557375  1
  O  O287  1  0.76586867  0.23845972  0.88342658  1
  O  O288  1  0.73174611  0.74747145  0.36833488  1
  O  O289  1  0.74333752  0.75486504  0.89090197  1
  O  O290  1  -0.00733390  0.11819518  0.01271947  1
  O  O291  1  0.01268591  0.13410549  0.51132692  1
  O  O292  1  0.01316800  0.61240192  0.00620918  1
  O  O293  1  0.00855494  0.62169400  0.47862540  1
  O  O294  1  0.51713691  0.08992517  -0.03358748  1
  O  O295  1  0.51288546  0.12529802  0.50115786  1
  O  O296  1  0.53273485  0.61053153  0.00242979  1
  O  O297  1  0.51038879  0.60818776  0.50901862  1
  O  O298  1  0.48923491  0.38092665  0.50509788  1
  O  O299  1  0.46776551  0.38729573  0.98720609  1
  O  O300  1  0.52838099  0.88290752  0.46948324  1
  O  O301  1  0.51277415  0.88665025  0.97956277  1
  O  O302  1  0.98894540  0.37255053  0.49399226  1
  O  O303  1  0.99486576  0.38357216  0.99809973  1
  O  O304  1  0.99111528  0.87098296  0.48717531  1
  O  O305  1  0.99243240  0.89242000  0.98655270  1
  O  O306  1  0.49293816  0.48608124  0.39776010  1
  O  O307  1  0.50734798  0.50806510  0.89383778  1
  O  O308  1  0.49188555  1.01885548  0.37647218  1
  O  O309  1  0.48362560  0.97902034  0.85920966  1
  O  O310  1  1.00009587  0.48324554  0.36956153  1
  O  O311  1  0.98854772  0.50364815  0.86388759  1
  O  O312  1  0.97845773  0.99524961  0.37765992  1
  O  O313  1  0.99556339  1.00331040  0.88305245  1
  O  O314  1  -0.00677706  0.01121230  0.12002888  1
  O  O315  1  0.01137926  0.01026348  0.62823659  1
  O  O316  1  0.01456472  0.51345759  0.13139343  1
  O  O317  1  -0.01224454  0.54398438  0.62357153  1
  O  O318  1  0.49798973  -0.00460662  0.10679784  1
  O  O319  1  0.49786672  -0.07004099  0.60711501  1
  O  O320  1  0.52747380  0.46884778  0.09111032  1
  O  O321  1  0.49555693  0.51489021  0.62093176  1
  O  O322  1  0.24706558  0.38510612  0.24177932  1
  O  O323  1  0.24693714  0.38756345  0.74144269  1
  O  O324  1  0.21641027  0.88808380  0.27156339  1
  O  O325  1  0.24637300  0.88935345  0.75162067  1
  O  O326  1  0.77440073  0.35347897  0.21802671  1
  O  O327  1  0.74660109  0.38240935  0.74727924  1
  O  O328  1  0.73952548  0.89238269  0.25214338  1
  O  O329  1  0.74897163  0.89084801  0.75449257  1
  O  O330  1  0.23300928  0.13064686  0.26203518  1
  O  O331  1  0.24308372  0.09946077  0.75009718  1
  O  O332  1  0.23943213  0.60882462  0.27005111  1
  O  O333  1  0.24414681  0.61248102  0.76245833  1
  O  O334  1  0.76014851  0.12063516  0.26082146  1
  O  O335  1  0.74741784  0.11497567  0.76279814  1
  O  O336  1  0.69400355  0.61807792  0.27798514  1
  O  O337  1  0.73720536  0.61138820  0.75440051  1
  O  O338  1  0.36008547  0.12671687  0.37196302  1
  O  O339  1  0.36664512  0.11426387  0.87782036  1
  O  O340  1  0.36724191  0.61348416  0.38676794  1
  O  O341  1  0.37649994  0.63102482  0.87265971  1
  O  O342  1  0.86754770  0.11845810  0.37044553  1
  O  O343  1  0.87231318  0.11546136  0.88031589  1
  O  O344  1  0.87705312  0.63210938  0.34922274  1
  O  O345  1  0.87563197  0.60268418  0.89213515  1
  O  O346  1  0.12845512  0.39149117  0.12923538  1
  O  O347  1  0.09024599  0.39083881  0.63602590  1
  O  O348  1  0.10420304  0.88579472  0.14898284  1
  O  O349  1  0.10946551  0.88498144  0.62140075  1
  O  O350  1  0.64442050  0.35171654  0.11520807  1
  O  O351  1  0.64322750  0.37071236  0.62998731  1
  O  O352  1  0.62014787  0.89703629  0.13516114  1
  O  O353  1  0.64302534  0.87401307  0.64786078  1
  O  O354  1  0.10955452  0.25599975  0.26291961  1
  O  O355  1  0.11326394  0.25357182  0.75772674  1
  O  O356  1  0.12458706  0.76701376  0.29562061  1
  O  O357  1  0.12655476  0.75360784  0.76642421  1
  O  O358  1  0.63347969  0.27885496  0.26417621  1
  O  O359  1  0.63536734  0.26360084  0.75441475  1
  O  O360  1  0.62830565  0.77237569  0.22887458  1
  O  O361  1  0.62792947  0.75683237  0.76328993  1
  O  O362  1  0.34679642  0.23741106  0.22454278  1
  O  O363  1  0.36605810  0.24692722  0.72689246  1
  O  O364  1  0.33578025  0.75581872  0.26065024  1
  O  O365  1  0.39704417  0.75422433  0.74499367  1
  O  O366  1  0.88361637  0.24192018  0.24560938  1
  O  O367  1  0.88777346  0.24367343  0.75639597  1
  O  O368  1  0.87677807  0.75352896  0.23797912  1
  O  O369  1  0.84022802  0.71128046  0.79976420  1
  O  O370  1  0.37837587  0.48159550  0.51370791  1
  O  O371  1  0.39130261  0.52812243  1.01473039  1
  O  O372  1  0.37600646  1.00629332  0.47855073  1
  O  O373  1  0.39125595  0.99356293  0.97950508  1
  O  O374  1  0.86882754  0.49075654  0.49914903  1
  O  O375  1  0.87473734  0.48505271  0.99457412  1
  O  O376  1  0.86348598  1.00464624  0.48704341  1
  O  O377  1  0.88245378  0.99632795  0.99537701  1
  O  O378  1  0.11082999  -0.00648337  0.02396393  1
  O  O379  1  0.13076282  0.00971080  0.51484489  1
  O  O380  1  0.13365715  0.49545878  0.01633827  1
  O  O381  1  0.11521003  0.50433085  0.50831048  1
  O  O382  1  0.62576817  -0.01058642  0.01242690  1
  O  O383  1  0.62557637  0.02112122  0.49192881  1
  O  O384  1  0.65668477  0.51482645  -0.00500888  1
  O  O385  1  0.61056626  0.48367981  0.51166005  1
  O  O386  1  0.36529748  0.38260687  0.12535688  1
  O  O387  1  0.38012543  0.35857465  0.61456662  1
  O  O388  1  0.36460621  0.85151310  0.13418242  1
  O  O389  1  0.33133919  0.84760404  0.58891474  1
  O  O390  1  0.88794274  0.36914845  0.11028840  1
  O  O391  1  0.87742013  0.38090939  0.61123382  1
  O  O392  1  0.89546632  0.86578782  0.11600304  1
  O  O393  1  0.86393074  0.89170338  0.62418418  1
  O  O394  1  0.12742848  0.13086812  0.38420741  1
  O  O395  1  0.12101466  0.13811322  0.87470720  1
  O  O396  1  0.14093760  0.61587954  0.39535048  1
  O  O397  1  0.11191962  0.63757157  0.87951955  1
  O  O398  1  0.63493884  0.13894038  0.37330471  1
  O  O399  1  0.64586250  0.12732169  0.88086484  1
  O  O400  1  0.63534075  0.62501081  0.32649007  1
  O  O401  1  0.64272299  0.63692889  0.88351419  1
