# generated using pymatgen
data_V73Zn73O256
_symmetry_space_group_name_H-M   'P 1'
_cell_length_a   16.97577484
_cell_length_b   16.99792500
_cell_length_c   16.91911552
_cell_angle_alpha   90.36565057
_cell_angle_beta   89.33929045
_cell_angle_gamma   90.07993708
_symmetry_Int_Tables_number   1
_chemical_formula_structural   V73Zn73O256
_chemical_formula_sum   'V73 Zn73 O256'
_cell_volume   4881.63238163
_cell_formula_units_Z   1
loop_
 _symmetry_equiv_pos_site_id
 _symmetry_equiv_pos_as_xyz
  1  'x, y, z'
loop_
 _atom_site_type_symbol
 _atom_site_label
 _atom_site_symmetry_multiplicity
 _atom_site_fract_x
 _atom_site_fract_y
 _atom_site_fract_z
 _atom_site_occupancy
  V  V0  1  0.50545201  0.63416651  0.62821364  1
  V  V1  1  0.13650421  0.13669063  0.01052952  1
  V  V2  1  0.24052713  0.64672196  0.38335830  1
  V  V3  1  0.38384893  0.61787039  0.75702097  1
  V  V4  1  0.23674344  0.23811076  0.49950130  1
  V  V5  1  0.87566676  0.63243619  0.25350379  1
  V  V6  1  0.50855642  0.50081394  0.50178486  1
  V  V7  1  0.75051991  0.24630830  -0.00229246  1
  V  V8  1  0.36769280  -0.00277182  0.37516836  1
  V  V9  1  0.32753538  -0.04949489  0.82631577  1
  V  V10  1  0.36833056  0.12604459  0.25157320  1
  V  V11  1  0.75619015  0.51416505  0.76349530  1
  V  V12  1  0.48537412  0.49891068  -0.00333357  1
  V  V13  1  0.88018435  0.25848683  0.62491655  1
  V  V14  1  0.63217784  -0.01899913  0.13410461  1
  V  V15  1  0.51102769  0.85926450  0.86904618  1
  V  V16  1  0.48670828  0.37546242  0.87980120  1
  V  V17  1  0.36748199  0.25281977  0.11939761  1
  V  V18  1  0.74350083  0.37494342  0.12217673  1
  V  V19  1  0.02155779  0.75211085  0.74827246  1
  V  V20  1  0.36899291  0.74241642  0.13573521  1
  V  V21  1  0.12502806  0.61610013  0.00455132  1
  V  V22  1  -0.00471618  0.50039579  0.49428995  1
  V  V23  1  0.01514326  0.88960677  0.86453628  1
  V  V24  1  0.49624657  -0.00637997  -0.00437680  1
  V  V25  1  0.88201761  0.37897155  -0.01452773  1
  V  V26  1  0.87442927  0.12419132  0.73351090  1
  V  V27  1  0.51626867  0.74602142  0.25115174  1
  V  V28  1  0.51262534  0.37038600  0.36845835  1
  V  V29  1  0.75746673  0.11718339  0.87277863  1
  V  V30  1  0.35958959  0.75032298  0.62349758  1
  V  V31  1  0.49735519  0.24595065  0.74642963  1
  V  V32  1  0.10434337  0.77665613  0.37696320  1
  V  V33  1  0.62817409  0.50290332  0.11284691  1
  V  V34  1  0.74351446  0.72628255  -0.01294635  1
  V  V35  1  0.63432902  0.49577082  0.62425681  1
  V  V36  1  -0.00152225  0.62763015  0.12518925  1
  V  V37  1  0.74427224  0.87278061  0.62975842  1
  V  V38  1  0.51008335  0.87011136  0.36947441  1
  V  V39  1  0.23153849  0.50460654  0.74875166  1
  V  V40  1  0.24373601  0.75352473  0.00484299  1
  V  V41  1  0.25540687  0.13913240  0.88678877  1
  V  V42  1  -0.00270413  0.02358678  0.48881987  1
  V  V43  1  0.86921704  0.88224996  -0.00793296  1
  V  V44  1  0.88412874  0.88258824  0.48863248  1
  V  V45  1  0.50182775  0.12261692  0.12815848  1
  V  V46  1  0.74248676  0.64166266  0.36873950  1
  V  V47  1  0.37494340  0.87286746  0.01180032  1
  V  V48  1  0.63101755  0.37394532  0.74639211  1
  V  V49  1  0.74797302  0.49825812  0.25043040  1
  V  V50  1  0.62234540  0.24889518  0.87486864  1
  V  V51  1  0.37409465  0.12570434  0.75525953  1
  V  V52  1  0.50338860  0.62435539  0.12371375  1
  V  V53  1  0.00552237  0.12819388  0.12880276  1
  V  V54  1  -0.00861551  0.26643529  0.25947096  1
  V  V55  1  0.85851991  0.11406173  0.25809527  1
  V  V56  1  0.62534259  0.11711594  0.00112874  1
  V  V57  1  0.24164042  0.38435341  0.63257900  1
  V  V58  1  0.62816935  0.63319748  0.49589157  1
  V  V59  1  0.74555387  -0.00306131  0.75178839  1
  V  V60  1  0.74376083  0.25086581  0.51737922  1
  V  V61  1  0.24331035  -0.01293117  0.24722054  1
  V  V62  1  0.10755125  -0.00162357  0.63337950  1
  V  V63  1  0.63460841  0.23872594  0.36990460  1
  V  V64  1  0.49460568  0.00400541  0.49979819  1
  V  V65  1  0.37809074  0.24617799  0.62650380  1
  V  V66  1  0.88254046  0.75090086  0.63480185  1
  V  V67  1  0.38126936  0.37951886  0.50912218  1
  V  V68  1  0.38002497  0.50684212  0.35992855  1
  V  V69  1  0.12603033  -0.01222772  0.12654146  1
  V  V70  1  0.87448002  0.24497955  0.12376195  1
  V  V71  1  0.24903815  0.62248204  0.87883272  1
  V  V72  1  0.61564514  0.00337896  0.62953803  1
  Zn  Zn73  1  0.87208166  0.75719474  0.11851961  1
  Zn  Zn74  1  0.31224834  0.31336866  -0.04451437  1
  Zn  Zn75  1  0.37141051  0.86003158  0.49660645  1
  Zn  Zn76  1  0.75331770  0.75801689  0.49420732  1
  Zn  Zn77  1  -0.00354617  0.00689623  -0.00840934  1
  Zn  Zn78  1  0.50565849  0.25339639  0.24572399  1
  Zn  Zn79  1  0.12671681  0.49507841  0.13007932  1
  Zn  Zn80  1  0.23703081  0.37358132  0.13634552  1
  Zn  Zn81  1  0.62606424  0.11897969  0.49486320  1
  Zn  Zn82  1  0.18676254  0.24147457  0.29192651  1
  Zn  Zn83  1  0.17507970  0.13480662  0.70485202  1
  Zn  Zn84  1  0.18760946  0.68089736  0.20317084  1
  Zn  Zn85  1  0.18277964  0.68072946  0.67875828  1
  Zn  Zn86  1  0.68695338  0.18500871  0.18940002  1
  Zn  Zn87  1  0.68161666  0.17951157  0.68780542  1
  Zn  Zn88  1  0.69168808  0.69241740  0.17332509  1
  Zn  Zn89  1  0.69314553  0.68373554  0.68680361  1
  Zn  Zn90  1  0.29600464  0.36065608  0.33378380  1
  Zn  Zn91  1  0.11150459  0.27591470  0.83092436  1
  Zn  Zn92  1  0.31012629  0.81324080  0.31327509  1
  Zn  Zn93  1  0.32511091  0.78901924  0.81852121  1
  Zn  Zn94  1  0.84237992  0.33093903  0.30049483  1
  Zn  Zn95  1  0.81125957  0.30864358  0.80627502  1
  Zn  Zn96  1  0.93332307  0.81133514  0.30646379  1
  Zn  Zn97  1  0.81797043  0.81678310  0.81967778  1
  Zn  Zn98  1  0.21019009  0.48376605  0.46312757  1
  Zn  Zn99  1  0.19928262  0.43825228  0.93060979  1
  Zn  Zn100  1  0.16889173  0.95448221  0.43151984  1
  Zn  Zn101  1  0.18217189  0.93777781  0.94372615  1
  Zn  Zn102  1  0.72291705  0.41022527  0.41580351  1
  Zn  Zn103  1  0.68685510  0.43498807  0.93653282  1
  Zn  Zn104  1  0.68077710  0.92750101  0.44832176  1
  Zn  Zn105  1  0.68674001  0.92834340  0.93754561  1
  Zn  Zn106  1  0.31245459  0.05997690  0.06905888  1
  Zn  Zn107  1  0.29711274  0.06201328  0.56089452  1
  Zn  Zn108  1  0.30536720  0.55483210  0.07741678  1
  Zn  Zn109  1  0.31759769  0.56798618  0.56551361  1
  Zn  Zn110  1  0.81434444  0.05507364  0.06950048  1
  Zn  Zn111  1  0.80765627  0.06441987  0.55187688  1
  Zn  Zn112  1  0.82105816  0.56020936  0.05205068  1
  Zn  Zn113  1  0.80661466  0.57166768  0.56598290  1
  Zn  Zn114  1  0.44207747  0.43274666  0.18295915  1
  Zn  Zn115  1  0.44217452  0.43927325  0.69310909  1
  Zn  Zn116  1  0.44316757  0.93547446  0.18775215  1
  Zn  Zn117  1  0.44013501  0.92744650  0.68720564  1
  Zn  Zn118  1  0.93409055  0.44430972  0.17227237  1
  Zn  Zn119  1  0.92325175  0.44339881  0.67753681  1
  Zn  Zn120  1  0.93598653  0.93873287  0.18022614  1
  Zn  Zn121  1  0.93515567  0.93969320  0.68406419  1
  Zn  Zn122  1  0.06692194  0.08330517  0.31159080  1
  Zn  Zn123  1  0.05057282  0.09346278  0.82515922  1
  Zn  Zn124  1  0.05588291  0.60439364  0.32848567  1
  Zn  Zn125  1  0.04988953  0.57839709  0.82085497  1
  Zn  Zn126  1  0.56081075  0.05739723  0.31175529  1
  Zn  Zn127  1  0.55901232  0.05722829  0.81345552  1
  Zn  Zn128  1  0.56687164  0.56013574  0.30666289  1
  Zn  Zn129  1  0.56480792  0.55698813  0.81384413  1
  Zn  Zn130  1  0.43222938  0.18678501  0.43671575  1
  Zn  Zn131  1  0.44244020  0.18137596  0.93812279  1
  Zn  Zn132  1  0.43912910  0.68537558  0.43769941  1
  Zn  Zn133  1  0.43690464  0.68358631  0.94508753  1
  Zn  Zn134  1  0.92040903  0.19084563  0.43595664  1
  Zn  Zn135  1  0.96589308  0.21967417  0.94984667  1
  Zn  Zn136  1  0.93557908  0.69181447  0.45156933  1
  Zn  Zn137  1  0.93655292  0.69637718  0.92332939  1
  Zn  Zn138  1  0.09230310  0.34784381  0.01292260  1
  Zn  Zn139  1  0.09109001  0.26365768  0.62771501  1
  Zn  Zn140  1  0.04673271  0.81454588  0.06239507  1
  Zn  Zn141  1  0.06905159  0.82586149  0.56443725  1
  Zn  Zn142  1  0.55805185  0.31308522  0.06125799  1
  Zn  Zn143  1  0.56695834  0.31177404  0.55934502  1
  Zn  Zn144  1  0.56761616  0.80434993  0.05350597  1
  Zn  Zn145  1  0.55906637  0.81668908  0.55920633  1
  O  O146  1  0.11867355  0.12143531  0.11908367  1
  O  O147  1  0.19484316  0.06628073  0.61540940  1
  O  O148  1  0.12210355  0.62349967  0.12316655  1
  O  O149  1  0.13844140  0.60738137  0.61074659  1
  O  O150  1  0.61864411  0.12252407  0.11284173  1
  O  O151  1  0.61913304  0.10532013  0.62328335  1
  O  O152  1  0.61133104  0.61753081  0.12512242  1
  O  O153  1  0.62325807  0.61699230  0.61789294  1
  O  O154  1  0.39651199  0.38540216  0.39002160  1
  O  O155  1  0.38898131  0.36488638  0.87934348  1
  O  O156  1  0.37962583  0.88427858  0.37762956  1
  O  O157  1  0.38105430  0.88005402  0.88777339  1
  O  O158  1  0.83120437  0.38053427  0.39681634  1
  O  O159  1  0.86328424  0.36553791  0.88672613  1
  O  O160  1  0.87262237  0.86604388  0.39055818  1
  O  O161  1  0.88885096  0.87953033  0.88497200  1
  O  O162  1  0.25704002  -0.00275895  0.36281661  1
  O  O163  1  0.26379393  0.00130596  0.88760952  1
  O  O164  1  0.27977181  0.47467338  0.36902801  1
  O  O165  1  0.25268734  0.51261708  0.86174512  1
  O  O166  1  0.74477113  -0.01873792  0.35180750  1
  O  O167  1  0.73393332  0.00604252  0.86239011  1
  O  O168  1  0.73788964  0.50565633  0.35235856  1
  O  O169  1  0.73834234  0.50090488  0.86271390  1
  O  O170  1  0.24129673  0.49477802  0.14590764  1
  O  O171  1  0.25258432  0.49795316  0.63755965  1
  O  O172  1  0.23934432  1.00027654  0.13611350  1
  O  O173  1  0.26046446  0.93818019  0.57804844  1
  O  O174  1  0.74433413  0.49351959  0.12002967  1
  O  O175  1  0.73787583  0.50507227  0.63011888  1
  O  O176  1  0.73021230  0.99871572  0.11811336  1
  O  O177  1  0.73437871  0.99194523  0.62922956  1
  O  O178  1  -0.05039350  0.36365360  0.24954788  1
  O  O179  1  0.00717320  0.40025530  0.75390337  1
  O  O180  1  -0.00394478  0.86645013  0.23594584  1
  O  O181  1  -0.00428747  0.87747873  0.75888471  1
  O  O182  1  0.50317262  0.37473384  0.26591132  1
  O  O183  1  0.50824394  0.36773207  0.76130450  1
  O  O184  1  0.49652506  0.86216955  0.26076707  1
  O  O185  1  0.49466920  0.87742927  0.77112049  1
  O  O186  1  0.49461935  0.11691539  0.23576693  1
  O  O187  1  0.48955200  0.13539958  0.76237154  1
  O  O188  1  0.50352068  0.63846288  0.24396066  1
  O  O189  1  0.48991602  0.61464324  0.74409826  1
  O  O190  1  0.98964708  0.14134191  0.23999709  1
  O  O191  1  0.97035449  0.11706301  0.73987808  1
  O  O192  1  0.98214591  0.62342284  0.24635328  1
  O  O193  1  1.00774002  0.65265120  0.74214024  1
  O  O194  1  0.38788076  0.24765215  0.01303817  1
  O  O195  1  0.38756419  0.26586097  0.51078882  1
  O  O196  1  0.36841929  0.75479311  0.01358906  1
  O  O197  1  0.38263935  0.74322380  0.51800658  1
  O  O198  1  0.85878027  0.24060403  0.00322582  1
  O  O199  1  0.85442559  0.24646951  0.51504212  1
  O  O200  1  0.87096242  0.75728317  -0.00698838  1
  O  O201  1  0.87205543  0.76522416  0.51272967  1
  O  O202  1  0.14103269  0.22844870  0.52703647  1
  O  O203  1  0.13098040  0.23357619  1.00940514  1
  O  O204  1  0.12263706  0.77145792  0.48077941  1
  O  O205  1  0.14300410  0.74587453  1.01530827  1
  O  O206  1  0.62364609  0.23919021  0.49229058  1
  O  O207  1  0.63133588  0.24085082  0.99349097  1
  O  O208  1  0.63010993  0.73618596  0.50616461  1
  O  O209  1  0.64125763  0.73960390  0.99995984  1
  O  O210  1  0.50061986  0.23688514  0.12622788  1
  O  O211  1  0.49456160  0.25380175  0.63810725  1
  O  O212  1  0.49548898  0.74241723  0.13407971  1
  O  O213  1  0.50985695  0.73531460  0.62699295  1
  O  O214  1  0.98087759  0.24371813  0.12798709  1
  O  O215  1  0.97915095  0.25345833  0.61975769  1
  O  O216  1  1.00089124  0.73263841  0.12736396  1
  O  O217  1  0.98909946  0.76887977  0.63467039  1
  O  O218  1  -0.02071110  0.25218389  0.35873856  1
  O  O219  1  0.02569824  0.20454670  0.85853273  1
  O  O220  1  0.00091331  0.74355398  0.37350984  1
  O  O221  1  0.00190788  0.76652060  0.85411914  1
  O  O222  1  0.50304397  0.26276010  0.37626192  1
  O  O223  1  0.50814415  0.25485651  0.87117087  1
  O  O224  1  0.49385023  0.75768234  0.36237283  1
  O  O225  1  0.48873434  0.76143218  0.88186714  1
  O  O226  1  0.27964518  0.14810457  0.48649431  1
  O  O227  1  0.24851745  0.12200265  0.99879086  1
  O  O228  1  0.25191171  0.59098809  0.47744968  1
  O  O229  1  0.24648524  0.63039507  1.00016223  1
  O  O230  1  0.74088671  0.13816407  0.50027771  1
  O  O231  1  0.74079132  0.12691114  0.99258431  1
  O  O232  1  0.74534813  0.62427413  0.48229567  1
  O  O233  1  0.76054578  0.62592365  0.98634283  1
  O  O234  1  0.25258694  0.38534223  0.01471642  1
  O  O235  1  0.27198720  0.40039826  0.51989243  1
  O  O236  1  0.25873171  0.85983995  0.00001984  1
  O  O237  1  0.25258939  0.89629084  0.51269213  1
  O  O238  1  0.75443266  0.36189749  0.00161124  1
  O  O239  1  0.72622537  0.35141203  0.51075157  1
  O  O240  1  0.76668511  0.87436170  -0.00610792  1
  O  O241  1  0.75882278  0.87712615  0.51089221  1
  O  O242  1  0.10229616  0.49468992  0.27664609  1
  O  O243  1  0.13369702  0.51934003  0.75815337  1
  O  O244  1  0.13737163  1.00514941  0.24161236  1
  O  O245  1  0.10550895  1.03695745  0.73214239  1
  O  O246  1  0.63833297  0.50608075  0.22968936  1
  O  O247  1  0.63106153  0.49234848  0.74338919  1
  O  O248  1  0.61655657  0.99783392  0.23310859  1
  O  O249  1  0.62537047  0.99888518  0.73670683  1
  O  O250  1  0.36848578  0.00237339  0.25249411  1
  O  O251  1  0.38186627  0.00821679  0.75438234  1
  O  O252  1  0.39435741  0.50146599  0.26140013  1
  O  O253  1  0.36807127  0.51573382  0.74312995  1
  O  O254  1  0.87989536  0.01709992  0.23757174  1
  O  O255  1  0.85248812  0.01131067  0.73652767  1
  O  O256  1  0.85371031  0.51927576  0.23409191  1
  O  O257  1  0.85378132  0.49427889  0.74637957  1
  O  O258  1  0.12404028  0.43816372  0.31898400  1
  O  O259  1  0.12010811  0.36386732  0.90022092  1
  O  O260  1  0.11446343  0.87730019  0.36987397  1
  O  O261  1  0.11525239  0.87912395  0.87467088  1
  O  O262  1  0.61605164  0.36420207  0.38122747  1
  O  O263  1  0.61851701  0.36068707  0.87040130  1
  O  O264  1  0.60882557  0.87426768  0.37667899  1
  O  O265  1  0.61033397  0.86846569  0.88102212  1
  O  O266  1  0.38629920  0.12543939  0.13091110  1
  O  O267  1  0.36235336  0.13775648  0.63960764  1
  O  O268  1  0.38799647  0.63557698  0.12166100  1
  O  O269  1  0.38672264  0.63202384  0.63148865  1
  O  O270  1  0.88331178  0.13053490  0.12361536  1
  O  O271  1  0.85999060  0.13225728  0.63070180  1
  O  O272  1  0.88987239  0.62290430  0.12597126  1
  O  O273  1  0.86608790  0.65255323  0.61843817  1
  O  O274  1  0.27116533  0.24026095  0.11958184  1
  O  O275  1  0.26773047  0.27320574  0.60776203  1
  O  O276  1  0.26364626  0.73725605  0.12116496  1
  O  O277  1  0.26116316  0.74573887  0.62354423  1
  O  O278  1  0.74993829  0.25393771  0.11451244  1
  O  O279  1  0.74174794  0.24723080  0.62073562  1
  O  O280  1  0.75924578  0.74137059  0.10040133  1
  O  O281  1  0.75038835  0.76457432  0.62745206  1
  O  O282  1  0.24098989  0.28450805  0.40761793  1
  O  O283  1  0.25115757  0.23825401  0.88631021  1
  O  O284  1  0.26744715  0.74476235  0.39256288  1
  O  O285  1  0.25878455  0.73695424  0.89670681  1
  O  O286  1  0.73252043  0.24871090  0.38278137  1
  O  O287  1  0.73778177  0.23840923  0.87977053  1
  O  O288  1  0.74153691  0.73925966  0.37350324  1
  O  O289  1  0.75556553  0.75338679  0.88715968  1
  O  O290  1  0.01572005  0.12595234  0.01135507  1
  O  O291  1  -0.01714944  0.12111860  0.50278799  1
  O  O292  1  0.02036202  0.63233089  0.01356697  1
  O  O293  1  -0.00227112  0.60677199  0.50575962  1
  O  O294  1  0.50750635  0.11341571  0.00622160  1
  O  O295  1  0.49597372  0.10636411  0.49452500  1
  O  O296  1  0.49850390  0.60942718  0.00723612  1
  O  O297  1  0.51087158  0.61925829  0.50659745  1
  O  O298  1  0.50056878  0.38506615  0.49628014  1
  O  O299  1  0.50523668  0.38886523  0.99422869  1
  O  O300  1  0.49422196  0.87921668  0.48624251  1
  O  O301  1  0.49111151  0.87581406  0.99420048  1
  O  O302  1  0.97788322  0.40115336  0.47315581  1
  O  O303  1  0.97641001  0.33781431  0.99277273  1
  O  O304  1  0.98448125  0.88371674  0.50286530  1
  O  O305  1  0.99834632  0.87855839  0.98166215  1
  O  O306  1  0.50196193  0.49209062  0.38152458  1
  O  O307  1  0.50529697  0.49281129  0.88855864  1
  O  O308  1  0.49198561  0.98545173  0.37822688  1
  O  O309  1  0.50291563  0.99061431  0.89058776  1
  O  O310  1  0.99150468  0.51946201  0.39061121  1
  O  O311  1  1.00912784  0.43762866  0.81909712  1
  O  O312  1  1.01030795  1.01755409  0.38781273  1
  O  O313  1  1.00719668  0.99508827  0.87355882  1
  O  O314  1  0.01535121  0.01401023  0.12868973  1
  O  O315  1  0.00209253  0.00492265  0.61456850  1
  O  O316  1  0.01010777  0.51841884  0.13351038  1
  O  O317  1  -0.00117387  0.48559814  0.59853026  1
  O  O318  1  0.50914896  0.00438519  0.11535392  1
  O  O319  1  0.50986612  -0.01480715  0.61546637  1
  O  O320  1  0.50643571  0.50337604  0.11542273  1
  O  O321  1  0.51158771  0.51036138  0.62040551  1
  O  O322  1  0.24090598  0.32851590  0.24569288  1
  O  O323  1  0.24544535  0.39718804  0.74021361  1
  O  O324  1  0.25360235  0.88873848  0.24793776  1
  O  O325  1  0.27492615  0.88591412  0.77311585  1
  O  O326  1  0.75923815  0.39145834  0.23456256  1
  O  O327  1  0.73230473  0.37623429  0.75466147  1
  O  O328  1  0.75803301  0.93535410  0.29578822  1
  O  O329  1  0.75199321  0.88410540  0.73792006  1
  O  O330  1  0.26976145  0.11312742  0.24663927  1
  O  O331  1  0.26519927  0.12048400  0.77578269  1
  O  O332  1  0.24797263  0.62052160  0.28458512  1
  O  O333  1  0.25708396  0.62001517  0.75830266  1
  O  O334  1  0.75880571  0.11842859  0.24041885  1
  O  O335  1  0.74366061  0.11398512  0.75729100  1
  O  O336  1  0.74944582  0.62302419  0.25542918  1
  O  O337  1  0.75014970  0.61354764  0.75122954  1
  O  O338  1  0.38828177  0.11154509  0.35811240  1
  O  O339  1  0.36753594  0.12621947  0.87322630  1
  O  O340  1  0.37796765  0.60693278  0.38151466  1
  O  O341  1  0.37025496  0.62931350  0.86279781  1
  O  O342  1  0.86738729  0.12613318  0.35719087  1
  O  O343  1  0.85594441  0.12743266  0.85920384  1
  O  O344  1  0.85848403  0.63182802  0.36096935  1
  O  O345  1  0.95791309  0.59406660  0.88382711  1
  O  O346  1  0.11953053  0.38237241  0.11555402  1
  O  O347  1  0.14518536  0.37292471  0.61890624  1
  O  O348  1  0.11718677  0.89048843  0.11895227  1
  O  O349  1  0.12341799  0.89957923  0.63556638  1
  O  O350  1  0.63699111  0.38069847  0.11775426  1
  O  O351  1  0.61290014  0.38580262  0.63663153  1
  O  O352  1  0.61686081  0.88315987  0.11947302  1
  O  O353  1  0.63723802  0.88160161  0.61745574  1
  O  O354  1  0.08756233  0.27643095  0.24163087  1
  O  O355  1  0.13527204  0.23585287  0.72710867  1
  O  O356  1  0.14039979  0.74998292  0.28063678  1
  O  O357  1  0.12144164  0.75805772  0.73671190  1
  O  O358  1  0.62254394  0.24561872  0.26355664  1
  O  O359  1  0.61635329  0.25215383  0.75650269  1
  O  O360  1  0.61418317  0.75007409  0.24323366  1
  O  O361  1  0.61973508  0.71471791  0.78513459  1
  O  O362  1  0.38480580  0.22933395  0.24000467  1
  O  O363  1  0.38514931  0.24224996  0.74369974  1
  O  O364  1  0.37791009  0.75278146  0.23678518  1
  O  O365  1  0.37406701  0.72941876  0.73584771  1
  O  O366  1  0.86528627  0.23613296  0.23529723  1
  O  O367  1  0.85942045  0.23438420  0.73602277  1
  O  O368  1  0.86674264  0.73412269  0.23911716  1
  O  O369  1  0.87399197  0.76054084  0.73631902  1
  O  O370  1  0.39711858  0.49603138  0.50482026  1
  O  O371  1  0.38723717  0.50020748  1.00748350  1
  O  O372  1  0.37840458  1.00042416  0.48953973  1
  O  O373  1  0.38529926  0.98526210  1.01615480  1
  O  O374  1  0.89025739  0.51231979  0.50553046  1
  O  O375  1  0.88542799  0.47704104  1.00421729  1
  O  O376  1  0.88213628  0.99216646  0.50104756  1
  O  O377  1  0.87991289  0.99005633  1.00254391  1
  O  O378  1  0.12856538  0.00920902  0.01783231  1
  O  O379  1  0.10339185  0.00490185  0.51064237  1
  O  O380  1  0.13099343  0.51661070  0.00077165  1
  O  O381  1  0.09764226  0.48979318  0.48820869  1
  O  O382  1  0.61731437  0.00528801  0.00535635  1
  O  O383  1  0.61435122  -0.00060732  0.50833809  1
  O  O384  1  0.62035395  0.49845377  0.00901926  1
  O  O385  1  0.61907374  0.50931501  0.50748375  1
  O  O386  1  0.37768745  0.35423253  0.13637005  1
  O  O387  1  0.38047251  0.36909659  0.62454810  1
  O  O388  1  0.38421098  0.85796516  0.11939534  1
  O  O389  1  0.38359796  0.85247950  0.62477878  1
  O  O390  1  0.86008073  0.36309109  0.10905861  1
  O  O391  1  0.86428320  0.35670459  0.63680756  1
  O  O392  1  0.89311912  0.86946125  0.09878612  1
  O  O393  1  0.85944684  0.87267386  0.61819363  1
  O  O394  1  0.14875896  0.15175950  0.34180236  1
  O  O395  1  0.14908038  0.11377597  0.89618373  1
  O  O396  1  0.13519890  0.64564521  0.39275272  1
  O  O397  1  0.13787380  0.62812553  0.89374786  1
  O  O398  1  0.61382903  0.13532615  0.37520539  1
  O  O399  1  0.62431996  0.13144791  0.88433561  1
  O  O400  1  0.63335914  0.62072523  0.38190846  1
  O  O401  1  0.61850624  0.66412300  0.84127364  1
