# generated using pymatgen
data_V73Zn73O256
_symmetry_space_group_name_H-M   'P 1'
_cell_length_a   16.91463561
_cell_length_b   16.92309645
_cell_length_c   16.97575348
_cell_angle_alpha   90.12572201
_cell_angle_beta   90.24989127
_cell_angle_gamma   89.86402010
_symmetry_Int_Tables_number   1
_chemical_formula_structural   V73Zn73O256
_chemical_formula_sum   'V73 Zn73 O256'
_cell_volume   4859.20415807
_cell_formula_units_Z   1
loop_
 _symmetry_equiv_pos_site_id
 _symmetry_equiv_pos_as_xyz
  1  'x, y, z'
loop_
 _atom_site_type_symbol
 _atom_site_label
 _atom_site_symmetry_multiplicity
 _atom_site_fract_x
 _atom_site_fract_y
 _atom_site_fract_z
 _atom_site_occupancy
  V  V0  1  0.86858925  0.62133032  0.74344748  1
  V  V1  1  0.50242982  0.25927082  0.75701152  1
  V  V2  1  0.12582376  0.37737746  0.23366100  1
  V  V3  1  0.74668028  0.13061522  0.39164036  1
  V  V4  1  0.13320661  0.75474747  0.37502498  1
  V  V5  1  0.62785305  -0.01634398  0.62918991  1
  V  V6  1  0.39059406  0.37190713  0.50399656  1
  V  V7  1  0.87007472  0.87125723  0.51615650  1
  V  V8  1  0.37588008  0.14293244  0.24842352  1
  V  V9  1  0.37737568  0.72441259  0.63369738  1
  V  V10  1  0.00805975  -0.00116223  0.00981357  1
  V  V11  1  0.74522691  -0.01686947  0.74843533  1
  V  V12  1  0.12489382  0.87722141  0.24747510  1
  V  V13  1  0.38440750  0.88472538  -0.00928430  1
  V  V14  1  0.37499853  0.61234098  0.77841397  1
  V  V15  1  0.50462715  0.87952222  0.85557896  1
  V  V16  1  0.61972044  0.11818314  -0.00434336  1
  V  V17  1  0.74450591  0.25240796  -0.00533246  1
  V  V18  1  0.50809562  0.87390295  0.37412389  1
  V  V19  1  0.50672886  0.00090256  0.50033593  1
  V  V20  1  0.63860045  0.88210547  0.24484896  1
  V  V21  1  0.38725275  0.37038933  0.00518669  1
  V  V22  1  0.37648740  0.74811740  0.12208116  1
  V  V23  1  0.75043700  0.37725169  0.12096894  1
  V  V24  1  0.74526352  0.12828960  0.86895873  1
  V  V25  1  0.37703757  -0.00112817  0.37323953  1
  V  V26  1  0.37780320  0.49543923  0.37765001  1
  V  V27  1  0.24956900  0.00039200  0.24474644  1
  V  V28  1  0.87545908  0.13236468  0.74077282  1
  V  V29  1  0.76086304  0.01319496  0.24452291  1
  V  V30  1  0.25046821  0.73664589  -0.00811139  1
  V  V31  1  0.50804764  0.63225861  0.11709199  1
  V  V32  1  0.88217626  -0.00577085  0.87350242  1
  V  V33  1  0.88594766  -0.01204144  0.37857353  1
  V  V34  1  0.13915001  0.24430959  0.85988012  1
  V  V35  1  0.50676730  0.12948131  0.13997611  1
  V  V36  1  0.00813485  0.63656709  0.62829411  1
  V  V37  1  -0.00586489  0.50114748  0.49986491  1
  V  V38  1  0.63092520  0.51877468  0.12510228  1
  V  V39  1  0.12200916  0.26431977  0.37976053  1
  V  V40  1  0.88200822  0.24855494  0.13732444  1
  V  V41  1  0.62423645  0.36631571  0.25405512  1
  V  V42  1  0.01060617  0.61938875  0.10439851  1
  V  V43  1  0.37344543  0.24536946  0.61982448  1
  V  V44  1  0.89029299  0.37562951  -0.00366092  1
  V  V45  1  0.50502250  0.12111683  0.62470212  1
  V  V46  1  0.85465121  0.35852228  0.50244753  1
  V  V47  1  0.37227825  0.12430396  0.76255212  1
  V  V48  1  0.24828920  0.87812255  0.12003707  1
  V  V49  1  0.12458308  -0.00141696  0.62319010  1
  V  V50  1  0.86608048  0.50266322  0.87583331  1
  V  V51  1  0.25146145  0.12973641  0.38322501  1
  V  V52  1  0.24123215  0.49089875  0.73922155  1
  V  V53  1  0.50216174  0.75645899  0.25349406  1
  V  V54  1  0.12734081  0.73047779  0.87503949  1
  V  V55  1  0.86059808  0.87834854  0.00369158  1
  V  V56  1  0.36794280  0.86477565  0.50133180  1
  V  V57  1  -0.00600977  0.75702134  0.75841794  1
  V  V58  1  0.87991935  0.51694070  0.37506168  1
  V  V59  1  0.37554361  0.62649953  0.25029692  1
  V  V60  1  0.12838067  0.87511610  0.76015819  1
  V  V61  1  0.76335049  0.50662902  0.25643754  1
  V  V62  1  0.25613604  -0.00052566  0.76325039  1
  V  V63  1  0.62152671  0.74307013  0.84807310  1
  V  V64  1  0.11926084  0.11544076  0.49879287  1
  V  V65  1  0.19472550  0.30624783  0.55561000  1
  V  V66  1  0.12677928  0.63219403  0.50238585  1
  V  V67  1  -0.00578022  0.36553329  0.84124889  1
  V  V68  1  0.24783222  0.49868095  0.23668991  1
  V  V69  1  0.64391433  0.37389208  0.77138260  1
  V  V70  1  0.86906112  0.75374771  0.12392630  1
  V  V71  1  0.00956722  0.74028636  0.24210445  1
  V  V72  1  0.25145025  0.62374602  0.37965109  1
  Zn  Zn73  1  0.50538351  0.37062591  0.37055036  1
  Zn  Zn74  1  0.12067779  0.13065017  -0.01056786  1
  Zn  Zn75  1  0.00417058  0.12921268  0.12938756  1
  Zn  Zn76  1  -0.00778811  0.37013364  0.36918606  1
  Zn  Zn77  1  0.83843487  0.68455475  0.29617517  1
  Zn  Zn78  1  0.24817751  0.86685038  0.62180903  1
  Zn  Zn79  1  0.71653407  0.70109998  -0.01200339  1
  Zn  Zn80  1  -0.01026945  0.12328432  0.62166971  1
  Zn  Zn81  1  0.62588403  -0.00398706  0.11880873  1
  Zn  Zn82  1  0.15290587  0.17171204  0.20535539  1
  Zn  Zn83  1  0.18830000  0.18105108  0.69180351  1
  Zn  Zn84  1  0.18991543  0.68654339  0.18291147  1
  Zn  Zn85  1  0.20184519  0.68260521  0.69053909  1
  Zn  Zn86  1  0.69528701  0.18647446  0.18591424  1
  Zn  Zn87  1  0.68714740  0.19217246  0.67802874  1
  Zn  Zn88  1  0.69515123  0.69981619  0.21693856  1
  Zn  Zn89  1  0.69880902  0.56886123  0.79887029  1
  Zn  Zn90  1  0.30181294  0.31894832  0.32053556  1
  Zn  Zn91  1  0.28933247  0.35891123  0.82785234  1
  Zn  Zn92  1  0.31354137  0.81389511  0.31221365  1
  Zn  Zn93  1  0.31725157  0.80583794  0.80968118  1
  Zn  Zn94  1  0.81059784  0.31817179  0.32183141  1
  Zn  Zn95  1  0.81213640  0.31120244  0.80838123  1
  Zn  Zn96  1  0.77593478  0.80142269  0.39752549  1
  Zn  Zn97  1  0.80632375  0.80641691  0.82198526  1
  Zn  Zn98  1  0.12066937  0.47931803  0.62402289  1
  Zn  Zn99  1  0.15337381  0.44881121  0.90803655  1
  Zn  Zn100  1  0.18851277  0.93989980  0.43208109  1
  Zn  Zn101  1  0.18978926  0.93695438  0.94193316  1
  Zn  Zn102  1  0.68824540  0.44818588  0.43167447  1
  Zn  Zn103  1  0.66364304  0.45199804  0.93346912  1
  Zn  Zn104  1  0.69349207  0.94918748  0.43691480  1
  Zn  Zn105  1  0.68241904  0.93274529  0.93101219  1
  Zn  Zn106  1  0.33189433  0.05727815  0.06967860  1
  Zn  Zn107  1  0.31174102  0.05448703  0.56679307  1
  Zn  Zn108  1  0.18074569  0.55278063  0.05229844  1
  Zn  Zn109  1  0.30630633  0.55039012  0.55873946  1
  Zn  Zn110  1  0.81546251  0.06726849  0.06176413  1
  Zn  Zn111  1  0.81124888  0.05287491  0.55787822  1
  Zn  Zn112  1  0.82455245  0.56241598  0.07445006  1
  Zn  Zn113  1  0.84402048  0.64369840  0.52984644  1
  Zn  Zn114  1  0.44354877  0.44406862  0.18899383  1
  Zn  Zn115  1  0.42735195  0.43579771  0.69336563  1
  Zn  Zn116  1  0.44079146  0.94178143  0.18132619  1
  Zn  Zn117  1  0.43438575  0.93822593  0.68452775  1
  Zn  Zn118  1  0.94503310  0.43647767  0.18422297  1
  Zn  Zn119  1  0.92028303  0.44796336  0.67272224  1
  Zn  Zn120  1  0.93710606  0.93660259  0.18746154  1
  Zn  Zn121  1  0.93777931  0.93963142  0.68702034  1
  Zn  Zn122  1  0.05743891  0.06132721  0.31344014  1
  Zn  Zn123  1  0.06278204  0.06622644  0.81150898  1
  Zn  Zn124  1  0.06693285  0.56088170  0.31420230  1
  Zn  Zn125  1  0.05477064  0.55476952  0.81080502  1
  Zn  Zn126  1  0.56793154  0.06440516  0.31361080  1
  Zn  Zn127  1  0.55911968  0.05810333  0.81214875  1
  Zn  Zn128  1  0.55242461  0.54707074  0.28800295  1
  Zn  Zn129  1  0.53967965  0.55134211  0.82732331  1
  Zn  Zn130  1  0.43539895  0.18324099  0.44051108  1
  Zn  Zn131  1  0.44458796  0.18179887  0.93560682  1
  Zn  Zn132  1  0.44298997  0.68587988  0.43646002  1
  Zn  Zn133  1  0.44828688  0.69642813  0.93534101  1
  Zn  Zn134  1  0.93382689  0.18207103  0.43013745  1
  Zn  Zn135  1  0.93292309  0.18531295  0.93393431  1
  Zn  Zn136  1  0.96177621  0.73520952  0.44742970  1
  Zn  Zn137  1  0.89953860  0.66939539  0.95512094  1
  Zn  Zn138  1  0.08064219  0.28776873  0.06327384  1
  Zn  Zn139  1  0.04537183  0.29520431  0.67659453  1
  Zn  Zn140  1  0.06150777  0.81452705  0.05395106  1
  Zn  Zn141  1  0.06146675  0.81764671  0.56772717  1
  Zn  Zn142  1  0.57178925  0.30741325  0.07560954  1
  Zn  Zn143  1  0.57499710  0.29629554  0.55878101  1
  Zn  Zn144  1  0.57113936  0.81383443  0.05983176  1
  Zn  Zn145  1  0.55723620  0.80668448  0.57271372  1
  O  O146  1  0.11560076  0.17396547  0.09691093  1
  O  O147  1  0.13361431  0.11654149  0.60820674  1
  O  O148  1  0.11796027  0.62598272  0.11750750  1
  O  O149  1  0.12135784  0.63759115  0.61589132  1
  O  O150  1  0.62047516  0.12161987  0.11961113  1
  O  O151  1  0.60809822  0.11044324  0.63444613  1
  O  O152  1  0.62540127  0.62454242  0.14314174  1
  O  O153  1  0.63562558  0.58306584  0.64035722  1
  O  O154  1  0.37866688  0.37559592  0.38533841  1
  O  O155  1  0.38325827  0.37244772  0.90087361  1
  O  O156  1  0.38232309  0.88169894  0.38136679  1
  O  O157  1  0.38687039  0.86300612  0.88524843  1
  O  O158  1  0.87810854  0.39212010  0.38891129  1
  O  O159  1  0.87398698  0.38234756  0.87925622  1
  O  O160  1  0.86997505  0.88538353  0.37877886  1
  O  O161  1  0.86781802  0.88330430  0.88998533  1
  O  O162  1  0.26114742  0.00766558  0.36569797  1
  O  O163  1  0.24879594  -0.00089624  0.86170912  1
  O  O164  1  0.26517439  0.51428542  0.36274530  1
  O  O165  1  0.24409064  0.46682393  0.85060385  1
  O  O166  1  0.75930208  0.00648862  0.36241308  1
  O  O167  1  0.75165095  0.00601009  0.86126333  1
  O  O168  1  0.76147191  0.50966551  0.36273573  1
  O  O169  1  0.76225188  0.50041873  0.87274640  1
  O  O170  1  0.25028076  0.51020600  0.13868215  1
  O  O171  1  0.23429860  0.50615134  0.63006294  1
  O  O172  1  0.26143736  0.99185340  0.13495309  1
  O  O173  1  0.23965709  0.99346035  0.63362733  1
  O  O174  1  0.75258589  0.49365011  0.13560322  1
  O  O175  1  0.68654413  0.53756499  0.61593882  1
  O  O176  1  0.75413375  1.00721465  0.14022547  1
  O  O177  1  0.73598925  0.99863876  0.63547269  1
  O  O178  1  0.02181465  0.38832957  0.25597997  1
  O  O179  1  -0.01909618  0.37015055  0.73797855  1
  O  O180  1  0.02166296  0.86952577  0.23419451  1
  O  O181  1  0.00864760  0.86274913  0.74730974  1
  O  O182  1  0.51856216  0.37869155  0.24678202  1
  O  O183  1  0.48914316  0.36043928  0.75626851  1
  O  O184  1  0.49656718  0.87334851  0.25905596  1
  O  O185  1  0.49024108  0.87365695  0.75657690  1
  O  O186  1  0.48942109  0.12623427  0.25025774  1
  O  O187  1  0.48644069  0.12044636  0.74187930  1
  O  O188  1  0.49633903  0.63942578  0.24783586  1
  O  O189  1  0.47433544  0.60159978  0.75223976  1
  O  O190  1  1.04759975  0.13518568  0.23442442  1
  O  O191  1  0.97806965  0.11798603  0.75166115  1
  O  O192  1  1.01419516  0.63793183  0.23953847  1
  O  O193  1  0.99864183  0.63620888  0.74422483  1
  O  O194  1  0.39470354  0.26447042  -0.00211138  1
  O  O195  1  0.37810323  0.25704969  0.50744157  1
  O  O196  1  0.36484900  0.75529271  0.00519597  1
  O  O197  1  0.37916311  0.76190963  0.49936050  1
  O  O198  1  0.86325945  0.26440460  0.00059706  1
  O  O199  1  0.87650795  0.26123797  0.49132525  1
  O  O200  1  0.88127806  0.77015131  0.00990691  1
  O  O201  1  0.85432370  0.75029966  0.48230377  1
  O  O202  1  0.14076515  0.23536362  0.49224575  1
  O  O203  1  0.11723357  0.25839103  0.96101786  1
  O  O204  1  0.12009683  0.74707081  0.48556649  1
  O  O205  1  0.13791023  0.75827405  0.98366660  1
  O  O206  1  0.58451229  0.24406099  0.44556555  1
  O  O207  1  0.63841302  0.23652091  1.00897582  1
  O  O208  1  0.63282748  0.74431798  0.50730046  1
  O  O209  1  0.61745474  0.74179284  0.99282476  1
  O  O210  1  0.50957905  0.23018005  0.13034980  1
  O  O211  1  0.49171535  0.23775362  0.63048903  1
  O  O212  1  0.49291801  0.75002870  0.13397072  1
  O  O213  1  0.47375382  0.75494396  0.62428573  1
  O  O214  1  0.98063483  0.26240063  0.11780747  1
  O  O215  1  0.99843725  0.23141647  0.60194585  1
  O  O216  1  1.00897613  0.74437438  0.12973277  1
  O  O217  1  1.00893809  0.74621802  0.64694361  1
  O  O218  1  0.01812824  0.25019527  0.38051020  1
  O  O219  1  -0.02383612  0.26726027  0.86568405  1
  O  O220  1  0.02047261  0.74950886  0.35130824  1
  O  O221  1  0.02042263  0.74930010  0.86230112  1
  O  O222  1  0.52393185  0.24737590  0.39351739  1
  O  O223  1  0.50166529  0.23539162  0.85358574  1
  O  O224  1  0.49478998  0.76165530  0.36473843  1
  O  O225  1  0.51148606  0.76242941  0.87147532  1
  O  O226  1  0.24990830  0.11423411  0.48713900  1
  O  O227  1  0.26328818  0.14293315  1.01635475  1
  O  O228  1  0.23960785  0.61893869  0.48834394  1
  O  O229  1  0.24716903  0.63951412  1.00609461  1
  O  O230  1  0.74727437  0.11740426  0.49253234  1
  O  O231  1  0.74588543  0.13212753  0.99007361  1
  O  O232  1  0.72492450  0.64910000  0.51131343  1
  O  O233  1  0.79625514  0.62891633  0.99015563  1
  O  O234  1  0.28599086  0.36218058  0.01643326  1
  O  O235  1  0.25745601  0.36226453  0.50549076  1
  O  O236  1  0.26029574  0.86880974  0.00482497  1
  O  O237  1  0.26549156  0.87830014  0.49377715  1
  O  O238  1  0.74478650  0.37051731  0.01088621  1
  O  O239  1  0.75536630  0.37659465  0.48540357  1
  O  O240  1  0.76114895  0.88507138  0.00491562  1
  O  O241  1  0.76042918  0.87026288  0.48837560  1
  O  O242  1  0.13948746  0.49214094  0.25437933  1
  O  O243  1  0.13187446  0.50210221  0.74276033  1
  O  O244  1  0.14338039  0.99074511  0.25858096  1
  O  O245  1  0.13703290  0.99578392  0.74597418  1
  O  O246  1  0.64546078  0.49724568  0.24560493  1
  O  O247  1  0.62521504  0.47928944  0.76881331  1
  O  O248  1  0.63734704  0.99398248  0.24866715  1
  O  O249  1  0.63519347  1.00010148  0.74188168  1
  O  O250  1  0.36911797  0.00278476  0.26042548  1
  O  O251  1  0.36426679  0.00950776  0.74469973  1
  O  O252  1  0.36637057  0.50378653  0.25253629  1
  O  O253  1  0.36038112  0.50562508  0.74844405  1
  O  O254  1  0.86580024  -0.00837152  0.25885538  1
  O  O255  1  0.86080669  0.00027523  0.75592221  1
  O  O256  1  0.86902637  0.48707571  0.25991738  1
  O  O257  1  0.86914001  0.51419350  0.75193698  1
  O  O258  1  0.12509598  0.36250169  0.39021907  1
  O  O259  1  0.09841469  0.36147174  0.85133474  1
  O  O260  1  0.14000614  0.86541740  0.36043091  1
  O  O261  1  0.13054061  0.87384504  0.86171941  1
  O  O262  1  0.62618189  0.38449756  0.35752990  1
  O  O263  1  0.65038150  0.35675255  0.86941678  1
  O  O264  1  0.61368335  0.88561762  0.36262339  1
  O  O265  1  0.61147521  0.86759335  0.87241075  1
  O  O266  1  0.38767903  0.12633078  0.14198917  1
  O  O267  1  0.38178425  0.12893340  0.62496524  1
  O  O268  1  0.38769558  0.63974585  0.13367028  1
  O  O269  1  0.37788312  0.62739891  0.60829490  1
  O  O270  1  0.87799937  0.14471274  0.12301594  1
  O  O271  1  0.87039604  0.10748482  0.63859336  1
  O  O272  1  0.89505913  0.64819480  0.12243494  1
  O  O273  1  0.89051808  0.63169765  0.63715999  1
  O  O274  1  0.25587360  0.19915847  0.06673384  1
  O  O275  1  0.25534437  0.24699857  0.61980884  1
  O  O276  1  0.25872881  0.75643427  0.11448638  1
  O  O277  1  0.27139228  0.75306053  0.62698788  1
  O  O278  1  0.76103380  0.25948307  0.11612270  1
  O  O279  1  0.67635143  0.26458395  0.59440229  1
  O  O280  1  0.77076772  0.74557907  0.13458903  1
  O  O281  1  0.68807257  0.70602029  0.55216769  1
  O  O282  1  0.24032278  0.23683162  0.37266923  1
  O  O283  1  0.23834099  0.26186555  0.85564478  1
  O  O284  1  0.24479737  0.73631570  0.36427716  1
  O  O285  1  0.24434665  0.74858785  0.88443307  1
  O  O286  1  0.76313571  0.22898457  0.37107380  1
  O  O287  1  0.75731810  0.23653883  0.88239102  1
  O  O288  1  0.74063004  0.72949844  0.32385195  1
  O  O289  1  0.72788818  0.75306879  0.87876951  1
  O  O290  1  -0.00650208  0.11116689  -0.00241899  1
  O  O291  1  0.01928616  0.11955165  0.49267269  1
  O  O292  1  -0.00154317  0.63315610  0.00556382  1
  O  O293  1  0.00621348  0.64094928  0.51308578  1
  O  O294  1  0.51605436  0.12707219  0.00712362  1
  O  O295  1  0.49240866  0.10858490  0.50906804  1
  O  O296  1  0.49816455  0.63250012  0.01920174  1
  O  O297  1  0.51837329  0.61502948  0.49405430  1
  O  O298  1  0.49274547  0.36853175  0.49551119  1
  O  O299  1  0.49451136  0.36483585  1.00769399  1
  O  O300  1  0.49321219  0.88166055  0.49062486  1
  O  O301  1  0.48408395  0.87253012  1.00556106  1
  O  O302  1  0.98448645  0.40200388  0.50100760  1
  O  O303  1  0.98714911  0.36953076  0.99403444  1
  O  O304  1  0.97438220  0.84535938  0.49999130  1
  O  O305  1  0.99399695  0.89366547  1.00203313  1
  O  O306  1  0.48212311  0.49554709  0.36090315  1
  O  O307  1  0.55216336  0.48332012  0.91212400  1
  O  O308  1  0.49474684  0.99541571  0.38062724  1
  O  O309  1  0.50335855  0.98071695  0.87345766  1
  O  O310  1  0.99720722  0.50227683  0.38558335  1
  O  O311  1  0.98264414  0.47684545  0.85982453  1
  O  O312  1  0.98662381  0.99571176  0.36773663  1
  O  O313  1  0.98581738  1.00335220  0.87912599  1
  O  O314  1  -0.00452570  0.00685575  0.11282527  1
  O  O315  1  0.01890963  0.00578366  0.63464211  1
  O  O316  1  -0.01289839  0.52266618  0.12339736  1
  O  O317  1  0.00201528  0.51602341  0.61522094  1
  O  O318  1  0.50434037  0.01887979  0.12960220  1
  O  O319  1  0.50733096  0.00096454  0.61896317  1
  O  O320  1  0.52198641  0.51697014  0.14070242  1
  O  O321  1  0.52994824  0.46398573  0.62823564  1
  O  O322  1  0.24418146  0.39050449  0.25141257  1
  O  O323  1  0.26490649  0.38969669  0.72271020  1
  O  O324  1  0.24917953  0.88062813  0.23956322  1
  O  O325  1  0.24972341  0.88529064  0.74948398  1
  O  O326  1  0.74565640  0.38493909  0.24110783  1
  O  O327  1  0.73938544  0.36695913  0.74051492  1
  O  O328  1  0.73680392  0.88249448  0.25077572  1
  O  O329  1  0.75271284  0.88545080  0.75312972  1
  O  O330  1  0.25922414  0.11958953  0.25422207  1
  O  O331  1  0.26293607  0.11239498  0.74590922  1
  O  O332  1  0.25527577  0.61778403  0.25482327  1
  O  O333  1  0.26202799  0.60775324  0.75315195  1
  O  O334  1  0.75414446  0.11492624  0.25470199  1
  O  O335  1  0.75027416  0.12194944  0.75371594  1
  O  O336  1  0.76683138  0.60552174  0.23380186  1
  O  O337  1  0.77068614  0.63824042  0.74276190  1
  O  O338  1  0.37220241  0.11942875  0.36563178  1
  O  O339  1  0.37619266  0.12692331  0.86103870  1
  O  O340  1  0.37145391  0.61995267  0.37087272  1
  O  O341  1  0.37912596  0.62283203  0.87768925  1
  O  O342  1  0.86622943  0.10117299  0.38699000  1
  O  O343  1  0.86197971  0.11341532  0.86372460  1
  O  O344  1  0.89360022  0.61785741  0.36634353  1
  O  O345  1  0.88977903  0.60791141  0.85794409  1
  O  O346  1  0.12582335  0.36635767  0.13635408  1
  O  O347  1  0.12609733  0.36136220  0.61004028  1
  O  O348  1  0.14275353  0.86947225  0.12814214  1
  O  O349  1  0.12912083  0.88005390  0.63614945  1
  O  O350  1  0.63386783  0.39023528  0.13335917  1
  O  O351  1  0.58467728  0.41127589  0.62798867  1
  O  O352  1  0.61692767  0.88190727  0.14054878  1
  O  O353  1  0.61794406  0.88534443  0.63031644  1
  O  O354  1  0.13849822  0.27355865  0.26708937  1
  O  O355  1  0.11300061  0.23932359  0.75250014  1
  O  O356  1  0.12632945  0.75772398  0.25157207  1
  O  O357  1  0.13130782  0.75465427  0.76246067  1
  O  O358  1  0.63699481  0.26795892  0.24233709  1
  O  O359  1  0.60905593  0.26650648  0.74086593  1
  O  O360  1  0.60807178  0.77012536  0.24422775  1
  O  O361  1  0.62548091  0.75705804  0.75340118  1
  O  O362  1  0.36876453  0.24058672  0.25875156  1
  O  O363  1  0.38278862  0.23350904  0.73654719  1
  O  O364  1  0.38120799  0.74941632  0.24135643  1
  O  O365  1  0.36961923  0.72291560  0.74363700  1
  O  O366  1  0.87273056  0.26834417  0.23458853  1
  O  O367  1  0.86364109  0.23133359  0.74409148  1
  O  O368  1  0.90234453  0.75994343  0.23455176  1
  O  O369  1  0.89053527  0.74410798  0.76658343  1
  O  O370  1  0.37023845  0.48003823  0.49194867  1
  O  O371  1  0.38914990  0.47340136  1.00224037  1
  O  O372  1  0.38334850  0.99219458  0.48794392  1
  O  O373  1  0.36949741  0.98446582  0.99474867  1
  O  O374  1  0.88790862  0.53064655  0.49218561  1
  O  O375  1  0.87390812  0.48560558  0.98538552  1
  O  O376  1  0.87666228  0.98031005  0.49444387  1
  O  O377  1  0.87972058  0.99312647  0.99444345  1
  O  O378  1  0.11231002  0.00534192  -0.00675118  1
  O  O379  1  0.13130613  0.00659902  0.50580869  1
  O  O380  1  0.12026688  0.47652905  0.00468032  1
  O  O381  1  0.10291451  0.52393164  0.50147996  1
  O  O382  1  0.63828420  0.01528897  0.00295537  1
  O  O383  1  0.61623579  -0.00776563  0.51455854  1
  O  O384  1  0.64714160  0.51501474  0.02848804  1
  O  O385  1  0.60814714  0.51793254  0.48689711  1
  O  O386  1  0.39381949  0.37186547  0.11028100  1
  O  O387  1  0.38402364  0.36290217  0.61086422  1
  O  O388  1  0.36939001  0.86669719  0.11666551  1
  O  O389  1  0.37326971  0.88152221  0.60515413  1
  O  O390  1  0.86989896  0.37635788  0.10996748  1
  O  O391  1  0.86578848  0.38573219  0.59911229  1
  O  O392  1  0.88027811  0.86728489  0.11413398  1
  O  O393  1  0.86977095  0.87774335  0.61610033  1
  O  O394  1  0.13453721  0.12443582  0.38671137  1
  O  O395  1  0.12911596  0.13632568  0.87194680  1
  O  O396  1  0.13326755  0.63367060  0.38049846  1
  O  O397  1  0.12418680  0.63193071  0.87248425  1
  O  O398  1  0.64552499  0.11627957  0.37289346  1
  O  O399  1  0.63094694  0.11911708  0.88648004  1
  O  O400  1  0.58037617  0.58466218  0.45209791  1
  O  O401  1  0.62093785  0.63450124  0.85455605  1
