# generated using pymatgen
data_V73Zn73O256
_symmetry_space_group_name_H-M   'P 1'
_cell_length_a   16.86734155
_cell_length_b   16.86122647
_cell_length_c   16.85919317
_cell_angle_alpha   90.00719271
_cell_angle_beta   89.87574654
_cell_angle_gamma   90.04427043
_symmetry_Int_Tables_number   1
_chemical_formula_structural   V73Zn73O256
_chemical_formula_sum   'V73 Zn73 O256'
_cell_volume   4794.81034251
_cell_formula_units_Z   1
loop_
 _symmetry_equiv_pos_site_id
 _symmetry_equiv_pos_as_xyz
  1  'x, y, z'
loop_
 _atom_site_type_symbol
 _atom_site_label
 _atom_site_symmetry_multiplicity
 _atom_site_fract_x
 _atom_site_fract_y
 _atom_site_fract_z
 _atom_site_occupancy
  V  V0  1  0.24861230  0.00332257  0.75045208  1
  V  V1  1  0.73270250  0.48500182  0.74422742  1
  V  V2  1  0.11808063  0.86951328  0.25130704  1
  V  V3  1  0.61706403  0.25014383  0.36917035  1
  V  V4  1  0.74849315  0.13447069  0.87636363  1
  V  V5  1  0.37594857  0.13773170  0.75359706  1
  V  V6  1  0.00060293  0.26041396  0.75446737  1
  V  V7  1  0.12145760  0.26138357  0.87805603  1
  V  V8  1  0.88102418  -0.01822009  0.87407668  1
  V  V9  1  0.37672887  0.00295395  0.88767861  1
  V  V10  1  0.50234117  0.50320950  -0.00023482  1
  V  V11  1  0.88477892  -0.00212915  0.38964555  1
  V  V12  1  0.12176167  0.38765204  0.74824753  1
  V  V13  1  0.63062265  0.63095124  0.00242252  1
  V  V14  1  0.88280294  0.12207177  0.75073437  1
  V  V15  1  0.50413691  0.11034278  0.62979959  1
  V  V16  1  0.12168762  0.87166384  0.76297188  1
  V  V17  1  0.12452581  0.00386017  0.61136513  1
  V  V18  1  -0.00401097  -0.02359605  -0.00530147  1
  V  V19  1  0.74658350  0.12303148  0.38294754  1
  V  V20  1  0.49344791  0.10968802  0.12655783  1
  V  V21  1  0.49924432  0.47638458  0.48744695  1
  V  V22  1  0.75346617  0.48765593  0.24602604  1
  V  V23  1  0.61892450  0.75415545  0.86459080  1
  V  V24  1  0.38032973  0.25337584  0.13451631  1
  V  V25  1  0.38025560  0.85989335  0.00571272  1
  V  V26  1  0.37558667  0.50376384  0.87223349  1
  V  V27  1  0.50995878  0.62041676  0.60904768  1
  V  V28  1  0.50491253  0.87904487  0.86895215  1
  V  V29  1  0.87375541  0.26029541  0.61603260  1
  V  V30  1  0.27015996  0.36647668  0.63443583  1
  V  V31  1  0.24613336  0.25497531  0.00663576  1
  V  V32  1  0.24896996  0.73229005  0.49706548  1
  V  V33  1  -0.00942646  0.37236788  0.38020330  1
  V  V34  1  0.73314490  0.36934611  0.61153234  1
  V  V35  1  0.73801237  0.62832236  0.38666979  1
  V  V36  1  0.25933054  0.00826709  0.24415203  1
  V  V37  1  0.25588927  0.64848327  0.88330681  1
  V  V38  1  0.48903941  0.63191843  0.13439511  1
  V  V39  1  0.64392629  -0.00806258  0.13071205  1
  V  V40  1  0.12258513  0.73614480  0.37871988  1
  V  V41  1  0.86655434  0.63852439  0.24783972  1
  V  V42  1  0.49629920  0.76082411  0.25478981  1
  V  V43  1  0.38559813  0.75929451  0.61689252  1
  V  V44  1  0.25590283  0.85693111  0.12364440  1
  V  V45  1  0.12124988  0.62153334  0.00316946  1
  V  V46  1  0.37864133  0.00339250  0.39165903  1
  V  V47  1  0.36748342  0.37863295  0.00324133  1
  V  V48  1  0.88081387  0.73560951  0.62808807  1
  V  V49  1  -0.00299649  0.12433416  0.11590005  1
  V  V50  1  0.00896620  0.12592484  0.61399038  1
  V  V51  1  0.01162247  0.50535205  0.50854888  1
  V  V52  1  0.24199112  0.13344477  0.37848228  1
  V  V53  1  0.63196187  0.49260092  0.13077297  1
  V  V54  1  0.74406860  0.87205341  0.61952101  1
  V  V55  1  0.25276472  0.88297882  0.61323426  1
  V  V56  1  0.62859336  0.11542566  0.51518416  1
  V  V57  1  -0.01004041  0.24878901  0.24747163  1
  V  V58  1  0.24162080  0.12845372  0.88223827  1
  V  V59  1  0.75395045  0.62246702  0.86006174  1
  V  V60  1  0.24703904  0.50575677  0.74846367  1
  V  V61  1  0.88761453  0.48355029  0.86916453  1
  V  V62  1  -0.00422223  0.62368314  0.13409806  1
  V  V63  1  0.73651661  -0.00870139  0.74884252  1
  V  V64  1  0.86864877  0.11532003  0.25063182  1
  V  V65  1  0.51232025  0.36908367  0.87349915  1
  V  V66  1  0.62545787  0.76054381  0.38200926  1
  V  V67  1  0.12448611  -0.00115828  0.11798033  1
  V  V68  1  0.86713147  0.49580187  0.38607385  1
  V  V69  1  0.11239110  0.39380768  0.23420392  1
  V  V70  1  0.51828890  0.25425907  0.74702172  1
  V  V71  1  0.76289476  0.75717292  0.00665420  1
  V  V72  1  0.38551257  0.63389438  0.74519488  1
  Zn  Zn73  1  0.12248241  0.24898157  0.37515526  1
  Zn  Zn74  1  0.26089357  0.26590429  0.49791363  1
  Zn  Zn75  1  0.00936470  0.87865767  0.39517005  1
  Zn  Zn76  1  0.50832671  0.89500486  0.38279718  1
  Zn  Zn77  1  0.74554875  0.27942872  0.04112657  1
  Zn  Zn78  1  0.35760804  0.50324725  0.37455074  1
  Zn  Zn79  1  0.61584146  0.13152218  -0.00149931  1
  Zn  Zn80  1  -0.00390075  0.75418511  0.75407992  1
  Zn  Zn81  1  0.88475469  0.87015696  0.50993675  1
  Zn  Zn82  1  0.17898668  0.19141462  0.19224102  1
  Zn  Zn83  1  0.18645443  0.19139574  0.69291721  1
  Zn  Zn84  1  0.17206141  0.68640828  0.18159112  1
  Zn  Zn85  1  0.20368462  0.69800779  0.69442762  1
  Zn  Zn86  1  0.67459948  0.18119873  0.18824302  1
  Zn  Zn87  1  0.69496490  0.18681663  0.69316474  1
  Zn  Zn88  1  0.68324038  0.68989021  0.19163646  1
  Zn  Zn89  1  0.68781683  0.69482092  0.68032328  1
  Zn  Zn90  1  0.30216285  0.36077562  0.28732086  1
  Zn  Zn91  1  0.31223156  0.31848832  0.81733417  1
  Zn  Zn92  1  0.31308161  0.81532524  0.31603071  1
  Zn  Zn93  1  0.32001173  0.82205070  0.80489246  1
  Zn  Zn94  1  0.80585057  0.30459719  0.31290896  1
  Zn  Zn95  1  0.81327277  0.31627870  0.80579737  1
  Zn  Zn96  1  0.81285269  0.81405877  0.32557293  1
  Zn  Zn97  1  0.80741290  0.80551777  0.80778585  1
  Zn  Zn98  1  0.18242535  0.41178787  0.44475389  1
  Zn  Zn99  1  0.18421180  0.44776674  0.94071485  1
  Zn  Zn100  1  0.19230157  0.94197863  0.43179415  1
  Zn  Zn101  1  0.19288851  0.93353557  0.94286879  1
  Zn  Zn102  1  0.67871005  0.43579082  0.44043312  1
  Zn  Zn103  1  0.69524191  0.43843326  0.94069268  1
  Zn  Zn104  1  0.69222100  0.94203586  0.43829036  1
  Zn  Zn105  1  0.69061236  0.94295753  0.95281501  1
  Zn  Zn106  1  0.31203199  0.06835759  0.06599443  1
  Zn  Zn107  1  0.33762113  0.11437401  0.54235063  1
  Zn  Zn108  1  0.29783998  0.56237541  0.05952281  1
  Zn  Zn109  1  0.32034787  0.55709584  0.56201920  1
  Zn  Zn110  1  0.78797969  0.10005442  0.08303982  1
  Zn  Zn111  1  0.81396043  0.06084227  0.56829415  1
  Zn  Zn112  1  0.83566263  0.54486540  0.06755216  1
  Zn  Zn113  1  0.80641662  0.55847798  0.56842022  1
  Zn  Zn114  1  0.43076739  0.45442618  0.18028035  1
  Zn  Zn115  1  0.45004167  0.44240021  0.68680563  1
  Zn  Zn116  1  0.44226848  0.93171837  0.18999886  1
  Zn  Zn117  1  0.43540234  0.93919215  0.69118567  1
  Zn  Zn118  1  0.95916653  0.42982817  0.15925529  1
  Zn  Zn119  1  0.92658123  0.44813127  0.69129208  1
  Zn  Zn120  1  0.93644272  0.94111532  0.19141824  1
  Zn  Zn121  1  0.94082371  0.93229371  0.68333423  1
  Zn  Zn122  1  0.06274611  0.05996325  0.30759919  1
  Zn  Zn123  1  0.06247766  0.06459297  0.81239109  1
  Zn  Zn124  1  0.05222473  0.56300351  0.31880776  1
  Zn  Zn125  1  0.06066160  0.58533740  0.81813437  1
  Zn  Zn126  1  0.55719673  0.07025946  0.30158931  1
  Zn  Zn127  1  0.56221114  0.06428893  0.81980673  1
  Zn  Zn128  1  0.55874180  0.55927412  0.31626993  1
  Zn  Zn129  1  0.56486447  0.56620594  0.80761445  1
  Zn  Zn130  1  0.42220249  0.19644166  0.41450545  1
  Zn  Zn131  1  0.43480786  0.19072904  0.94204932  1
  Zn  Zn132  1  0.43298380  0.68164304  0.42909798  1
  Zn  Zn133  1  0.44136517  0.68799918  0.93845551  1
  Zn  Zn134  1  0.93572010  0.18606643  0.43748736  1
  Zn  Zn135  1  0.93561826  0.18560898  0.93613163  1
  Zn  Zn136  1  0.93629244  0.68583420  0.44351605  1
  Zn  Zn137  1  0.94073499  0.68128050  0.92868928  1
  Zn  Zn138  1  0.07174110  0.30243810  0.07126080  1
  Zn  Zn139  1  0.07231448  0.31695647  0.56297584  1
  Zn  Zn140  1  0.06241887  0.79816503  0.06339416  1
  Zn  Zn141  1  0.06077704  0.80676495  0.56521943  1
  Zn  Zn142  1  0.56251879  0.30673639  0.06022008  1
  Zn  Zn143  1  0.55437842  0.29626023  0.54964510  1
  Zn  Zn144  1  0.56611473  0.81477744  0.06167657  1
  Zn  Zn145  1  0.56441789  0.82229553  0.55513808  1
  O  O146  1  0.10664217  0.10969367  0.13300567  1
  O  O147  1  0.11836477  0.11843921  0.63201019  1
  O  O148  1  0.10096705  0.61128345  0.13066969  1
  O  O149  1  0.11558146  0.62237838  0.63958968  1
  O  O150  1  0.60680623  0.11231821  0.12416192  1
  O  O151  1  0.62269805  0.12612219  0.62287929  1
  O  O152  1  0.61689777  0.61742411  0.11610998  1
  O  O153  1  0.60729896  0.63584185  0.62841292  1
  O  O154  1  0.47359298  0.35623121  0.31050713  1
  O  O155  1  0.38343533  0.38748350  0.88182401  1
  O  O156  1  0.36738986  0.90113801  0.37134998  1
  O  O157  1  0.38067606  0.88115022  0.88655301  1
  O  O158  1  0.87653200  0.38587085  0.36899500  1
  O  O159  1  0.88122268  0.38128858  0.86767858  1
  O  O160  1  0.87554249  0.88888192  0.38250545  1
  O  O161  1  0.87906738  0.88409274  0.86325949  1
  O  O162  1  0.25203741  0.00764760  0.35769242  1
  O  O163  1  0.25346989  0.00976408  0.87143314  1
  O  O164  1  0.27540285  0.41875243  0.38126896  1
  O  O165  1  0.26622882  0.50913349  0.87000399  1
  O  O166  1  0.76760008  0.01241338  0.38084036  1
  O  O167  1  0.76785841  0.00239568  0.86406293  1
  O  O168  1  0.75119213  0.50342738  0.36784139  1
  O  O169  1  0.73993823  0.51041262  0.86130712  1
  O  O170  1  0.25731645  0.54130542  0.17545037  1
  O  O171  1  0.26069164  0.49865540  0.64556793  1
  O  O172  1  0.24090586  0.99806590  0.12866494  1
  O  O173  1  0.23929951  1.00219067  0.63528016  1
  O  O174  1  0.74277577  0.50535049  0.13432669  1
  O  O175  1  0.75033347  0.48251809  0.63436884  1
  O  O176  1  0.74559917  1.00572572  0.12985023  1
  O  O177  1  0.75641321  0.99232970  0.64204513  1
  O  O178  1  -0.01455299  0.36518317  0.25430067  1
  O  O179  1  0.00536321  0.36664021  0.74304901  1
  O  O180  1  0.01728804  0.87290686  0.24129528  1
  O  O181  1  0.01802130  0.87847452  0.75155589  1
  O  O182  1  0.51525610  0.37134994  0.25193306  1
  O  O183  1  0.50028319  0.36616362  0.76210605  1
  O  O184  1  0.50156298  0.86546796  0.26050739  1
  O  O185  1  0.49157011  0.87397660  0.77009605  1
  O  O186  1  0.49181271  0.12945430  0.22681737  1
  O  O187  1  0.49717134  0.13799724  0.75538877  1
  O  O188  1  0.49916211  0.62290159  0.23690774  1
  O  O189  1  0.48973311  0.62117226  0.73764630  1
  O  O190  1  0.99048839  0.12983051  0.24576500  1
  O  O191  1  0.99870196  0.13761366  0.74331474  1
  O  O192  1  0.98067373  0.61730149  0.24236810  1
  O  O193  1  1.05390614  0.61441713  0.68225047  1
  O  O194  1  0.36447496  0.26214498  0.00662570  1
  O  O195  1  0.36476780  0.22251523  0.50588665  1
  O  O196  1  0.37720232  0.76124988  0.00007781  1
  O  O197  1  0.36207005  0.74737362  0.50969466  1
  O  O198  1  0.87318996  0.26359058  -0.00082499  1
  O  O199  1  0.87882691  0.24523233  0.51750960  1
  O  O200  1  0.86138288  0.73448457  -0.00988090  1
  O  O201  1  0.87856683  0.75086706  0.51717946  1
  O  O202  1  0.14860767  0.29302593  0.48014659  1
  O  O203  1  0.13074138  0.25833981  0.99025730  1
  O  O204  1  0.13812984  0.75305501  0.49126676  1
  O  O205  1  0.13931761  0.71991615  1.02480158  1
  O  O206  1  0.61854986  0.22162993  0.48711550  1
  O  O207  1  0.63904891  0.24517546  1.00894782  1
  O  O208  1  0.62059069  0.74864476  0.48149336  1
  O  O209  1  0.63028358  0.74413794  0.99101205  1
  O  O210  1  0.48220356  0.26106803  0.13069877  1
  O  O211  1  0.50488291  0.24029847  0.64462393  1
  O  O212  1  0.50659424  0.74078808  0.13800342  1
  O  O213  1  0.48732833  0.74887288  0.61798013  1
  O  O214  1  1.00015473  0.22975205  0.12871667  1
  O  O215  1  0.99861045  0.24441436  0.63147846  1
  O  O216  1  0.98833480  0.72334830  0.11210623  1
  O  O217  1  0.98932272  0.74859473  0.63391678  1
  O  O218  1  -0.00683591  0.26024157  0.36884075  1
  O  O219  1  0.00999589  0.24500414  0.86668238  1
  O  O220  1  0.01955332  0.75449691  0.38496361  1
  O  O221  1  0.01124119  0.68707335  0.84157135  1
  O  O222  1  0.51624472  0.22733138  0.36838174  1
  O  O223  1  0.49788835  0.26400243  0.87135079  1
  O  O224  1  0.51104912  0.74541331  0.36725303  1
  O  O225  1  0.50968098  0.76189460  0.87956555  1
  O  O226  1  0.23719991  0.12413076  0.48027368  1
  O  O227  1  0.25316712  0.13659428  0.98885140  1
  O  O228  1  0.24576387  0.63421546  0.51090615  1
  O  O229  1  0.27747662  0.64457889  0.98155919  1
  O  O230  1  0.74061060  0.11951732  0.49766953  1
  O  O231  1  0.77391078  0.12639304  0.97400675  1
  O  O232  1  0.74935802  0.61522969  0.48502692  1
  O  O233  1  0.73658386  0.62554725  0.98298594  1
  O  O234  1  0.25773070  0.36906075  -0.00893937  1
  O  O235  1  0.26287721  0.39014656  0.53633282  1
  O  O236  1  0.25922974  0.87333445  0.01530539  1
  O  O237  1  0.24840311  0.87925755  0.51147836  1
  O  O238  1  0.75459153  0.38492581  0.01348906  1
  O  O239  1  0.75146638  0.38031772  0.51365021  1
  O  O240  1  0.75498411  0.85677136  -0.01143038  1
  O  O241  1  0.75867169  0.88762277  0.51661304  1
  O  O242  1  0.11004930  0.49298628  0.25006186  1
  O  O243  1  0.13664899  0.49913162  0.76785980  1
  O  O244  1  0.13059625  0.98598345  0.23742263  1
  O  O245  1  0.13566756  0.99608768  0.75022820  1
  O  O246  1  0.63545187  0.50540101  0.23829787  1
  O  O247  1  0.63183630  0.49803333  0.74654301  1
  O  O248  1  0.61797819  1.00397549  0.23124639  1
  O  O249  1  0.63857102  1.00189450  0.75732123  1
  O  O250  1  0.35902454  -0.00113158  0.24017534  1
  O  O251  1  0.36396803  0.00680742  0.76389890  1
  O  O252  1  0.36652149  0.45834013  0.26713274  1
  O  O253  1  0.37349905  0.51106614  0.75855681  1
  O  O254  1  0.88075749  0.01032709  0.26544168  1
  O  O255  1  0.88634914  0.00765042  0.76007049  1
  O  O256  1  0.85810455  0.50849956  0.25820881  1
  O  O257  1  0.85035474  0.49761608  0.76073594  1
  O  O258  1  0.09558025  0.37880951  0.35213785  1
  O  O259  1  0.12856848  0.37041258  0.86981183  1
  O  O260  1  0.12699554  0.87664823  0.35957221  1
  O  O261  1  0.13652992  0.87648100  0.86251464  1
  O  O262  1  0.62957502  0.34887559  0.38687856  1
  O  O263  1  0.60939450  0.38321184  0.88182870  1
  O  O264  1  0.63113033  0.86572221  0.37510818  1
  O  O265  1  0.61249529  0.86943204  0.88402305  1
  O  O266  1  0.37874429  0.14478822  0.11999096  1
  O  O267  1  0.39206414  0.11624610  0.64512944  1
  O  O268  1  0.39181665  0.61834572  0.11593051  1
  O  O269  1  0.38282774  0.63860387  0.62801075  1
  O  O270  1  0.89057524  0.10664825  0.14184118  1
  O  O271  1  0.88961905  0.12955122  0.63290343  1
  O  O272  1  0.85938577  0.63623618  0.14584600  1
  O  O273  1  0.86501890  0.63542741  0.62703180  1
  O  O274  1  0.24668983  0.24293002  0.11024160  1
  O  O275  1  0.24929657  0.26318410  0.63151415  1
  O  O276  1  0.25278803  0.75888382  0.13619199  1
  O  O277  1  0.25467215  0.76182335  0.61141897  1
  O  O278  1  0.76179532  0.20562056  0.12308144  1
  O  O279  1  0.76413495  0.25786308  0.63263794  1
  O  O280  1  0.74087451  0.74090867  0.10483576  1
  O  O281  1  0.76260129  0.76431853  0.63155072  1
  O  O282  1  0.25184482  0.23504525  0.36230276  1
  O  O283  1  0.24209102  0.24718031  0.88249157  1
  O  O284  1  0.24376642  0.75502163  0.39011146  1
  O  O285  1  0.25589779  0.74636188  0.86429379  1
  O  O286  1  0.75059176  0.22922745  0.38103807  1
  O  O287  1  0.75558695  0.23318843  0.85781165  1
  O  O288  1  0.73840495  0.73895932  0.37228939  1
  O  O289  1  0.73731370  0.73944235  0.87817185  1
  O  O290  1  -0.00799921  0.11718234  0.01333465  1
  O  O291  1  0.00656339  0.13432132  0.51516724  1
  O  O292  1  0.02006945  0.61314035  -0.00412723  1
  O  O293  1  0.00049992  0.60477579  0.49261369  1
  O  O294  1  0.49861142  0.13901083  0.01675494  1
  O  O295  1  0.50688059  0.11920842  0.52781562  1
  O  O296  1  0.50808625  0.61930958  0.00548151  1
  O  O297  1  0.50106639  0.63289588  0.50935577  1
  O  O298  1  0.49005099  0.37614387  0.50163916  1
  O  O299  1  0.49193078  0.38519849  0.99018650  1
  O  O300  1  0.49194167  0.87507580  0.49232589  1
  O  O301  1  0.48485535  0.87419490  0.99511458  1
  O  O302  1  0.99720713  0.37671769  0.48297356  1
  O  O303  1  0.91819580  0.32700864  1.03025234  1
  O  O304  1  1.00055751  0.88157363  0.50782045  1
  O  O305  1  1.00343342  0.87703697  1.00174272  1
  O  O306  1  0.49436249  0.49406276  0.38150949  1
  O  O307  1  0.49380252  0.49767428  0.88096868  1
  O  O308  1  0.48216169  1.01150061  0.36853264  1
  O  O309  1  0.49039434  0.99047996  0.87520119  1
  O  O310  1  0.98196331  0.49109096  0.37979036  1
  O  O311  1  0.98587117  0.50489348  0.85314662  1
  O  O312  1  0.99045112  0.99762754  0.37193664  1
  O  O313  1  0.99688928  1.00180284  0.88648853  1
  O  O314  1  0.00275145  -0.00237969  0.11208325  1
  O  O315  1  0.01362637  0.01514911  0.63073087  1
  O  O316  1  -0.04919539  0.52837716  0.10643891  1
  O  O317  1  -0.00909815  0.48812610  0.60696595  1
  O  O318  1  0.48445860  0.00898601  0.11820811  1
  O  O319  1  0.51102166  0.01193770  0.64887612  1
  O  O320  1  0.50944487  0.51034209  0.11828352  1
  O  O321  1  0.49332458  0.51373804  0.61000878  1
  O  O322  1  0.20765683  0.36972815  0.21896699  1
  O  O323  1  0.24294771  0.38648585  0.75214790  1
  O  O324  1  0.24537782  0.88441093  0.23673212  1
  O  O325  1  0.24641708  0.88767837  0.73972504  1
  O  O326  1  0.75438472  0.38813033  0.25085162  1
  O  O327  1  0.73934743  0.38020938  0.74282592  1
  O  O328  1  0.78577079  0.86834418  0.21512844  1
  O  O329  1  0.75016954  0.88711720  0.74660787  1
  O  O330  1  0.24269607  0.11077373  0.24449832  1
  O  O331  1  0.25710229  0.12226411  0.75941137  1
  O  O332  1  0.25305813  0.60295587  0.22022200  1
  O  O333  1  0.26146671  0.62242254  0.76020563  1
  O  O334  1  0.76513959  0.12210374  0.26530369  1
  O  O335  1  0.76299788  0.11069876  0.75374669  1
  O  O336  1  0.75454189  0.61985240  0.26278075  1
  O  O337  1  0.73560040  0.61862489  0.75724335  1
  O  O338  1  0.35496336  0.11136121  0.36553952  1
  O  O339  1  0.36750961  0.12047006  0.87205358  1
  O  O340  1  0.36060982  0.61743280  0.37352128  1
  O  O341  1  0.37603839  0.62439233  0.86463665  1
  O  O342  1  0.87262623  0.11662089  0.37144828  1
  O  O343  1  0.87567015  0.11894404  0.86143348  1
  O  O344  1  0.86449449  0.61185343  0.37112076  1
  O  O345  1  0.85303349  0.62291066  0.86476559  1
  O  O346  1  0.07175607  0.39370033  0.13130111  1
  O  O347  1  0.13470994  0.37748094  0.64534402  1
  O  O348  1  0.13666226  0.87377346  0.13058776  1
  O  O349  1  0.13330871  0.89293860  0.63258175  1
  O  O350  1  0.61583583  0.39508454  0.12167075  1
  O  O351  1  0.63472304  0.35550429  0.61569856  1
  O  O352  1  0.62385832  0.89154078  0.11758136  1
  O  O353  1  0.64293406  0.86536137  0.62420187  1
  O  O354  1  0.10241200  0.25762939  0.24924028  1
  O  O355  1  0.11903000  0.26373623  0.75935349  1
  O  O356  1  0.13663888  0.76084846  0.26340797  1
  O  O357  1  0.12989516  0.77051612  0.74057615  1
  O  O358  1  0.63632717  0.24519225  0.26885741  1
  O  O359  1  0.61644418  0.24612233  0.75612703  1
  O  O360  1  0.61143102  0.74314061  0.26346017  1
  O  O361  1  0.62714130  0.75308543  0.76636374  1
  O  O362  1  0.35492154  0.27234913  0.22955737  1
  O  O363  1  0.38036914  0.24036192  0.76314506  1
  O  O364  1  0.39440942  0.75099791  0.26258298  1
  O  O365  1  0.36734561  0.74431425  0.73088141  1
  O  O366  1  0.88119492  0.23288540  0.25639265  1
  O  O367  1  0.88539315  0.24177697  0.74102891  1
  O  O368  1  0.87606626  0.73533836  0.27122613  1
  O  O369  1  0.87781330  0.75236126  0.73809222  1
  O  O370  1  0.38953356  0.50825249  0.48980236  1
  O  O371  1  0.38160732  0.49836826  0.99390328  1
  O  O372  1  0.36763884  1.01254056  0.49126625  1
  O  O373  1  0.36417579  0.99497522  0.99006505  1
  O  O374  1  0.87359858  0.49958026  0.48733383  1
  O  O375  1  0.86491918  0.50662535  0.96641307  1
  O  O376  1  0.88247766  1.00842564  0.49173308  1
  O  O377  1  0.88930191  0.99083066  0.98408704  1
  O  O378  1  0.11390394  -0.00791991  0.00878281  1
  O  O379  1  0.13003557  0.00137762  0.51313179  1
  O  O380  1  0.17907450  0.52915796  0.02191937  1
  O  O381  1  0.11008249  0.48766833  0.49318066  1
  O  O382  1  0.63296520  0.01501858  0.01569337  1
  O  O383  1  0.62109123  0.01661447  0.49291537  1
  O  O384  1  0.61712552  0.50904154  0.00711265  1
  O  O385  1  0.60066733  0.49647562  0.49557833  1
  O  O386  1  0.37653501  0.37485186  0.10882872  1
  O  O387  1  0.36866159  0.36966404  0.65333715  1
  O  O388  1  0.36656956  0.87551383  0.11617456  1
  O  O389  1  0.36864313  0.86637817  0.63100410  1
  O  O390  1  0.88308046  0.35629262  0.09529723  1
  O  O391  1  0.87195901  0.36152742  0.62869465  1
  O  O392  1  0.84323190  0.86748389  0.16462581  1
  O  O393  1  0.86647966  0.86982352  0.62748084  1
  O  O394  1  0.13499674  0.12855710  0.36092424  1
  O  O395  1  0.13547985  0.13982377  0.86691796  1
  O  O396  1  0.12555350  0.63753688  0.36581535  1
  O  O397  1  0.15038622  0.62043230  0.89320773  1
  O  O398  1  0.64040535  0.12018529  0.37606907  1
  O  O399  1  0.64485057  0.11693990  0.87925758  1
  O  O400  1  0.63589367  0.62556368  0.37302685  1
  O  O401  1  0.62053809  0.63864907  0.88111062  1
