# generated using pymatgen
data_V73Zn73O256
_symmetry_space_group_name_H-M   'P 1'
_cell_length_a   16.83046953
_cell_length_b   16.83301885
_cell_length_c   16.83269900
_cell_angle_alpha   89.95173180
_cell_angle_beta   89.97156450
_cell_angle_gamma   90.03588852
_symmetry_Int_Tables_number   1
_chemical_formula_structural   V73Zn73O256
_chemical_formula_sum   'V73 Zn73 O256'
_cell_volume   4768.82852126
_cell_formula_units_Z   1
loop_
 _symmetry_equiv_pos_site_id
 _symmetry_equiv_pos_as_xyz
  1  'x, y, z'
loop_
 _atom_site_type_symbol
 _atom_site_label
 _atom_site_symmetry_multiplicity
 _atom_site_fract_x
 _atom_site_fract_y
 _atom_site_fract_z
 _atom_site_occupancy
  V  V0  1  -0.00870970  0.24843931  0.75008919  1
  V  V1  1  0.13524936  0.24035609  0.87393903  1
  V  V2  1  -0.02305532  0.37586629  0.37604278  1
  V  V3  1  0.75604949  0.88510932  0.61268706  1
  V  V4  1  0.87554060  0.74828623  0.61500008  1
  V  V5  1  0.49590611  0.14145545  0.62905013  1
  V  V6  1  0.63826944  0.24286509  0.87700100  1
  V  V7  1  0.36065283  0.88111584  -0.00291288  1
  V  V8  1  -0.00474295  0.74828667  0.75009297  1
  V  V9  1  -0.00606027  0.00470931  0.00637971  1
  V  V10  1  0.86955684  0.61766424  0.75593066  1
  V  V11  1  -0.00525917  0.13232365  0.61872559  1
  V  V12  1  0.76093632  0.26023252  0.50606114  1
  V  V13  1  0.38011364  0.13934509  0.76221174  1
  V  V14  1  0.74720727  0.00944636  0.25466608  1
  V  V15  1  0.75311349  0.10753204  0.89572169  1
  V  V16  1  0.50230450  0.36126499  0.85876362  1
  V  V17  1  0.26038002  0.36211127  0.62525427  1
  V  V18  1  -0.00643753  0.50241829  0.00528987  1
  V  V19  1  -0.00714108  0.37876920  0.87386096  1
  V  V20  1  0.36012676  0.75709706  0.11978529  1
  V  V21  1  0.72664284  0.74570051  0.48953688  1
  V  V22  1  0.50589138  0.75306584  0.75253425  1
  V  V23  1  0.12583604  0.37384796  0.74879504  1
  V  V24  1  0.61451508  0.00274240  0.61982889  1
  V  V25  1  0.87431335  0.86543829  0.00317592  1
  V  V26  1  0.62711929  0.64777850  -0.00242581  1
  V  V27  1  0.13038885  0.74737206  0.87731579  1
  V  V28  1  0.48638457  0.15390755  0.16074865  1
  V  V29  1  0.86650057  0.10994912  0.75333512  1
  V  V30  1  0.62496662  0.87408610  0.25841851  1
  V  V31  1  0.12652689  0.12551297  0.01626960  1
  V  V32  1  0.89293429  0.13560615  0.24611189  1
  V  V33  1  0.13036812  0.88035944  0.74424218  1
  V  V34  1  0.36116037  0.61946424  0.25281038  1
  V  V35  1  0.51657471  0.61973914  0.62050043  1
  V  V36  1  0.15617418  0.38011854  0.25812141  1
  V  V37  1  0.13070954  0.62537974  0.00585413  1
  V  V38  1  -0.00455231  -0.01076701  0.49571557  1
  V  V39  1  0.14015968  0.48709666  0.12341502  1
  V  V40  1  0.75928088  0.48785109  0.24385469  1
  V  V41  1  0.26401922  0.00716081  0.75416749  1
  V  V42  1  0.62739455  0.48930818  0.11803509  1
  V  V43  1  0.00461102  0.74310670  0.26468180  1
  V  V44  1  0.63287666  0.88039870  0.75342941  1
  V  V45  1  0.13424900  -0.02957268  0.13018687  1
  V  V46  1  0.49462086  0.88748728  0.38312020  1
  V  V47  1  0.24479773  0.61989916  0.39804698  1
  V  V48  1  0.74558427  0.65844602  0.87475218  1
  V  V49  1  0.62494372  0.25593678  0.36494621  1
  V  V50  1  0.74579369  0.38573996  0.64533676  1
  V  V51  1  0.86682328  0.36152642  0.01216205  1
  V  V52  1  -0.00501527  0.87953491  0.87653968  1
  V  V53  1  0.62976252  0.12678850  0.48996150  1
  V  V54  1  0.74096145  0.61563889  0.35930989  1
  V  V55  1  0.37565539  0.37646156  0.01183346  1
  V  V56  1  0.36782570  0.88966849  0.50219684  1
  V  V57  1  0.88221858  -0.00995055  0.37377696  1
  V  V58  1  0.13216920  0.13943240  0.49408147  1
  V  V59  1  0.37423539  0.37127900  0.48907996  1
  V  V60  1  0.25246572  0.50246998  0.75170644  1
  V  V61  1  0.37669144  0.62702470  0.74954922  1
  V  V62  1  0.74523345  0.87071908  0.12525058  1
  V  V63  1  0.11806026  0.51240695  0.62241319  1
  V  V64  1  0.49676121  0.88512577  0.87377123  1
  V  V65  1  0.02257076  0.25618417  0.24301523  1
  V  V66  1  0.87964602  0.73475550  0.13561339  1
  V  V67  1  0.50076883  0.74813087  0.25491772  1
  V  V68  1  0.51292116  0.00153040  0.01498934  1
  V  V69  1  0.25809693  0.24754898  0.01737958  1
  V  V70  1  0.26807525  -0.00080353  0.28421470  1
  V  V71  1  0.50897034  0.50136593  0.49098417  1
  V  V72  1  0.36617027  0.75193858  0.61398301  1
  Zn  Zn73  1  0.38247111  0.49817375  0.87345316  1
  Zn  Zn74  1  0.02272753  0.50130662  0.47523326  1
  Zn  Zn75  1  0.49745290  0.38033466  0.36961161  1
  Zn  Zn76  1  0.60504534  0.36297352  0.23575471  1
  Zn  Zn77  1  0.12657988  0.73696943  0.37193092  1
  Zn  Zn78  1  0.50461938  0.50019533  -0.00746183  1
  Zn  Zn79  1  0.25523140  0.62835068  0.87794342  1
  Zn  Zn80  1  0.50025722  0.63272985  0.11851164  1
  Zn  Zn81  1  0.12908932  -0.00221807  0.61868860  1
  Zn  Zn82  1  0.22467596  0.19063588  0.21285852  1
  Zn  Zn83  1  0.18769389  0.17953740  0.68293576  1
  Zn  Zn84  1  0.18044731  0.68994929  0.18848702  1
  Zn  Zn85  1  0.18686313  0.69102590  0.68685277  1
  Zn  Zn86  1  0.67303301  0.17757086  0.16914952  1
  Zn  Zn87  1  0.68615545  0.19780487  0.69078016  1
  Zn  Zn88  1  0.68681913  0.68810251  0.18399072  1
  Zn  Zn89  1  0.69300058  0.69579791  0.68491830  1
  Zn  Zn90  1  0.36693767  0.33528783  0.26531908  1
  Zn  Zn91  1  0.31672046  0.31374386  0.81592654  1
  Zn  Zn92  1  0.30586636  0.81086886  0.31758965  1
  Zn  Zn93  1  0.31466695  0.81433052  0.81001372  1
  Zn  Zn94  1  0.80141786  0.30616535  0.30961573  1
  Zn  Zn95  1  0.81060437  0.30748962  0.81653953  1
  Zn  Zn96  1  0.81762421  0.80959720  0.31360066  1
  Zn  Zn97  1  0.81531352  0.82441488  0.80736845  1
  Zn  Zn98  1  0.20106000  0.44319487  0.43828797  1
  Zn  Zn99  1  0.19009611  0.43374352  0.93797732  1
  Zn  Zn100  1  0.18938887  0.94389317  0.44291442  1
  Zn  Zn101  1  0.18136107  0.94453290  0.93279794  1
  Zn  Zn102  1  0.68845803  0.43482684  0.43603429  1
  Zn  Zn103  1  0.68184858  0.43060894  0.93565632  1
  Zn  Zn104  1  0.68861727  0.93957513  0.43379510  1
  Zn  Zn105  1  0.69010639  0.93454650  0.93881465  1
  Zn  Zn106  1  0.31547673  0.06128007  0.06824806  1
  Zn  Zn107  1  0.31069171  0.06216741  0.57245718  1
  Zn  Zn108  1  0.31743523  0.56593472  0.06380832  1
  Zn  Zn109  1  0.31893122  0.55371490  0.56493534  1
  Zn  Zn110  1  0.81652277  0.05746495  0.07559369  1
  Zn  Zn111  1  0.81566093  0.07215194  0.55930222  1
  Zn  Zn112  1  0.80478360  0.55774149  0.05348595  1
  Zn  Zn113  1  0.79045307  0.57010961  0.56535312  1
  Zn  Zn114  1  0.44729686  0.44999716  0.17913518  1
  Zn  Zn115  1  0.44353985  0.43815911  0.68419490  1
  Zn  Zn116  1  0.42739153  0.93898478  0.19075864  1
  Zn  Zn117  1  0.43693400  0.93794119  0.68453977  1
  Zn  Zn118  1  0.94417985  0.43402413  0.18579061  1
  Zn  Zn119  1  0.90999534  0.46013623  0.63469083  1
  Zn  Zn120  1  0.94349191  0.93002860  0.19222164  1
  Zn  Zn121  1  0.93999570  0.93811315  0.68298908  1
  Zn  Zn122  1  0.09397586  0.07317975  0.29596142  1
  Zn  Zn123  1  0.05778777  0.06276077  0.81487530  1
  Zn  Zn124  1  0.06419333  0.56334879  0.30415539  1
  Zn  Zn125  1  0.06059197  0.56242577  0.81201405  1
  Zn  Zn126  1  0.55590344  0.06549232  0.30433258  1
  Zn  Zn127  1  0.56841833  0.06684706  0.81121894  1
  Zn  Zn128  1  0.56892005  0.56530057  0.30967484  1
  Zn  Zn129  1  0.56377012  0.56671643  0.81990507  1
  Zn  Zn130  1  0.45714936  0.20361137  0.46009312  1
  Zn  Zn131  1  0.44134637  0.18455683  0.94594118  1
  Zn  Zn132  1  0.43807411  0.68515523  0.43363495  1
  Zn  Zn133  1  0.44020896  0.69619495  0.93654135  1
  Zn  Zn134  1  0.93860694  0.18641880  0.42187127  1
  Zn  Zn135  1  0.93626155  0.18583188  0.93528506  1
  Zn  Zn136  1  0.92775584  0.67009684  0.43153208  1
  Zn  Zn137  1  0.93765394  0.68493222  0.93667764  1
  Zn  Zn138  1  0.06376291  0.31254628  0.06084177  1
  Zn  Zn139  1  0.05799581  0.31749605  0.55877837  1
  Zn  Zn140  1  0.05591462  0.80503482  0.06619847  1
  Zn  Zn141  1  0.05517342  0.81076596  0.56235965  1
  Zn  Zn142  1  0.55953047  0.29938881  0.05460354  1
  Zn  Zn143  1  0.56983771  0.31916920  0.56330635  1
  Zn  Zn144  1  0.55431007  0.82308562  0.06887709  1
  Zn  Zn145  1  0.55633071  0.81409314  0.56748566  1
  O  O146  1  0.12030754  0.12912845  0.11403017  1
  O  O147  1  0.10764440  0.11980597  0.62393827  1
  O  O148  1  0.12654485  0.61540032  0.10959009  1
  O  O149  1  0.12411007  0.61309994  0.63239797  1
  O  O150  1  0.58270811  0.11659877  0.14073322  1
  O  O151  1  0.61841289  0.11326736  0.62794512  1
  O  O152  1  0.62791437  0.62305961  0.10678145  1
  O  O153  1  0.61540891  0.63081926  0.62882531  1
  O  O154  1  0.37156809  0.37111670  0.38695498  1
  O  O155  1  0.38729678  0.37655150  0.87899428  1
  O  O156  1  0.38524040  0.87034563  0.38980874  1
  O  O157  1  0.38445697  0.86718990  0.88557046  1
  O  O158  1  0.87778978  0.37539605  0.36825807  1
  O  O159  1  0.89139529  0.37138238  0.87647997  1
  O  O160  1  0.87458716  0.88993639  0.37460996  1
  O  O161  1  0.88530323  0.87106368  0.88533447  1
  O  O162  1  0.26359612  0.00931037  0.38624726  1
  O  O163  1  0.23656399  0.00462923  0.85275742  1
  O  O164  1  0.25889644  0.51959730  0.37688031  1
  O  O165  1  0.25198323  0.49967723  0.86075186  1
  O  O166  1  0.76231200  -0.00235247  0.36347497  1
  O  O167  1  0.75349103  0.00783377  0.87692410  1
  O  O168  1  0.73885296  0.50486696  0.35704419  1
  O  O169  1  0.71689762  0.50272466  0.83903128  1
  O  O170  1  0.23873032  0.49896613  0.11588637  1
  O  O171  1  0.24123588  0.49227379  0.63750333  1
  O  O172  1  0.23295291  1.00119325  0.12535615  1
  O  O173  1  0.24151031  1.00006243  0.64677627  1
  O  O174  1  0.73660445  0.50363096  0.13159440  1
  O  O175  1  0.75269869  0.49019187  0.63149712  1
  O  O176  1  0.76127828  0.98118430  0.14543643  1
  O  O177  1  0.74982483  0.98816526  0.61620208  1
  O  O178  1  0.00825214  0.36768027  0.25824993  1
  O  O179  1  0.00995559  0.36637911  0.76190323  1
  O  O180  1  -0.01319284  0.84665587  0.25392204  1
  O  O181  1  0.00396379  0.86835742  0.75780793  1
  O  O182  1  0.47950778  0.37175688  0.25500125  1
  O  O183  1  0.49884003  0.37316265  0.75897364  1
  O  O184  1  0.50391567  0.87025762  0.25854807  1
  O  O185  1  0.50829235  0.87252558  0.75265030  1
  O  O186  1  0.48213830  0.13901896  0.26351380  1
  O  O187  1  0.49083860  0.11623328  0.73907220  1
  O  O188  1  0.49444383  0.64051406  0.25034942  1
  O  O189  1  0.49822951  0.63135274  0.74310601  1
  O  O190  1  1.00381897  0.14570043  0.25614374  1
  O  O191  1  0.99301967  0.12961647  0.74406395  1
  O  O192  1  1.00054502  0.63754681  0.24659880  1
  O  O193  1  0.98292157  0.63694596  0.76302879  1
  O  O194  1  0.36405204  0.25657972  -0.00139964  1
  O  O195  1  0.38258766  0.27079185  0.50900189  1
  O  O196  1  0.37854762  0.75900117  0.01116823  1
  O  O197  1  0.38047777  0.75105398  0.51175051  1
  O  O198  1  0.88203817  0.26203204  -0.00172295  1
  O  O199  1  0.85796483  0.23666567  0.48977176  1
  O  O200  1  0.88307840  0.75975548  0.00945613  1
  O  O201  1  0.87771152  0.74436323  0.51477827  1
  O  O202  1  0.12351329  0.23953854  0.50766583  1
  O  O203  1  0.13381123  0.24705613  0.99138326  1
  O  O204  1  0.13427561  0.79205612  0.48289884  1
  O  O205  1  0.11343310  0.73212221  0.99254672  1
  O  O206  1  0.63042367  0.24005877  0.49364029  1
  O  O207  1  0.61260468  0.23529262  0.97966576  1
  O  O208  1  0.62816872  0.75521297  0.49978480  1
  O  O209  1  0.62423026  0.74653745  1.00628698  1
  O  O210  1  0.49510695  0.25425441  0.13742397  1
  O  O211  1  0.50938363  0.23990559  0.62817574  1
  O  O212  1  0.49083083  0.75394791  0.13733855  1
  O  O213  1  0.49345092  0.73872233  0.63243215  1
  O  O214  1  1.00462202  0.26007758  0.14389214  1
  O  O215  1  1.00488095  0.24102854  0.63603138  1
  O  O216  1  0.98502237  0.74471063  0.13203030  1
  O  O217  1  0.98539242  0.75350465  0.63405662  1
  O  O218  1  -0.00110335  0.26690740  0.36081913  1
  O  O219  1  0.01125467  0.25863001  0.87101365  1
  O  O220  1  0.00082269  0.73461195  0.37279048  1
  O  O221  1  0.00684096  0.75792982  0.86872812  1
  O  O222  1  0.51864601  0.25356009  0.38073252  1
  O  O223  1  0.49852200  0.25841739  0.87493002  1
  O  O224  1  0.49339275  0.75959504  0.35962126  1
  O  O225  1  0.50078549  0.76187858  0.85902184  1
  O  O226  1  0.22956366  0.11861079  0.51682168  1
  O  O227  1  0.24391606  0.13932954  1.00389966  1
  O  O228  1  0.25846381  0.62418422  0.49870082  1
  O  O229  1  0.23529754  0.61893375  0.99398885  1
  O  O230  1  0.73398116  0.13443629  0.50791216  1
  O  O231  1  0.76074660  0.11435437  0.99559516  1
  O  O232  1  0.73970218  0.64163865  0.49617543  1
  O  O233  1  0.74015901  0.62497938  0.98145952  1
  O  O234  1  0.26164191  0.35999343  -0.00786213  1
  O  O235  1  0.26332087  0.38097826  0.51532648  1
  O  O236  1  0.26160973  0.87958035  -0.01350257  1
  O  O237  1  0.26875613  0.87892172  0.50213353  1
  O  O238  1  0.77156621  0.38537646  -0.01487098  1
  O  O239  1  0.75123074  0.36408459  0.49972443  1
  O  O240  1  0.75930114  0.88190695  0.01664081  1
  O  O241  1  0.74646007  0.86686311  0.50767825  1
  O  O242  1  0.12738393  0.48863039  0.23274178  1
  O  O243  1  0.13230836  0.49307662  0.74639763  1
  O  O244  1  0.10170710  0.98086806  0.22764798  1
  O  O245  1  0.11700735  0.98569717  0.74981240  1
  O  O246  1  0.62079983  0.49589639  0.22958032  1
  O  O247  1  0.66437451  0.50425941  0.78262235  1
  O  O248  1  0.63957921  0.99238703  0.25876624  1
  O  O249  1  0.62415712  0.98879227  0.73442374  1
  O  O250  1  0.36488133  0.00862569  0.25366343  1
  O  O251  1  0.36737098  -0.00040927  0.75114574  1
  O  O252  1  0.38118194  0.52217103  0.23888659  1
  O  O253  1  0.36948237  0.51140833  0.74681773  1
  O  O254  1  0.87340968  0.00176322  0.25906721  1
  O  O255  1  0.88113233  0.01002644  0.75154762  1
  O  O256  1  0.85848866  0.49329337  0.23743302  1
  O  O257  1  0.87764871  0.52101846  0.74190877  1
  O  O258  1  0.14160108  0.38355080  0.35834213  1
  O  O259  1  0.12165307  0.36459040  0.86679046  1
  O  O260  1  0.12072601  0.85057880  0.42104501  1
  O  O261  1  0.11477867  0.86608748  0.86799996  1
  O  O262  1  0.62059009  0.36543511  0.36625546  1
  O  O263  1  0.61296646  0.35820076  0.87994101  1
  O  O264  1  0.61346132  0.87662870  0.36735322  1
  O  O265  1  0.62314884  0.87912233  0.85698223  1
  O  O266  1  0.39554172  0.12063473  0.12085062  1
  O  O267  1  0.39275622  0.12469301  0.62755898  1
  O  O268  1  0.37901170  0.63996548  0.12880739  1
  O  O269  1  0.38363302  0.63409671  0.63452511  1
  O  O270  1  0.88501982  0.11241719  0.14731420  1
  O  O271  1  0.88754276  0.12411076  0.63648484  1
  O  O272  1  0.86155033  0.63886133  0.11232231  1
  O  O273  1  0.85729527  0.64533379  0.64460738  1
  O  O274  1  0.24862523  0.25080645  0.11629056  1
  O  O275  1  0.24647291  0.26380866  0.63152520  1
  O  O276  1  0.26104844  0.74887296  0.12641924  1
  O  O277  1  0.26676286  0.74935581  0.62944097  1
  O  O278  1  0.72631980  0.24894929  0.10312063  1
  O  O279  1  0.74574503  0.25494504  0.61150615  1
  O  O280  1  0.76075094  0.76406968  0.13365026  1
  O  O281  1  0.75585391  0.76113411  0.61010623  1
  O  O282  1  0.26733421  0.21378629  0.38434136  1
  O  O283  1  0.23683185  0.24972682  0.87527575  1
  O  O284  1  0.24583871  0.72845502  0.36797529  1
  O  O285  1  0.23476180  0.74987876  0.86710952  1
  O  O286  1  0.73299900  0.25220800  0.38835008  1
  O  O287  1  0.74387743  0.23747601  0.88061418  1
  O  O288  1  0.74790440  0.75134463  0.38663846  1
  O  O289  1  0.74905259  0.75754395  0.87908854  1
  O  O290  1  0.00470474  0.10978383  -0.00507523  1
  O  O291  1  0.00074210  0.12930148  0.51169063  1
  O  O292  1  0.00972359  0.60721573  -0.01197499  1
  O  O293  1  -0.04439680  0.58726729  0.51498100  1
  O  O294  1  0.49753918  0.10039614  -0.00532204  1
  O  O295  1  0.51683430  0.12559870  0.51713161  1
  O  O296  1  0.51745372  0.62671134  -0.00963138  1
  O  O297  1  0.49545413  0.61546470  0.51133872  1
  O  O298  1  0.49375222  0.38378670  0.49889751  1
  O  O299  1  0.48380200  0.37210287  0.99354873  1
  O  O300  1  0.49816845  0.87285648  0.48719584  1
  O  O301  1  0.49414584  0.88046159  0.98866975  1
  O  O302  1  1.00097323  0.37880986  0.48122380  1
  O  O303  1  0.99710978  0.38028772  0.98937233  1
  O  O304  1  0.98840948  0.89182372  0.51109614  1
  O  O305  1  0.99456217  0.87871170  0.99352999  1
  O  O306  1  0.50142786  0.50482092  0.38686679  1
  O  O307  1  0.50415901  0.48569307  0.87539694  1
  O  O308  1  0.49972650  0.98643448  0.37083665  1
  O  O309  1  0.50562476  0.98790379  0.87546820  1
  O  O310  1  1.00445358  0.48118792  0.36244128  1
  O  O311  1  1.00940641  0.48391876  0.88290802  1
  O  O312  1  0.99276341  0.99953330  0.38667342  1
  O  O313  1  1.00964390  0.98804318  0.89095909  1
  O  O314  1  0.01159355  -0.01432848  0.10870041  1
  O  O315  1  -0.00388765  0.01256764  0.61274754  1
  O  O316  1  0.01353041  0.49312829  0.10872201  1
  O  O317  1  0.01967627  0.49050630  0.63476417  1
  O  O318  1  0.50085299  -0.01734206  0.11481383  1
  O  O319  1  0.51328886  0.00001162  0.62038420  1
  O  O320  1  0.51480039  0.51350405  0.11260297  1
  O  O321  1  0.50404712  0.51580008  0.62505767  1
  O  O322  1  0.25462634  0.37564852  0.24737755  1
  O  O323  1  0.24478473  0.38065257  0.74486653  1
  O  O324  1  0.24552917  0.89821089  0.27206283  1
  O  O325  1  0.23557537  0.88172909  0.75448278  1
  O  O326  1  0.73964024  0.38626421  0.24887552  1
  O  O327  1  0.74769373  0.36726755  0.74658628  1
  O  O328  1  0.74170533  0.87633128  0.24761195  1
  O  O329  1  0.73791859  0.87052979  0.73425040  1
  O  O330  1  0.20973059  0.09026102  0.25966220  1
  O  O331  1  0.26748322  0.11808241  0.74371895  1
  O  O332  1  0.26024946  0.62424830  0.24133740  1
  O  O333  1  0.25969693  0.61978495  0.75020397  1
  O  O334  1  0.75192491  0.11009772  0.24041038  1
  O  O335  1  0.76670528  0.12550113  0.74219379  1
  O  O336  1  0.74073435  0.61226627  0.25229197  1
  O  O337  1  0.75627544  0.64094158  0.76478531  1
  O  O338  1  0.32978774  0.19462787  0.34933799  1
  O  O339  1  0.38368964  0.12644716  0.86084621  1
  O  O340  1  0.36570801  0.63302178  0.35924389  1
  O  O341  1  0.37734828  0.62772729  0.86182192  1
  O  O342  1  0.88050384  0.11117253  0.35403176  1
  O  O343  1  0.86373548  0.12652147  0.86452158  1
  O  O344  1  0.84233458  0.62509685  0.37603148  1
  O  O345  1  0.85736663  0.63124958  0.86868760  1
  O  O346  1  0.13113983  0.38263937  0.12718148  1
  O  O347  1  0.13350867  0.37711383  0.63757901  1
  O  O348  1  0.13588281  0.87139186  0.11121276  1
  O  O349  1  0.11681018  0.87210235  0.64194751  1
  O  O350  1  0.61678751  0.38604527  0.11651913  1
  O  O351  1  0.64301007  0.37373995  0.62499629  1
  O  O352  1  0.63955799  0.87146711  0.13552270  1
  O  O353  1  0.63317224  0.88769027  0.62529492  1
  O  O354  1  0.12941156  0.26637949  0.24558727  1
  O  O355  1  0.12029613  0.25191467  0.75991485  1
  O  O356  1  0.11127917  0.75053774  0.25276355  1
  O  O357  1  0.11494382  0.75764946  0.75529104  1
  O  O358  1  0.63415510  0.24681102  0.26193305  1
  O  O359  1  0.61937091  0.23565839  0.77374544  1
  O  O360  1  0.61010809  0.75906618  0.24369263  1
  O  O361  1  0.61584992  0.76944812  0.73492250  1
  O  O362  1  0.33215665  0.22323656  0.26074677  1
  O  O363  1  0.37273944  0.23828669  0.74992920  1
  O  O364  1  0.38118814  0.74972151  0.23825372  1
  O  O365  1  0.38457442  0.74654645  0.74075536  1
  O  O366  1  0.87396698  0.23675225  0.25045436  1
  O  O367  1  0.88883307  0.23961633  0.75833565  1
  O  O368  1  0.87585277  0.74017846  0.24128154  1
  O  O369  1  0.88280275  0.75181621  0.74565028  1
  O  O370  1  0.39186592  0.48333109  0.51222838  1
  O  O371  1  0.37346176  0.48885053  0.99479703  1
  O  O372  1  0.38081974  0.98815567  0.51561623  1
  O  O373  1  0.38231001  0.98305396  1.00409733  1
  O  O374  1  0.89310146  0.52601375  0.52638479  1
  O  O375  1  0.89059950  0.49418710  1.00198523  1
  O  O376  1  0.88333116  1.01375067  0.48536315  1
  O  O377  1  0.88969272  0.98807084  1.00868442  1
  O  O378  1  0.11935282  0.00629935  0.01015340  1
  O  O379  1  0.10714752  0.00757695  0.50158226  1
  O  O380  1  0.12028634  0.50325107  0.00433646  1
  O  O381  1  0.13027572  0.49397383  0.51880988  1
  O  O382  1  0.61277155  -0.01339008  0.00215202  1
  O  O383  1  0.63280719  0.01255464  0.50972786  1
  O  O384  1  0.63018376  0.50625644  0.00759766  1
  O  O385  1  0.60895869  0.49173023  0.50101948  1
  O  O386  1  0.37488817  0.38113701  0.11180326  1
  O  O387  1  0.36201094  0.37532074  0.63205310  1
  O  O388  1  0.37289535  0.86586748  0.11287446  1
  O  O389  1  0.38828819  0.86051770  0.61370259  1
  O  O390  1  0.87738393  0.37582510  0.11137495  1
  O  O391  1  0.85267787  0.36711171  0.62456629  1
  O  O392  1  0.86864208  0.86354464  0.12074673  1
  O  O393  1  0.86172943  0.86538324  0.63075074  1
  O  O394  1  0.11540709  0.12570771  0.39520044  1
  O  O395  1  0.11834687  0.13777214  0.88219121  1
  O  O396  1  0.13605185  0.61709728  0.38221926  1
  O  O397  1  0.12612803  0.63166471  0.87966374  1
  O  O398  1  0.62010454  0.12868373  0.38676389  1
  O  O399  1  0.64584448  0.12314902  0.87403039  1
  O  O400  1  0.63794492  0.63009974  0.37399739  1
  O  O401  1  0.63563692  0.63794091  0.88078863  1
