# generated using pymatgen
data_V73Zn73O256
_symmetry_space_group_name_H-M   'P 1'
_cell_length_a   16.89236609
_cell_length_b   16.92291564
_cell_length_c   16.89831359
_cell_angle_alpha   90.32191173
_cell_angle_beta   89.95663110
_cell_angle_gamma   89.90736199
_symmetry_Int_Tables_number   1
_chemical_formula_structural   V73Zn73O256
_chemical_formula_sum   'V73 Zn73 O256'
_cell_volume   4830.60459045
_cell_formula_units_Z   1
loop_
 _symmetry_equiv_pos_site_id
 _symmetry_equiv_pos_as_xyz
  1  'x, y, z'
loop_
 _atom_site_type_symbol
 _atom_site_label
 _atom_site_symmetry_multiplicity
 _atom_site_fract_x
 _atom_site_fract_y
 _atom_site_fract_z
 _atom_site_occupancy
  V  V0  1  0.49770426  0.88899138  0.37578808  1
  V  V1  1  0.24638551  0.37400320  0.13697918  1
  V  V2  1  0.74290072  0.37760746  0.63175950  1
  V  V3  1  0.24887893  0.01130964  0.75482064  1
  V  V4  1  0.86226758  0.63696626  0.76984913  1
  V  V5  1  -0.00316806  0.00623069  -0.00215276  1
  V  V6  1  0.37203982  0.24720215  0.61383971  1
  V  V7  1  0.38460450  0.88447538  0.49924181  1
  V  V8  1  0.49932061  0.87915384  0.87733033  1
  V  V9  1  0.02012157  -0.00084720  0.50882867  1
  V  V10  1  0.50371593  0.75152028  0.74609071  1
  V  V11  1  0.63088877  0.37916820  0.23862509  1
  V  V12  1  0.47590345  0.38616076  0.87843064  1
  V  V13  1  0.86687598  0.74359862  0.60966241  1
  V  V14  1  0.24212138  0.88548067  0.62536179  1
  V  V15  1  0.22871793  0.11624787  0.38147293  1
  V  V16  1  0.63219280  0.74663880  0.88998181  1
  V  V17  1  0.89686690  0.58649645  0.28323855  1
  V  V18  1  0.61996861  0.87441306  0.25043519  1
  V  V19  1  0.12619343  0.13335451  -0.01199543  1
  V  V20  1  0.13009521  0.60103867  0.50464194  1
  V  V21  1  0.61236970  -0.00237643  0.62265981  1
  V  V22  1  0.12036810  0.87297169  0.75391332  1
  V  V23  1  0.24741988  0.25119250  -0.00546878  1
  V  V24  1  0.75388408  0.87553186  0.60901553  1
  V  V25  1  -0.00090302  0.86591894  0.86972748  1
  V  V26  1  0.00698976  0.62366384  0.64982966  1
  V  V27  1  0.89742416  0.76109833  0.14118487  1
  V  V28  1  0.11968599  0.35381266  0.26666596  1
  V  V29  1  0.62640176  0.13104501  0.00345906  1
  V  V30  1  0.87251439  0.87885857  -0.00169168  1
  V  V31  1  0.24845586  0.51558388  0.25637736  1
  V  V32  1  0.62330085  0.51517152  0.62121776  1
  V  V33  1  0.23898921  0.74775295  0.49871847  1
  V  V34  1  0.49342043  0.61388397  0.11043926  1
  V  V35  1  -0.00012400  0.13927205  0.12860884  1
  V  V36  1  0.36960355  0.88096871  0.00581502  1
  V  V37  1  0.89021303  0.37869316  0.00532450  1
  V  V38  1  0.75319857  0.00036933  0.25089240  1
  V  V39  1  0.73669933  0.50230378  0.76876404  1
  V  V40  1  0.63962084  0.60662607  0.00073734  1
  V  V41  1  0.62275263  0.00783742  0.12564521  1
  V  V42  1  0.49951366  0.24572215  0.24389856  1
  V  V43  1  0.36181090  0.74666565  0.12378554  1
  V  V44  1  0.50299572  0.51904726  0.49996477  1
  V  V45  1  0.63405544  0.88088866  0.75127745  1
  V  V46  1  0.38314953  0.74845966  0.62395087  1
  V  V47  1  0.87865021  0.13581723  0.24544547  1
  V  V48  1  0.87319704  -0.00625367  0.39240220  1
  V  V49  1  0.89196535  0.49397059  0.87365631  1
  V  V50  1  0.86550819  0.23884104  0.64661331  1
  V  V51  1  0.50965714  0.25311346  0.74495776  1
  V  V52  1  0.75050746  0.25393206  0.50315016  1
  V  V53  1  0.37514673  0.24626258  0.12082047  1
  V  V54  1  0.50094641  0.00840516  0.00237355  1
  V  V55  1  0.49749074  0.74208199  0.24720746  1
  V  V56  1  0.49213919  0.37182719  0.38011108  1
  V  V57  1  0.61300381  0.11690325  0.50552974  1
  V  V58  1  0.74917592  0.87212833  0.12127620  1
  V  V59  1  0.75273659  0.12359777  0.86651783  1
  V  V60  1  0.62682974  0.27302593  0.88009044  1
  V  V61  1  0.13404081  -0.00630326  0.12634595  1
  V  V62  1  0.89533747  0.47463966  0.41171550  1
  V  V63  1  0.24500871  0.61805977  0.85917807  1
  V  V64  1  0.37293358  0.11728188  0.25744813  1
  V  V65  1  0.24861914  0.25695759  0.49026001  1
  V  V66  1  0.00675920  0.12338388  0.64083561  1
  V  V67  1  0.38282806  0.61680185  0.75296254  1
  V  V68  1  0.74595622  0.12380815  0.37821424  1
  V  V69  1  0.76006104  0.26108308  0.01248694  1
  V  V70  1  0.87303526  0.00715114  0.85415080  1
  V  V71  1  0.37224539  0.51942740  0.37415045  1
  V  V72  1  0.24232437  0.75410408  -0.02304863  1
  Zn  Zn73  1  0.05705467  0.33689463  0.88692315  1
  Zn  Zn74  1  0.87716264  0.78193942  0.38070453  1
  Zn  Zn75  1  0.62255076  0.25352204  0.37854304  1
  Zn  Zn76  1  0.25188781  -0.00887690  0.24945394  1
  Zn  Zn77  1  0.69224149  0.66325042  0.41561944  1
  Zn  Zn78  1  0.36836993  0.01850474  0.88037952  1
  Zn  Zn79  1  0.38894164  0.12226439  0.74806812  1
  Zn  Zn80  1  0.42985102  0.49494905  -0.00236391  1
  Zn  Zn81  1  0.05131994  0.56641286  0.05588985  1
  Zn  Zn82  1  0.18734218  0.18289084  0.18992410  1
  Zn  Zn83  1  0.19834092  0.19030212  0.67576642  1
  Zn  Zn84  1  0.17034203  0.68899324  0.18306023  1
  Zn  Zn85  1  0.19534010  0.69435820  0.68995439  1
  Zn  Zn86  1  0.68939417  0.19334477  0.18885770  1
  Zn  Zn87  1  0.67549647  0.18817025  0.68892256  1
  Zn  Zn88  1  0.71462493  0.55436972  0.23320547  1
  Zn  Zn89  1  0.68803069  0.69076951  0.69064871  1
  Zn  Zn90  1  0.31251670  0.30507143  0.31610912  1
  Zn  Zn91  1  0.31986247  0.29562789  0.81071554  1
  Zn  Zn92  1  0.31793077  0.79670339  0.32020512  1
  Zn  Zn93  1  0.31907964  0.82419175  0.80812827  1
  Zn  Zn94  1  0.81401253  0.31569107  0.31544771  1
  Zn  Zn95  1  0.80554516  0.32172498  0.81874605  1
  Zn  Zn96  1  0.76051642  0.73242882  0.25441009  1
  Zn  Zn97  1  0.80887956  0.82022319  0.82282423  1
  Zn  Zn98  1  0.19313474  0.43208363  0.43729048  1
  Zn  Zn99  1  0.22112771  0.44481514  0.94313663  1
  Zn  Zn100  1  0.19956562  0.93626894  0.43279970  1
  Zn  Zn101  1  0.18487191  0.94309510  0.93594379  1
  Zn  Zn102  1  0.68157062  0.43541845  0.43433994  1
  Zn  Zn103  1  0.69772000  0.44266915  1.07095632  1
  Zn  Zn104  1  0.69390668  0.82509525  0.42279424  1
  Zn  Zn105  1  0.68817327  0.94182924  0.93585929  1
  Zn  Zn106  1  0.31296964  0.06939685  0.06431523  1
  Zn  Zn107  1  0.32044467  0.07046400  0.56122945  1
  Zn  Zn108  1  0.23315414  0.55908241  0.05415219  1
  Zn  Zn109  1  0.31190083  0.56100247  0.56746376  1
  Zn  Zn110  1  0.81078610  0.06761736  0.06042718  1
  Zn  Zn111  1  0.79635703  0.06138218  0.57352795  1
  Zn  Zn112  1  0.85123715  0.55343049  0.09589697  1
  Zn  Zn113  1  0.81433624  0.56228326  0.56824295  1
  Zn  Zn114  1  0.43073648  0.43343059  0.19380913  1
  Zn  Zn115  1  0.40993142  0.44242589  0.65657557  1
  Zn  Zn116  1  0.43719382  0.93702248  0.18367125  1
  Zn  Zn117  1  0.43499796  0.93654277  0.68964114  1
  Zn  Zn118  1  0.95324312  0.43900359  0.18566130  1
  Zn  Zn119  1  0.94107752  0.42916337  0.60200348  1
  Zn  Zn120  1  0.94263839  0.94159807  0.18851563  1
  Zn  Zn121  1  0.94021189  0.93120246  0.67409678  1
  Zn  Zn122  1  0.05297790  0.03512109  0.31031755  1
  Zn  Zn123  1  0.06387333  0.05941159  0.80748336  1
  Zn  Zn124  1  0.06537282  0.53829067  0.32311092  1
  Zn  Zn125  1  0.03517660  0.62612452  0.86359502  1
  Zn  Zn126  1  0.55996029  0.06405548  0.31421297  1
  Zn  Zn127  1  0.56832173  0.06551978  0.81445685  1
  Zn  Zn128  1  0.55948788  0.56238520  0.30996334  1
  Zn  Zn129  1  0.56051009  0.56067149  0.81795835  1
  Zn  Zn130  1  0.43584509  0.18353893  0.43244937  1
  Zn  Zn131  1  0.44035917  0.18906083  0.93195884  1
  Zn  Zn132  1  0.44061909  0.69630114  0.43662529  1
  Zn  Zn133  1  0.43410365  0.69199247  0.93554583  1
  Zn  Zn134  1  0.92660134  0.16380552  0.45247237  1
  Zn  Zn135  1  0.93998207  0.19463898  0.92439805  1
  Zn  Zn136  1  0.97952138  0.65038937  0.43352252  1
  Zn  Zn137  1  0.90056662  0.66699832  0.97779966  1
  Zn  Zn138  1  0.06531466  0.32108359  0.06977802  1
  Zn  Zn139  1  0.05276797  0.27748762  0.55585518  1
  Zn  Zn140  1  0.06507238  0.81658018  0.05338632  1
  Zn  Zn141  1  0.02473241  0.79324624  0.51437775  1
  Zn  Zn142  1  0.55090342  0.32438692  0.05606194  1
  Zn  Zn143  1  0.56379457  0.31862159  0.56310010  1
  Zn  Zn144  1  0.55824620  0.81456634  0.06781818  1
  Zn  Zn145  1  0.57435914  0.79739018  0.55523962  1
  O  O146  1  0.11076291  0.12104969  0.11835448  1
  O  O147  1  0.10526474  0.14356440  0.63676248  1
  O  O148  1  0.14686823  0.61351310  0.10588544  1
  O  O149  1  0.10959140  0.62843602  0.65271999  1
  O  O150  1  0.63240753  0.11802418  0.11621672  1
  O  O151  1  0.63000232  0.10893345  0.61830494  1
  O  O152  1  0.59760348  0.62902930  0.10337808  1
  O  O153  1  0.63359366  0.61430126  0.61792753  1
  O  O154  1  0.39034944  0.37864405  0.36753795  1
  O  O155  1  0.37584119  0.37603039  0.87038431  1
  O  O156  1  0.38494012  0.86968378  0.38769684  1
  O  O157  1  0.38908089  0.88260357  0.88376715  1
  O  O158  1  0.86419003  0.38044013  0.39150987  1
  O  O159  1  0.87523573  0.38836399  0.87889371  1
  O  O160  1  0.87056927  0.89745964  0.37177390  1
  O  O161  1  0.87944327  0.89117164  0.87904914  1
  O  O162  1  0.25333671  0.01323624  0.36818878  1
  O  O163  1  0.25224826  -0.00155042  0.85964868  1
  O  O164  1  0.26558454  0.50212342  0.37265926  1
  O  O165  1  0.25720784  0.52036327  0.86011686  1
  O  O166  1  0.75652619  0.01204610  0.36547385  1
  O  O167  1  0.75735479  0.01510682  0.87922478  1
  O  O168  1  0.76923354  0.50991941  0.41419293  1
  O  O169  1  0.72630134  0.50101636  0.86398475  1
  O  O170  1  0.26165406  0.48014546  0.14943990  1
  O  O171  1  0.30431945  0.47138096  0.62929473  1
  O  O172  1  0.23836070  1.00322768  0.11995659  1
  O  O173  1  0.26136627  0.98902670  0.62994701  1
  O  O174  1  0.75843470  0.50773512  0.13960188  1
  O  O175  1  0.73764693  0.49470239  0.62650304  1
  O  O176  1  0.74246462  0.99805244  0.13232318  1
  O  O177  1  0.73916416  0.98070982  0.62895531  1
  O  O178  1  0.02195483  0.37768843  0.24674041  1
  O  O179  1  0.09049732  0.40943904  0.67168883  1
  O  O180  1  0.00990732  0.93227321  0.27502926  1
  O  O181  1  0.01389621  0.88528240  0.75243148  1
  O  O182  1  0.50572875  0.36366455  0.25486858  1
  O  O183  1  0.49989385  0.35703164  0.77167194  1
  O  O184  1  0.50124359  0.87602685  0.25791547  1
  O  O185  1  0.50905680  0.87119199  0.75991222  1
  O  O186  1  0.49064688  0.13491433  0.25357128  1
  O  O187  1  0.50614759  0.14772057  0.76807069  1
  O  O188  1  0.50107556  0.63888049  0.23514873  1
  O  O189  1  0.49488424  0.64348267  0.75821659  1
  O  O190  1  0.98722832  0.12114541  0.24043738  1
  O  O191  1  0.99011422  0.11367576  0.74041341  1
  O  O192  1  0.99377123  0.61156146  0.26515005  1
  O  O193  1  0.97505210  0.63873245  0.75655064  1
  O  O194  1  0.36329375  0.23761603  0.01458797  1
  O  O195  1  0.36681426  0.23461725  0.50671155  1
  O  O196  1  0.36812835  0.76250323  0.00558611  1
  O  O197  1  0.37227174  0.75581955  0.50979919  1
  O  O198  1  0.86610230  0.26268828  -0.00961993  1
  O  O199  1  0.85234354  0.23811719  0.50937314  1
  O  O200  1  0.87463332  0.77937289  -0.00891245  1
  O  O201  1  0.85380090  0.73070336  0.51416911  1
  O  O202  1  0.15004489  0.24788533  0.51165412  1
  O  O203  1  0.13167602  0.24231904  1.00361044  1
  O  O204  1  0.13829130  0.75728487  0.50792496  1
  O  O205  1  0.14430294  0.76603617  0.99200973  1
  O  O206  1  0.63188514  0.23608044  0.50323992  1
  O  O207  1  0.63314140  0.24923653  0.99650015  1
  O  O208  1  0.63316974  0.74319514  0.47757903  1
  O  O209  1  0.61792847  0.75251825  0.99133616  1
  O  O210  1  0.48455788  0.25610753  0.12887732  1
  O  O211  1  0.53205629  0.24568979  0.64682025  1
  O  O212  1  0.48839871  0.74792565  0.12966056  1
  O  O213  1  0.49836872  0.76002387  0.63491412  1
  O  O214  1  1.00116792  0.23714140  0.12284293  1
  O  O215  1  0.97352236  0.23444602  0.62728298  1
  O  O216  1  0.99650051  0.76832093  0.12654907  1
  O  O217  1  0.97569786  0.73937787  0.61733912  1
  O  O218  1  -0.01101558  0.25058690  0.39013283  1
  O  O219  1  0.00026270  0.25163943  0.85326675  1
  O  O220  1  -0.01880878  0.75881074  0.41388276  1
  O  O221  1  -0.00540067  0.76935842  0.87218489  1
  O  O222  1  0.49910376  0.25935751  0.36664377  1
  O  O223  1  0.51436878  0.26659303  0.88687564  1
  O  O224  1  0.49200385  0.75641723  0.35133422  1
  O  O225  1  0.50716397  0.76364668  0.87031563  1
  O  O226  1  0.25047710  0.12310288  0.48596516  1
  O  O227  1  0.23337745  0.13528248  1.00705285  1
  O  O228  1  0.23550248  0.63856509  0.52657623  1
  O  O229  1  0.25487737  0.64727761  0.97110321  1
  O  O230  1  0.73734983  0.13071028  0.49424844  1
  O  O231  1  0.74455893  0.13781746  0.99463064  1
  O  O232  1  0.75277823  0.57611837  0.46858245  1
  O  O233  1  0.73493393  0.62233045  1.00852677  1
  O  O234  1  0.24390930  0.35515392  0.02252909  1
  O  O235  1  0.26453519  0.35516239  0.48261161  1
  O  O236  1  0.26328483  0.87279628  -0.01263508  1
  O  O237  1  0.26170150  0.86783733  0.50826013  1
  O  O238  1  0.75984963  0.36511949  0.00491767  1
  O  O239  1  0.73814074  0.35692593  0.50606969  1
  O  O240  1  0.75828416  0.89086379  0.01172492  1
  O  O241  1  0.75020413  0.87597328  0.51036665  1
  O  O242  1  0.14753820  0.48668895  0.26318714  1
  O  O243  1  0.15425565  0.44327491  0.66467554  1
  O  O244  1  0.13367102  1.01106452  0.22924288  1
  O  O245  1  0.14170818  0.99276830  0.74892326  1
  O  O246  1  0.61591474  0.48062824  0.24250523  1
  O  O247  1  0.62778544  0.51153345  0.73461159  1
  O  O248  1  0.62803247  0.99940778  0.24216621  1
  O  O249  1  0.61796011  0.99199554  0.73836037  1
  O  O250  1  0.37017231  0.01388074  0.23423144  1
  O  O251  1  0.36511396  0.00139358  0.75250307  1
  O  O252  1  0.36659348  0.49802628  0.26676221  1
  O  O253  1  0.39800069  0.51968715  0.74510399  1
  O  O254  1  0.86213656  0.01198093  0.25193538  1
  O  O255  1  0.87635798  -0.00656597  0.75673774  1
  O  O256  1  0.88442768  0.48521204  0.27768964  1
  O  O257  1  0.85318888  0.51150254  0.77036448  1
  O  O258  1  0.13179067  0.36900293  0.36701501  1
  O  O259  1  0.15021948  0.39126468  0.87150211  1
  O  O260  1  0.17200003  0.87039349  0.33312608  1
  O  O261  1  0.11419573  0.88655234  0.86258612  1
  O  O262  1  0.61190040  0.37427061  0.36262121  1
  O  O263  1  0.63057381  0.36866053  0.88378074  1
  O  O264  1  0.60956005  0.87947698  0.36226719  1
  O  O265  1  0.61873292  0.87057592  0.87251751  1
  O  O266  1  0.36874458  0.13920993  0.13856734  1
  O  O267  1  0.38402207  0.13915578  0.62867838  1
  O  O268  1  0.38235683  0.64579849  0.12077767  1
  O  O269  1  0.37646017  0.64248973  0.63635656  1
  O  O270  1  0.88421031  0.12203357  0.13519795  1
  O  O271  1  0.85806356  0.13605737  0.63318177  1
  O  O272  1  0.87286908  0.67013253  0.09546886  1
  O  O273  1  0.86605096  0.63655013  0.64252972  1
  O  O274  1  0.25825623  0.25259114  0.12481878  1
  O  O275  1  0.26750750  0.25896736  0.61552748  1
  O  O276  1  0.25959942  0.74768055  0.11447238  1
  O  O277  1  0.26246128  0.76706316  0.62104254  1
  O  O278  1  0.75404009  0.24532383  0.11092343  1
  O  O279  1  0.74521472  0.25380422  0.62123787  1
  O  O280  1  0.75548487  0.77265326  0.14288151  1
  O  O281  1  0.75216946  0.76479621  0.63115042  1
  O  O282  1  0.25594908  0.23095547  0.38380279  1
  O  O283  1  0.25700195  0.25332966  0.89646131  1
  O  O284  1  0.25873290  0.74236571  0.40064820  1
  O  O285  1  0.25424010  0.75843950  0.87453439  1
  O  O286  1  0.74624372  0.24052377  0.38741805  1
  O  O287  1  0.74052978  0.24446528  0.88566949  1
  O  O288  1  0.76538875  0.75383794  0.36549018  1
  O  O289  1  0.73067842  0.75570043  0.87953878  1
  O  O290  1  0.00480835  0.12551712  0.00742361  1
  O  O291  1  -0.00344398  0.11426376  0.52296544  1
  O  O292  1  0.00741836  0.63257211  -0.02703940  1
  O  O293  1  0.02630839  0.61750819  0.53242089  1
  O  O294  1  0.51266504  0.11835861  -0.00444924  1
  O  O295  1  0.51472942  0.12876711  0.49525526  1
  O  O296  1  0.48227681  0.61149304  0.00342832  1
  O  O297  1  0.50820681  0.61770488  0.48951308  1
  O  O298  1  0.50649895  0.37844903  0.48161013  1
  O  O299  1  0.48519126  0.38621424  0.98795308  1
  O  O300  1  0.49473057  0.86711319  0.48625280  1
  O  O301  1  0.49406084  0.88683420  0.99542366  1
  O  O302  1  1.00542617  0.30654765  0.43819879  1
  O  O303  1  0.99474078  0.36559175  0.99039523  1
  O  O304  1  0.99130601  0.90227969  0.51891818  1
  O  O305  1  0.99447073  0.89019020  0.98816651  1
  O  O306  1  0.49318608  0.49425560  0.37884234  1
  O  O307  1  0.49400072  0.48783632  0.87449157  1
  O  O308  1  0.49514654  0.98778659  0.37276810  1
  O  O309  1  0.50730313  0.99351670  0.88715952  1
  O  O310  1  0.99546839  0.47754819  0.39604478  1
  O  O311  1  0.98874060  0.50197305  0.86164575  1
  O  O312  1  0.98130183  1.01814992  0.40311650  1
  O  O313  1  0.98948919  1.00371585  0.88272304  1
  O  O314  1  0.00651728  0.00989958  0.11019184  1
  O  O315  1  -0.00042614  0.01290477  0.62085140  1
  O  O316  1  -0.03685258  0.52984154  0.12123071  1
  O  O317  1  -0.01762825  0.52711486  0.65106115  1
  O  O318  1  0.51183971  -0.00298989  0.11390103  1
  O  O319  1  0.51299617  -0.01051153  0.62297066  1
  O  O320  1  0.47703113  0.51366542  0.12402875  1
  O  O321  1  0.50857625  0.50013409  0.60859369  1
  O  O322  1  0.24307421  0.36543144  0.24741741  1
  O  O323  1  0.20194457  0.33780493  0.77069849  1
  O  O324  1  0.23349820  0.87267201  0.28129234  1
  O  O325  1  0.24749605  0.88566404  0.73909851  1
  O  O326  1  0.72921652  0.36588845  0.25724425  1
  O  O327  1  0.74741575  0.39339253  0.74512770  1
  O  O328  1  0.73574930  0.89023927  0.24210465  1
  O  O329  1  0.73572273  0.87564387  0.75224129  1
  O  O330  1  0.26130871  0.12709224  0.26203062  1
  O  O331  1  0.24976303  0.11221786  0.74020454  1
  O  O332  1  0.24480423  0.61298310  0.24627061  1
  O  O333  1  0.27287301  0.63479879  0.74984161  1
  O  O334  1  0.75412455  0.12100637  0.25602670  1
  O  O335  1  0.73808288  0.13037463  0.76917768  1
  O  O336  1  0.81036469  0.62683120  0.24145986  1
  O  O337  1  0.75297632  0.61503354  0.75066210  1
  O  O338  1  0.37611424  0.11979841  0.35957624  1
  O  O339  1  0.37383949  0.13049142  0.86561034  1
  O  O340  1  0.38008826  0.61821556  0.37189160  1
  O  O341  1  0.37135080  0.63610355  0.85715693  1
  O  O342  1  0.86464251  0.11827868  0.36381437  1
  O  O343  1  0.86049200  0.12137296  0.87887571  1
  O  O344  1  0.88942284  0.59516114  0.38867703  1
  O  O345  1  0.86624624  0.61568107  0.87481922  1
  O  O346  1  0.14036860  0.36890283  0.14087815  1
  O  O347  1  0.04759132  0.38817621  0.58594799  1
  O  O348  1  0.12118136  0.89569169  0.11569684  1
  O  O349  1  0.14170521  0.88099174  0.63320743  1
  O  O350  1  0.62435077  0.36953602  0.13164801  1
  O  O351  1  0.63551330  0.38823031  0.62248529  1
  O  O352  1  0.62996404  0.88875813  0.12785898  1
  O  O353  1  0.63265760  0.87903910  0.62912967  1
  O  O354  1  0.12434111  0.25344357  0.25350783  1
  O  O355  1  0.15514012  0.28249373  0.74670146  1
  O  O356  1  0.11680330  0.74862643  0.25658577  1
  O  O357  1  0.13442811  0.77523307  0.74806447  1
  O  O358  1  0.61328146  0.25346487  0.25051641  1
  O  O359  1  0.62215330  0.25133499  0.77315470  1
  O  O360  1  0.60684259  0.76988021  0.23695343  1
  O  O361  1  0.61835757  0.75814331  0.76041521  1
  O  O362  1  0.38224737  0.23906407  0.24451768  1
  O  O363  1  0.38949239  0.24830201  0.73493966  1
  O  O364  1  0.38329797  0.76189308  0.23356811  1
  O  O365  1  0.38903966  0.75963398  0.74042784  1
  O  O366  1  0.86893084  0.23434404  0.25530832  1
  O  O367  1  0.85687728  0.24981260  0.74498133  1
  O  O368  1  0.88798952  0.76236805  0.24140358  1
  O  O369  1  0.85502051  0.73748010  0.75992172  1
  O  O370  1  0.39131373  0.50816275  0.48648932  1
  O  O371  1  0.31704038  0.49660517  1.00212143  1
  O  O372  1  0.37649419  0.98239799  0.50501437  1
  O  O373  1  0.38410645  1.00003251  1.00177572  1
  O  O374  1  0.88903928  0.48751337  0.51664029  1
  O  O375  1  0.87293932  0.48798360  0.98469304  1
  O  O376  1  0.85770794  1.00560937  0.49108475  1
  O  O377  1  0.88288498  0.99917565  0.99759637  1
  O  O378  1  0.11821160  0.01523538  0.00370606  1
  O  O379  1  0.11874528  -0.00825748  0.49286772  1
  O  O380  1  0.13766819  0.49923846  0.00921101  1
  O  O381  1  0.15008789  0.50430974  0.51535346  1
  O  O382  1  0.62116739  0.00985574  0.00739471  1
  O  O383  1  0.62405064  0.01065468  0.51268652  1
  O  O384  1  0.62835080  0.50711130  0.00266099  1
  O  O385  1  0.61228616  0.49824482  0.50636267  1
  O  O386  1  0.36173468  0.35596027  0.13745014  1
  O  O387  1  0.41851203  0.33867518  0.61289520  1
  O  O388  1  0.37815706  0.86842196  0.11239649  1
  O  O389  1  0.37519780  0.86828610  0.61341455  1
  O  O390  1  0.88726953  0.37982630  0.10467220  1
  O  O391  1  0.85467754  0.35565720  0.62546010  1
  O  O392  1  0.87211973  0.87524424  0.11912416  1
  O  O393  1  0.86188160  0.85951192  0.62972603  1
  O  O394  1  0.13023613  0.11321413  0.36598956  1
  O  O395  1  0.11847514  0.12396093  0.88961100  1
  O  O396  1  0.11458126  0.61167239  0.40558210  1
  O  O397  1  0.14628407  0.63180321  0.84454269  1
  O  O398  1  0.63112629  0.12360211  0.38528839  1
  O  O399  1  0.63744557  0.12601625  0.89066146  1
  O  O400  1  0.65925124  0.61332685  0.31726295  1
  O  O401  1  0.61508932  0.63746920  0.89100701  1
