# generated using pymatgen
data_V73Zn73O256
_symmetry_space_group_name_H-M   'P 1'
_cell_length_a   16.85445745
_cell_length_b   16.86797837
_cell_length_c   16.84658528
_cell_angle_alpha   89.74467200
_cell_angle_beta   90.03994898
_cell_angle_gamma   90.04120338
_symmetry_Int_Tables_number   1
_chemical_formula_structural   V73Zn73O256
_chemical_formula_sum   'V73 Zn73 O256'
_cell_volume   4789.44475284
_cell_formula_units_Z   1
loop_
 _symmetry_equiv_pos_site_id
 _symmetry_equiv_pos_as_xyz
  1  'x, y, z'
loop_
 _atom_site_type_symbol
 _atom_site_label
 _atom_site_symmetry_multiplicity
 _atom_site_fract_x
 _atom_site_fract_y
 _atom_site_fract_z
 _atom_site_occupancy
  V  V0  1  0.87248394  0.76479850  0.12418506  1
  V  V1  1  0.87802845  0.12514769  0.24528471  1
  V  V2  1  0.63070240  0.24667169  0.86571791  1
  V  V3  1  0.00589992  0.37066962  0.37570960  1
  V  V4  1  0.37048086  0.25286541  0.11200844  1
  V  V5  1  0.87069548  0.87974962  0.00300682  1
  V  V6  1  0.38137232  0.36368902  0.52285071  1
  V  V7  1  0.25098092  0.37594954  0.11382234  1
  V  V8  1  0.87700099  0.64125056  0.24529905  1
  V  V9  1  0.75360249  0.63330993  0.88032804  1
  V  V10  1  0.01600624  0.01691760  -0.00331381  1
  V  V11  1  0.24011778  0.63522339  0.87715573  1
  V  V12  1  0.37141644  0.75205708  0.10874762  1
  V  V13  1  0.25153811  0.76541546  0.50091832  1
  V  V14  1  0.87228365  -0.00333387  0.37519737  1
  V  V15  1  0.36986061  0.11709920  0.26190656  1
  V  V16  1  0.62345649  0.74800671  0.39484343  1
  V  V17  1  0.00191825  0.24900880  0.25021356  1
  V  V18  1  0.24812632  0.49491090  0.25639927  1
  V  V19  1  0.86892045  0.12784260  0.76397752  1
  V  V20  1  0.37888988  0.13991033  0.74618433  1
  V  V21  1  0.62951984  0.12278902  -0.00312181  1
  V  V22  1  0.74651135  0.13492890  0.37827791  1
  V  V23  1  0.49241224  -0.01089401  -0.00151978  1
  V  V24  1  0.52014518  0.62190985  0.12362357  1
  V  V25  1  0.00277708  0.49919430  0.50006221  1
  V  V26  1  0.62801217  0.50821429  0.61294709  1
  V  V27  1  0.49775903  0.12969117  0.62240642  1
  V  V28  1  0.13900595  0.87016396  0.74545543  1
  V  V29  1  0.12431391  0.25067632  0.89899841  1
  V  V30  1  0.44923915  0.80036837  0.30906229  1
  V  V31  1  0.37842849  0.50660708  0.88826472  1
  V  V32  1  0.22849411  0.12643352  0.38007976  1
  V  V33  1  0.86679339  0.36790963  0.50829401  1
  V  V34  1  0.74809246  0.62968588  0.39010448  1
  V  V35  1  0.00579862  0.00408913  0.52013398  1
  V  V36  1  0.00410143  0.75530422  0.75773451  1
  V  V37  1  0.38864887  0.48468592  0.38195013  1
  V  V38  1  0.62894711  -0.00675567  0.12933156  1
  V  V39  1  0.49521715  0.36757567  0.87721247  1
  V  V40  1  0.26974983  0.49880941  0.74444796  1
  V  V41  1  0.85847567  0.24163117  0.62454554  1
  V  V42  1  0.01920405  0.86916178  0.37420735  1
  V  V43  1  0.37111376  0.76699694  0.62620400  1
  V  V44  1  0.74368861  0.26034427  0.00860886  1
  V  V45  1  0.50743848  0.26243644  0.25925855  1
  V  V46  1  0.62784541  0.85655651  0.24874519  1
  V  V47  1  0.23278516  0.87302959  0.12142714  1
  V  V48  1  0.00147522  0.62901025  0.63139626  1
  V  V49  1  0.86065196  0.86530933  0.49719202  1
  V  V50  1  0.62908161  0.37612492  0.74161274  1
  V  V51  1  0.76074141  0.50648848  0.75268291  1
  V  V52  1  0.87408644  0.25907433  0.12643168  1
  V  V53  1  0.86485719  0.74504227  0.62026452  1
  V  V54  1  0.12820622  0.49064970  0.63071498  1
  V  V55  1  0.48681615  -0.01025522  0.48763458  1
  V  V56  1  0.62684614  0.13081572  0.49728751  1
  V  V57  1  0.23607752  0.25194746  0.50850212  1
  V  V58  1  0.25437439  -0.00365778  0.73732296  1
  V  V59  1  0.00966133  0.25468215  0.74001179  1
  V  V60  1  0.88537049  0.38129273  -0.01661651  1
  V  V61  1  0.38107199  0.62221158  0.25172599  1
  V  V62  1  0.52073881  0.50203939  0.00098747  1
  V  V63  1  0.24000689  0.62991595  0.37747661  1
  V  V64  1  0.24912989  0.13116522  0.88660556  1
  V  V65  1  0.50667896  0.75715576  0.75136223  1
  V  V66  1  0.87383229  0.50281908  0.36687664  1
  V  V67  1  0.86416300  0.00518807  0.87796400  1
  V  V68  1  0.49620236  0.12620871  0.12690662  1
  V  V69  1  0.12403244  0.02096913  0.13886023  1
  V  V70  1  0.37395949  -0.01249892  0.87865701  1
  V  V71  1  0.48715691  0.61543229  0.62012701  1
  V  V72  1  0.13000174  0.36866329  0.25740322  1
  Zn  Zn73  1  0.69990042  0.43576656  0.16493709  1
  Zn  Zn74  1  0.01288186  0.88261667  0.87981344  1
  Zn  Zn75  1  0.12541926  0.63249120  0.49818713  1
  Zn  Zn76  1  0.12526131  0.37426277  0.75808829  1
  Zn  Zn77  1  0.62386290  0.74386857  -0.12361766  1
  Zn  Zn78  1  0.02299476  0.74930305  0.25267156  1
  Zn  Zn79  1  0.75539562  -0.00436701  0.24594761  1
  Zn  Zn80  1  0.06927302  0.55959381  0.06700096  1
  Zn  Zn81  1  0.71163168  0.92277025  0.69766989  1
  Zn  Zn82  1  0.19232444  0.19192480  0.19203193  1
  Zn  Zn83  1  0.18058701  0.17026536  0.68468519  1
  Zn  Zn84  1  0.18336319  0.68674553  0.17831706  1
  Zn  Zn85  1  0.19078828  0.68155797  0.68874906  1
  Zn  Zn86  1  0.68692038  0.18514792  0.19003400  1
  Zn  Zn87  1  0.70867612  0.11912100  0.66623617  1
  Zn  Zn88  1  0.70348325  0.67791400  0.18771798  1
  Zn  Zn89  1  0.68036145  0.68389052  0.69179288  1
  Zn  Zn90  1  0.31978732  0.29873563  0.31516916  1
  Zn  Zn91  1  0.30679250  0.31736965  0.81185997  1
  Zn  Zn92  1  0.20212475  0.82404403  0.30393928  1
  Zn  Zn93  1  0.32386558  0.80753807  0.80855359  1
  Zn  Zn94  1  0.81499523  0.31428500  0.31750162  1
  Zn  Zn95  1  0.80904194  0.31194754  0.81102279  1
  Zn  Zn96  1  0.80444502  0.81436234  0.31819027  1
  Zn  Zn97  1  0.82033517  0.81041967  0.81087685  1
  Zn  Zn98  1  0.19470638  0.43364709  0.44235306  1
  Zn  Zn99  1  0.18698711  0.44216906  0.92875481  1
  Zn  Zn100  1  0.18955775  0.95171143  0.44910744  1
  Zn  Zn101  1  0.19221037  0.92774557  0.93755314  1
  Zn  Zn102  1  0.69596342  0.44170092  0.43969763  1
  Zn  Zn103  1  0.69126326  0.43527831  0.92901324  1
  Zn  Zn104  1  0.67708738  0.95178992  0.54253090  1
  Zn  Zn105  1  0.67239452  0.91423602  0.94263163  1
  Zn  Zn106  1  0.30707276  0.05766593  0.06912741  1
  Zn  Zn107  1  0.31357262  0.07002069  0.55557895  1
  Zn  Zn108  1  0.27455707  0.58073933  0.08067471  1
  Zn  Zn109  1  0.31376829  0.55505856  0.55618051  1
  Zn  Zn110  1  0.81397355  0.06583258  0.05986742  1
  Zn  Zn111  1  0.83071356  0.05699198  0.56488988  1
  Zn  Zn112  1  0.77861155  0.55412139  0.04401906  1
  Zn  Zn113  1  0.81328185  0.55689047  0.56865241  1
  Zn  Zn114  1  0.43603761  0.43955479  0.18408398  1
  Zn  Zn115  1  0.44858001  0.43053185  0.68846598  1
  Zn  Zn116  1  0.43427975  0.93662370  0.18824105  1
  Zn  Zn117  1  0.44439580  0.94392335  0.68069446  1
  Zn  Zn118  1  0.89353995  0.47922146  0.13686035  1
  Zn  Zn119  1  0.93998749  0.43022431  0.68894778  1
  Zn  Zn120  1  0.95125766  0.94060220  0.18797915  1
  Zn  Zn121  1  0.91346302  0.92784799  0.69510644  1
  Zn  Zn122  1  0.05787917  0.05886096  0.32142539  1
  Zn  Zn123  1  0.06362259  0.07022376  0.80240363  1
  Zn  Zn124  1  0.04044382  0.54327945  0.24013986  1
  Zn  Zn125  1  0.06452363  0.56661505  0.81544713  1
  Zn  Zn126  1  0.55936856  0.06044303  0.31593165  1
  Zn  Zn127  1  0.55836520  0.06086620  0.81244367  1
  Zn  Zn128  1  0.56534741  0.55947025  0.31745298  1
  Zn  Zn129  1  0.56480690  0.56759488  0.80422719  1
  Zn  Zn130  1  0.43550545  0.19529748  0.44051825  1
  Zn  Zn131  1  0.43797178  0.18112035  0.93573269  1
  Zn  Zn132  1  0.43299351  0.67932045  0.44676855  1
  Zn  Zn133  1  0.43990512  0.68147041  0.93445718  1
  Zn  Zn134  1  0.94057928  0.18350283  0.43872097  1
  Zn  Zn135  1  0.94117291  0.19410926  0.93928064  1
  Zn  Zn136  1  0.94422820  0.68719664  0.43655047  1
  Zn  Zn137  1  0.92666470  0.68392341  0.93828429  1
  Zn  Zn138  1  0.06201379  0.31907433  0.07256723  1
  Zn  Zn139  1  0.05993519  0.30758270  0.56128969  1
  Zn  Zn140  1  0.04655492  0.81537190  0.06479957  1
  Zn  Zn141  1  0.06734783  0.82200360  0.56028941  1
  Zn  Zn142  1  0.55571578  0.31603850  0.06521600  1
  Zn  Zn143  1  0.56304164  0.30593043  0.56018445  1
  Zn  Zn144  1  0.56281217  0.80459223  0.05646143  1
  Zn  Zn145  1  0.56006832  0.81767734  0.57600280  1
  O  O146  1  0.13078681  0.12047237  0.12850655  1
  O  O147  1  0.10035256  0.09162761  0.69097480  1
  O  O148  1  0.16371102  0.59810168  0.11651163  1
  O  O149  1  0.11450366  0.61275165  0.62211809  1
  O  O150  1  0.61563246  0.11356772  0.11819077  1
  O  O151  1  0.61352520  0.12854959  0.60920891  1
  O  O152  1  0.61939238  0.62000202  0.13286454  1
  O  O153  1  0.62490639  0.61092728  0.61743231  1
  O  O154  1  0.37768274  0.38495359  0.36888954  1
  O  O155  1  0.39092285  0.38224093  0.86713316  1
  O  O156  1  0.38861850  0.84889342  0.36443543  1
  O  O157  1  0.37152562  0.88893947  0.87693829  1
  O  O158  1  0.88173916  0.38698989  0.38110895  1
  O  O159  1  0.87599095  0.36948347  0.88380219  1
  O  O160  1  0.87857438  0.87704928  0.38380418  1
  O  O161  1  0.88483654  0.88955141  0.88754267  1
  O  O162  1  0.24677499  0.02526746  0.38492539  1
  O  O163  1  0.26353322  0.00913331  0.87395429  1
  O  O164  1  0.26031746  0.50613570  0.37090604  1
  O  O165  1  0.26528675  0.50052314  0.86369894  1
  O  O166  1  0.76817548  0.00689958  0.37105401  1
  O  O167  1  0.76703002  -0.00042398  0.88402678  1
  O  O168  1  0.76654085  0.51087608  0.38045696  1
  O  O169  1  0.74622164  0.50942562  0.86078194  1
  O  O170  1  0.27001803  0.47886541  0.14539749  1
  O  O171  1  0.23729709  0.50616809  0.63391209  1
  O  O172  1  0.22877440  0.99263364  0.12080656  1
  O  O173  1  0.25916872  1.00435869  0.63893297  1
  O  O174  1  0.77989106  0.50930494  0.14414123  1
  O  O175  1  0.73705466  0.49932820  0.63456914  1
  O  O176  1  0.73208732  1.00424331  0.12283717  1
  O  O177  1  0.74244116  1.01541714  0.62422772  1
  O  O178  1  0.01283469  0.36812488  0.26098811  1
  O  O179  1  0.00026031  0.35992791  0.75562291  1
  O  O180  1  -0.00222425  0.87609969  0.27182849  1
  O  O181  1  0.00749662  0.86400500  0.75204278  1
  O  O182  1  0.49753987  0.36180453  0.23952146  1
  O  O183  1  0.51677306  0.38045059  0.76758958  1
  O  O184  1  0.50855166  0.86995626  0.25212185  1
  O  O185  1  0.49266115  0.85791008  0.74040133  1
  O  O186  1  0.49273782  0.12768316  0.23833680  1
  O  O187  1  0.48843679  0.11808998  0.74132391  1
  O  O188  1  0.49406130  0.60554127  0.23168554  1
  O  O189  1  0.50943226  0.63745417  0.72910213  1
  O  O190  1  0.98729057  0.13807628  0.26429620  1
  O  O191  1  0.98119903  0.15152542  0.76387312  1
  O  O192  1  0.98222922  0.63538911  0.27167603  1
  O  O193  1  1.00498654  0.63327729  0.73753789  1
  O  O194  1  0.37820977  0.24585147  0.01244096  1
  O  O195  1  0.36528666  0.25875310  0.50541664  1
  O  O196  1  0.37978354  0.74162954  0.00976523  1
  O  O197  1  0.36298128  0.74360706  0.51304208  1
  O  O198  1  0.86236475  0.25302952  0.00545001  1
  O  O199  1  0.88371269  0.25762380  0.51241946  1
  O  O200  1  0.88451603  0.76794443  0.01193314  1
  O  O201  1  0.87514299  0.75497198  0.50370057  1
  O  O202  1  0.13516490  0.26061279  0.49275113  1
  O  O203  1  0.12382580  0.25140856  0.99837500  1
  O  O204  1  0.14557692  0.74794330  0.51279016  1
  O  O205  1  0.07643648  0.71803381  0.99975281  1
  O  O206  1  0.61682707  0.23230859  0.49055017  1
  O  O207  1  0.63179437  0.24317030  0.99521342  1
  O  O208  1  0.61806771  0.75192327  0.49200202  1
  O  O209  1  0.62837030  0.80978838  0.96662181  1
  O  O210  1  0.48829166  0.24206779  0.12547976  1
  O  O211  1  0.50095492  0.23100849  0.62622135  1
  O  O212  1  0.49786631  0.72629959  0.11515694  1
  O  O213  1  0.48585921  0.74079786  0.62615239  1
  O  O214  1  0.99027700  0.25434037  0.14194241  1
  O  O215  1  0.99361448  0.25156757  0.63652173  1
  O  O216  1  0.98177493  0.75994842  0.14252220  1
  O  O217  1  1.00418872  0.73522261  0.62206001  1
  O  O218  1  -0.01263366  0.26317758  0.36746026  1
  O  O219  1  0.02175288  0.24592992  0.87355573  1
  O  O220  1  0.00613277  0.76580179  0.38072967  1
  O  O221  1  -0.01124693  0.74664926  0.85720899  1
  O  O222  1  0.49520070  0.25059024  0.35897581  1
  O  O223  1  0.50872771  0.26263372  0.88482385  1
  O  O224  1  0.50997872  0.73429069  0.37106088  1
  O  O225  1  0.49689567  0.74034307  0.85489334  1
  O  O226  1  0.24887171  0.13754781  0.49037166  1
  O  O227  1  0.25785746  0.12289500  0.98520860  1
  O  O228  1  0.25049376  0.62144781  0.48593809  1
  O  O229  1  0.25562525  0.61044230  0.97499888  1
  O  O230  1  0.73994172  0.11870292  0.48861529  1
  O  O231  1  0.73545876  0.13318525  1.00224375  1
  O  O232  1  0.75318545  0.62044912  0.48961519  1
  O  O233  1  0.74164661  0.63531648  0.98290271  1
  O  O234  1  0.24333288  0.39057376  0.01629374  1
  O  O235  1  0.26140008  0.36068362  0.49884644  1
  O  O236  1  0.25835952  0.88277473  0.01977601  1
  O  O237  1  0.25160969  0.86409058  0.49491339  1
  O  O238  1  0.75875668  0.36277065  -0.00511980  1
  O  O239  1  0.76813527  0.36880033  0.48939043  1
  O  O240  1  0.77214589  0.88879171  -0.00101958  1
  O  O241  1  0.76264652  0.87774751  0.49564098  1
  O  O242  1  0.13887818  0.48595914  0.25611202  1
  O  O243  1  0.11977810  0.49654165  0.73824468  1
  O  O244  1  0.11426727  1.00399128  0.23765746  1
  O  O245  1  0.14820612  0.98735406  0.75882750  1
  O  O246  1  0.63130332  0.47177567  0.26776483  1
  O  O247  1  0.63211058  0.48880890  0.74039597  1
  O  O248  1  0.62027656  0.99690832  0.23581486  1
  O  O249  1  0.63646350  0.97797874  0.78239644  1
  O  O250  1  0.37574361  0.01883809  0.23797929  1
  O  O251  1  0.36991634  0.00010322  0.76274275  1
  O  O252  1  0.37029887  0.50321342  0.26147755  1
  O  O253  1  0.37107952  0.49516518  0.75139665  1
  O  O254  1  0.87949974  0.00839902  0.25408954  1
  O  O255  1  0.88982857  0.02196190  0.76766101  1
  O  O256  1  0.88439103  0.51068353  0.26695361  1
  O  O257  1  0.85927416  0.48998866  0.74041911  1
  O  O258  1  0.11481324  0.38064330  0.37222955  1
  O  O259  1  0.14078021  0.35288202  0.87400491  1
  O  O260  1  0.12326813  0.88176601  0.37608350  1
  O  O261  1  0.12685298  0.87317626  0.85946834  1
  O  O262  1  0.65960951  0.40725666  0.31529820  1
  O  O263  1  0.61784045  0.36416032  0.87076040  1
  O  O264  1  0.61948576  0.84830990  0.35935060  1
  O  O265  1  0.62466472  0.91529634  0.83457689  1
  O  O266  1  0.37703009  0.13402427  0.12840912  1
  O  O267  1  0.38178131  0.12449428  0.63837081  1
  O  O268  1  0.36766366  0.63378944  0.13844939  1
  O  O269  1  0.38502089  0.61166234  0.62549124  1
  O  O270  1  0.86901593  0.13351457  0.13862934  1
  O  O271  1  0.87617497  0.13614233  0.63890225  1
  O  O272  1  0.87857474  0.64129250  0.14280538  1
  O  O273  1  0.89177890  0.63238301  0.61379492  1
  O  O274  1  0.26113619  0.26097805  0.12726363  1
  O  O275  1  0.23779592  0.23359586  0.61046505  1
  O  O276  1  0.26425325  0.75768218  0.12174347  1
  O  O277  1  0.26237865  0.74220257  0.61759325  1
  O  O278  1  0.75602864  0.24301552  0.11394105  1
  O  O279  1  0.76069411  0.23993249  0.62367291  1
  O  O280  1  0.77153079  0.75092977  0.12950630  1
  O  O281  1  0.76742951  0.73525298  0.63033952  1
  O  O282  1  0.25548546  0.23687783  0.38659491  1
  O  O283  1  0.24657943  0.23801178  0.87280738  1
  O  O284  1  0.25247133  0.73890897  0.38813572  1
  O  O285  1  0.26456519  0.73280876  0.86729118  1
  O  O286  1  0.75859668  0.23374868  0.37661520  1
  O  O287  1  0.73557449  0.25159428  0.88738976  1
  O  O288  1  0.73770241  0.74012493  0.38142178  1
  O  O289  1  0.74918800  0.73856123  0.85655576  1
  O  O290  1  -0.00163102  0.11582154  0.00272907  1
  O  O291  1  -0.01199089  0.10419701  0.50217080  1
  O  O292  1  0.02278479  0.65840947  0.00550881  1
  O  O293  1  0.00562999  0.61407984  0.50560444  1
  O  O294  1  0.50922251  0.12102209  0.00913501  1
  O  O295  1  0.50137538  0.12360252  0.50729840  1
  O  O296  1  0.50447931  0.61154069  0.00840611  1
  O  O297  1  0.50206194  0.62522857  0.51911705  1
  O  O298  1  0.48174380  0.36523460  0.50522723  1
  O  O299  1  0.50451602  0.38877084  0.98623970  1
  O  O300  1  0.50365089  0.89103153  0.50685718  1
  O  O301  1  0.49344541  0.89190668  1.00674517  1
  O  O302  1  0.99185337  0.37985992  0.49407701  1
  O  O303  1  0.98325581  0.36549210  1.00497965  1
  O  O304  1  0.99578317  0.88091104  0.48889868  1
  O  O305  1  0.99195976  0.89173424  0.99696436  1
  O  O306  1  0.48755852  0.50291736  0.37903208  1
  O  O307  1  0.49700915  0.49710763  0.88260861  1
  O  O308  1  0.49501449  1.00058215  0.38485740  1
  O  O309  1  0.48684909  1.00586238  0.88807851  1
  O  O310  1  0.98937613  0.49155585  0.38622984  1
  O  O311  1  1.02932967  0.50281893  0.90801915  1
  O  O312  1  0.99062452  0.98889074  0.38501828  1
  O  O313  1  1.00030734  1.00712732  0.88411765  1
  O  O314  1  0.01691001  -0.00182625  0.11173833  1
  O  O315  1  -0.02252997  -0.01198104  0.61663874  1
  O  O316  1  0.00303691  0.50407761  0.13990241  1
  O  O317  1  0.00514109  0.50729103  0.62061780  1
  O  O318  1  0.50219304  0.00798837  0.11503062  1
  O  O319  1  0.50005691  0.01674925  0.61494075  1
  O  O320  1  0.49772162  0.50541805  0.10834023  1
  O  O321  1  0.51486147  0.50766945  0.63282015  1
  O  O322  1  0.24378430  0.37599099  0.25868944  1
  O  O323  1  0.24541747  0.39486445  0.75220269  1
  O  O324  1  0.26132100  0.87789507  0.22312389  1
  O  O325  1  0.24887374  0.88142006  0.75126412  1
  O  O326  1  0.72414209  0.37475866  0.27052031  1
  O  O327  1  0.73467474  0.38394218  0.75773400  1
  O  O328  1  0.73144298  0.87972333  0.25349244  1
  O  O329  1  0.80908532  0.89591229  0.74194277  1
  O  O330  1  0.26177146  0.13527170  0.26568856  1
  O  O331  1  0.26498879  0.11217847  0.75640897  1
  O  O332  1  0.26172929  0.61473145  0.26296720  1
  O  O333  1  0.24704412  0.60475308  0.75827798  1
  O  O334  1  0.75860164  0.12062768  0.26037464  1
  O  O335  1  0.76687326  0.13364480  0.76013603  1
  O  O336  1  0.77006662  0.62962400  0.26990081  1
  O  O337  1  0.75174223  0.61016731  0.74881182  1
  O  O338  1  0.38308236  0.12426666  0.36140345  1
  O  O339  1  0.36983759  0.12058797  0.86393282  1
  O  O340  1  0.37271828  0.61468384  0.36771569  1
  O  O341  1  0.37729839  0.60754128  0.86925509  1
  O  O342  1  0.86764564  0.11821116  0.36949043  1
  O  O343  1  0.87336735  0.12091066  0.87495256  1
  O  O344  1  0.86880010  0.61733504  0.37997989  1
  O  O345  1  0.85810335  0.62227370  0.87639937  1
  O  O346  1  0.14362243  0.36975129  0.13943930  1
  O  O347  1  0.11767868  0.38948779  0.62591693  1
  O  O348  1  0.13086398  0.86821178  0.12245867  1
  O  O349  1  0.12276893  0.87679608  0.64578709  1
  O  O350  1  0.64310351  0.36406340  0.10806126  1
  O  O351  1  0.61693270  0.37472885  0.63882774  1
  O  O352  1  0.61354401  0.88619835  0.13396008  1
  O  O353  1  0.64296631  0.87658507  0.62180340  1
  O  O354  1  0.11539947  0.25790053  0.24972306  1
  O  O355  1  0.11544463  0.25223952  0.74436413  1
  O  O356  1  0.13547025  0.74567457  0.25603444  1
  O  O357  1  0.11624326  0.75644492  0.74504517  1
  O  O358  1  0.60636603  0.24164264  0.24217265  1
  O  O359  1  0.63036664  0.25983355  0.76389348  1
  O  O360  1  0.62896874  0.75725346  0.23689226  1
  O  O361  1  0.61266604  0.75683097  0.74643032  1
  O  O362  1  0.38629951  0.23731882  0.23834942  1
  O  O363  1  0.37210264  0.23833843  0.75476171  1
  O  O364  1  0.39021380  0.73689170  0.24658583  1
  O  O365  1  0.38195040  0.74491742  0.73148906  1
  O  O366  1  0.87803699  0.24688315  0.24495450  1
  O  O367  1  0.87632998  0.24987283  0.73966283  1
  O  O368  1  0.87401797  0.74968303  0.24996583  1
  O  O369  1  0.89636609  0.75301391  0.72682925  1
  O  O370  1  0.36769860  0.47922599  0.48901310  1
  O  O371  1  0.38356660  0.49767329  0.98675132  1
  O  O372  1  0.38598682  1.00379855  0.50212313  1
  O  O373  1  0.38393821  1.00858330  0.99263777  1
  O  O374  1  0.88403954  0.48685293  0.50126913  1
  O  O375  1  0.86855724  0.48085697  1.00675772  1
  O  O376  1  0.88100636  0.98297181  0.49283089  1
  O  O377  1  0.88557809  1.00025582  0.99442608  1
  O  O378  1  0.11797763  0.00270530  -0.00156089  1
  O  O379  1  0.10700119  -0.00657838  0.51523271  1
  O  O380  1  0.09109189  0.50211401  -0.03657720  1
  O  O381  1  0.11721183  0.49697390  0.51116286  1
  O  O382  1  0.61275865  0.00287408  0.00675582  1
  O  O383  1  0.60587968  0.02183182  0.49047017  1
  O  O384  1  0.62046646  0.49938175  -0.00303683  1
  O  O385  1  0.62571289  0.48308171  0.51420437  1
  O  O386  1  0.36677275  0.36102733  0.12636066  1
  O  O387  1  0.37437465  0.37580680  0.62295725  1
  O  O388  1  0.39091505  0.85084566  0.12658977  1
  O  O389  1  0.37299261  0.86557468  0.62431524  1
  O  O390  1  0.86826650  0.36029733  0.12255946  1
  O  O391  1  0.87398767  0.36469784  0.61386457  1
  O  O392  1  0.87814284  0.87657225  0.11782203  1
  O  O393  1  0.88156078  0.85507325  0.60491065  1
  O  O394  1  0.12827522  0.13278754  0.37175932  1
  O  O395  1  0.14207864  0.13505025  0.87130562  1
  O  O396  1  0.14160299  0.61789460  0.37428477  1
  O  O397  1  0.13899365  0.63336118  0.86827271  1
  O  O398  1  0.64038495  0.12227435  0.37506006  1
  O  O399  1  0.61203249  0.13930604  0.88162204  1
  O  O400  1  0.63849616  0.63268700  0.36942503  1
  O  O401  1  0.63992641  0.62865298  0.86331127  1
