# generated using pymatgen
data_V73Zn73O256
_symmetry_space_group_name_H-M   'P 1'
_cell_length_a   16.85862749
_cell_length_b   16.83786950
_cell_length_c   17.00721363
_cell_angle_alpha   90.22912224
_cell_angle_beta   89.97878502
_cell_angle_gamma   89.56681882
_symmetry_Int_Tables_number   1
_chemical_formula_structural   V73Zn73O256
_chemical_formula_sum   'V73 Zn73 O256'
_cell_volume   4827.54800679
_cell_formula_units_Z   1
loop_
 _symmetry_equiv_pos_site_id
 _symmetry_equiv_pos_as_xyz
  1  'x, y, z'
loop_
 _atom_site_type_symbol
 _atom_site_label
 _atom_site_symmetry_multiplicity
 _atom_site_fract_x
 _atom_site_fract_y
 _atom_site_fract_z
 _atom_site_occupancy
  V  V0  1  0.00016412  0.50078311  0.00802206  1
  V  V1  1  0.50322703  0.89033715  0.37758579  1
  V  V2  1  0.12025403  0.87823561  0.73695897  1
  V  V3  1  0.26684682  0.12350454  0.39360389  1
  V  V4  1  0.37654620  0.11196149  0.75152856  1
  V  V5  1  0.12454014  0.23963505  0.36451761  1
  V  V6  1  0.76466084  0.37264826  0.62676459  1
  V  V7  1  0.87396153  0.50302661  0.87880217  1
  V  V8  1  0.62464786  0.00612446  0.13196072  1
  V  V9  1  0.00468071  0.49791344  0.49157555  1
  V  V10  1  -0.00098707  0.88535305  0.87327315  1
  V  V11  1  0.61472865  0.12374551  0.00076839  1
  V  V12  1  0.25597570  0.76546066  0.00866115  1
  V  V13  1  0.25170396  0.11035848  0.87264072  1
  V  V14  1  0.74751061  0.87165890  0.62434457  1
  V  V15  1  0.86749639  0.87508072  0.48747424  1
  V  V16  1  0.76083213  0.88043994  0.13444842  1
  V  V17  1  0.73968561  0.62877291  0.88160735  1
  V  V18  1  0.62539638  0.72752469  0.36910874  1
  V  V19  1  0.65248786  0.48176029  0.12240961  1
  V  V20  1  0.49832542  0.24390276  0.75404885  1
  V  V21  1  0.61769033  0.51313900  0.62501125  1
  V  V22  1  0.87872076  0.87927844  -0.00099444  1
  V  V23  1  0.37403173  0.86841734  0.48992660  1
  V  V24  1  0.88067389  0.63028342  0.73472042  1
  V  V25  1  0.62866232  0.23355863  0.38959658  1
  V  V26  1  0.62342816  0.24658212  0.87462846  1
  V  V27  1  0.87129778  0.37399309  0.00622849  1
  V  V28  1  0.48001200  0.88265744  0.86535735  1
  V  V29  1  0.12260338  0.62864383  0.01486845  1
  V  V30  1  0.50395303  0.11550444  0.61498807  1
  V  V31  1  0.62124443  0.37392507  0.74998506  1
  V  V32  1  0.25525055  0.85703196  0.61846839  1
  V  V33  1  0.74444679  0.50085808  0.75413802  1
  V  V34  1  0.11408910  0.52051371  0.63027305  1
  V  V35  1  0.75930572  0.11992229  0.87472700  1
  V  V36  1  0.51525386  0.38350956  0.38839731  1
  V  V37  1  0.48903458  0.51474835  0.50798570  1
  V  V38  1  0.75237022  0.73795543  0.48878478  1
  V  V39  1  0.38193323  0.63955948  0.73774325  1
  V  V40  1  0.00373920  0.75414195  0.23393244  1
  V  V41  1  0.13609322  0.88359094  0.22776270  1
  V  V42  1  0.75073130  -0.00254482  0.75200835  1
  V  V43  1  0.24042520  0.48839367  0.24882147  1
  V  V44  1  0.88347051  0.12333655  0.73634725  1
  V  V45  1  0.62814934  0.87186213  0.24772294  1
  V  V46  1  0.13836139  0.25058381  0.87130164  1
  V  V47  1  0.50184196  0.26157938  0.24875055  1
  V  V48  1  0.88410065  0.36936335  0.47790810  1
  V  V49  1  0.26200910  -0.00022748  0.24557723  1
  V  V50  1  0.11861891  0.74655814  0.86716482  1
  V  V51  1  0.62581847  0.00095026  0.61193415  1
  V  V52  1  0.00978320  0.01193304  0.50767000  1
  V  V53  1  0.48913022  0.38731913  0.88344946  1
  V  V54  1  0.36442404  0.63382828  0.24458829  1
  V  V55  1  0.38700473  0.13034896  0.24544948  1
  V  V56  1  0.48981056  -0.01145062  0.00216721  1
  V  V57  1  0.01022011  0.00957861  0.01255132  1
  V  V58  1  0.37534337  0.25635849  0.61587108  1
  V  V59  1  0.00450308  0.36832712  0.87126203  1
  V  V60  1  0.36767712  0.49900292  0.38024878  1
  V  V61  1  0.12575233  0.47367589  0.12693958  1
  V  V62  1  0.24786795  -0.00211327  0.73386474  1
  V  V63  1  0.25214935  0.49943826  0.75472616  1
  V  V64  1  0.88270061  0.62639410  0.24336824  1
  V  V65  1  0.21832096  0.63369661  0.38621962  1
  V  V66  1  0.02403713  0.87738187  0.37796201  1
  V  V67  1  0.85541520  0.00996906  0.36836902  1
  V  V68  1  0.84312028  0.12631062  0.24497218  1
  V  V69  1  0.74819790  0.25232181  0.00736935  1
  V  V70  1  0.62738192  0.77136925  0.85750297  1
  V  V71  1  0.23907615  0.37110617  0.62197811  1
  V  V72  1  0.74248252  0.75504439  0.00640698  1
  Zn  Zn73  1  0.75865565  0.23459507  0.49502399  1
  Zn  Zn74  1  0.48150481  0.75376704  0.24980342  1
  Zn  Zn75  1  0.37096290  0.37891109  0.02230773  1
  Zn  Zn76  1  0.86861930  0.24890841  0.13248058  1
  Zn  Zn77  1  0.72952702  0.50240845  0.29116206  1
  Zn  Zn78  1  0.25064256  0.62122002  0.87552255  1
  Zn  Zn79  1  0.50162438  0.54159450  0.03112998  1
  Zn  Zn80  1  0.24480813  0.26289171  0.03173645  1
  Zn  Zn81  1  -0.00355016  0.24780518  0.73991665  1
  Zn  Zn82  1  0.19139323  0.18450309  0.20240070  1
  Zn  Zn83  1  0.18529434  0.19533695  0.69232934  1
  Zn  Zn84  1  0.19147582  0.69219517  0.19408620  1
  Zn  Zn85  1  0.18665192  0.68568444  0.68760815  1
  Zn  Zn86  1  0.67226033  0.19840538  0.19033470  1
  Zn  Zn87  1  0.71371988  0.16605905  0.65643372  1
  Zn  Zn88  1  0.70423087  0.68207660  0.19083646  1
  Zn  Zn89  1  0.70116491  0.69115406  0.68526178  1
  Zn  Zn90  1  0.31247343  0.30971351  0.32167312  1
  Zn  Zn91  1  0.31554079  0.31558700  0.80379542  1
  Zn  Zn92  1  0.29815325  0.81100368  0.32531670  1
  Zn  Zn93  1  0.30428628  0.80766322  0.81605147  1
  Zn  Zn94  1  0.80374246  0.31290907  0.31176192  1
  Zn  Zn95  1  0.81467003  0.30769133  0.81330774  1
  Zn  Zn96  1  0.82050341  0.80378308  0.31369299  1
  Zn  Zn97  1  0.81796179  0.81209621  0.81312356  1
  Zn  Zn98  1  0.19199293  0.44557028  0.44839906  1
  Zn  Zn99  1  0.18934569  0.43380131  0.94076725  1
  Zn  Zn100  1  0.19767037  0.95100761  0.44396960  1
  Zn  Zn101  1  0.18722123  0.94072479  0.93612716  1
  Zn  Zn102  1  0.69351424  0.44491343  0.45372543  1
  Zn  Zn103  1  0.67899865  0.43947444  0.94401590  1
  Zn  Zn104  1  0.68310315  0.94222285  0.43486521  1
  Zn  Zn105  1  0.68838922  0.94208435  0.94318770  1
  Zn  Zn106  1  0.30589435  0.08468556  0.07427662  1
  Zn  Zn107  1  0.33038353  0.04670250  0.56536540  1
  Zn  Zn108  1  0.30899409  0.55763177  0.06118456  1
  Zn  Zn109  1  0.30013376  0.56747636  0.56631414  1
  Zn  Zn110  1  0.81406384  0.06214152  0.06072996  1
  Zn  Zn111  1  0.82321553  0.05960380  0.55969059  1
  Zn  Zn112  1  0.81677213  0.57666578  0.06539032  1
  Zn  Zn113  1  0.84873900  0.57077556  0.42715870  1
  Zn  Zn114  1  0.43868746  0.44150030  0.19242149  1
  Zn  Zn115  1  0.43550121  0.44177139  0.69254871  1
  Zn  Zn116  1  0.44298284  0.93932658  0.18943657  1
  Zn  Zn117  1  0.46452845  0.89515900  0.66251968  1
  Zn  Zn118  1  0.85639663  0.44757288  0.19051146  1
  Zn  Zn119  1  0.93921652  0.44771402  0.69283495  1
  Zn  Zn120  1  0.94268205  0.94733324  0.19392533  1
  Zn  Zn121  1  0.93460537  0.92842163  0.67867598  1
  Zn  Zn122  1  0.08088123  0.05117354  0.33415449  1
  Zn  Zn123  1  0.06599080  0.05899445  0.81429950  1
  Zn  Zn124  1  0.03402065  0.54625831  0.29805325  1
  Zn  Zn125  1  0.06045545  0.55968198  0.81039390  1
  Zn  Zn126  1  0.56710405  0.06735391  0.31486139  1
  Zn  Zn127  1  0.56464530  0.05124603  0.81067313  1
  Zn  Zn128  1  0.55818647  0.57937926  0.21400290  1
  Zn  Zn129  1  0.55476537  0.57181320  0.81599875  1
  Zn  Zn130  1  0.44133084  0.18790343  0.43453957  1
  Zn  Zn131  1  0.42605127  0.19351976  0.94312286  1
  Zn  Zn132  1  0.43443951  0.68745995  0.43080512  1
  Zn  Zn133  1  0.42203485  0.66560211  0.92844125  1
  Zn  Zn134  1  0.93775086  0.18968595  0.42943199  1
  Zn  Zn135  1  0.93885928  0.18736849  0.94255595  1
  Zn  Zn136  1  1.01409172  0.67773244  0.41885758  1
  Zn  Zn137  1  0.93642170  0.69171613  0.93873724  1
  Zn  Zn138  1  0.12899574  0.12915388  0.02059873  1
  Zn  Zn139  1  0.06369034  0.30769721  0.55643167  1
  Zn  Zn140  1  0.07125882  0.82052735  0.05768530  1
  Zn  Zn141  1  0.02559221  0.79341290  0.57140991  1
  Zn  Zn142  1  0.56255073  0.32158315  0.06452327  1
  Zn  Zn143  1  0.55899229  0.31341407  0.56473652  1
  Zn  Zn144  1  0.52201926  0.76476557  0.01854529  1
  Zn  Zn145  1  0.56889696  0.79673329  0.55018056  1
  O  O146  1  0.05814938  0.13912028  0.18477215  1
  O  O147  1  0.09672442  0.16437143  0.61960066  1
  O  O148  1  0.12252351  0.62939334  0.11314214  1
  O  O149  1  0.11647600  0.62009646  0.62439658  1
  O  O150  1  0.62925573  0.11304395  0.11711845  1
  O  O151  1  0.60957545  0.11611107  0.63382326  1
  O  O152  1  0.63658454  0.61266570  0.13601990  1
  O  O153  1  0.63101914  0.61096149  0.63727163  1
  O  O154  1  0.37156094  0.39396779  0.37733772  1
  O  O155  1  0.38947720  0.37484051  0.86807737  1
  O  O156  1  0.38680076  0.87178103  0.38256597  1
  O  O157  1  0.38075121  0.87488067  0.86929482  1
  O  O158  1  0.88476319  0.36769212  0.38014351  1
  O  O159  1  0.87733642  0.38547525  0.88175139  1
  O  O160  1  0.86779760  0.89194894  0.37619107  1
  O  O161  1  0.89158876  0.87324749  0.87947179  1
  O  O162  1  0.25293190  0.01385387  0.36604257  1
  O  O163  1  0.24643506  0.00554173  0.85481993  1
  O  O164  1  0.24476374  0.50551287  0.36498847  1
  O  O165  1  0.23244830  0.49738572  0.85648676  1
  O  O166  1  0.75615066  0.00852929  0.37505402  1
  O  O167  1  0.74309896  0.00999157  0.86655798  1
  O  O168  1  0.75589495  0.51430232  0.39603632  1
  O  O169  1  0.75073915  0.50701827  0.87379795  1
  O  O170  1  0.23468763  0.50344158  0.13925976  1
  O  O171  1  0.23176566  0.49203886  0.63373234  1
  O  O172  1  0.25612680  1.00700558  0.14651081  1
  O  O173  1  0.24916190  0.98719227  0.63033878  1
  O  O174  1  0.75791537  0.49493212  0.11833493  1
  O  O175  1  0.73112335  0.48452203  0.64168828  1
  O  O176  1  0.73791920  0.98819876  0.11719138  1
  O  O177  1  0.74050279  0.99451301  0.62948012  1
  O  O178  1  0.00137873  0.34072241  0.23389827  1
  O  O179  1  -0.01130205  0.37298788  0.76895635  1
  O  O180  1  0.02129034  0.88616433  0.25782672  1
  O  O181  1  0.01224756  0.89128308  0.76657859  1
  O  O182  1  0.49216129  0.36687259  0.27537160  1
  O  O183  1  0.50440778  0.36683009  0.76063199  1
  O  O184  1  0.50939988  0.86901482  0.25976696  1
  O  O185  1  0.50210972  0.89863514  0.77012265  1
  O  O186  1  0.49398400  0.13870628  0.26034955  1
  O  O187  1  0.49413692  0.12739111  0.75071399  1
  O  O188  1  0.47251479  0.63608970  0.25440012  1
  O  O189  1  0.48366453  0.62471038  0.74906176  1
  O  O190  1  1.01576252  0.10754756  0.23816931  1
  O  O191  1  0.98375955  0.11653967  0.76323381  1
  O  O192  1  1.01725285  0.65315459  0.23940173  1
  O  O193  1  0.98025284  0.62019999  0.75827341  1
  O  O194  1  0.36066081  0.25658426  0.00708042  1
  O  O195  1  0.38319580  0.24576060  0.51835274  1
  O  O196  1  0.35238645  0.74293098  -0.01271326  1
  O  O197  1  0.39546007  0.76869003  0.50474533  1
  O  O198  1  0.86609392  0.25446196  0.00579970  1
  O  O199  1  0.87340540  0.26160358  0.49423203  1
  O  O200  1  0.86479458  0.76801411  -0.00562154  1
  O  O201  1  0.86375475  0.77197886  0.48464812  1
  O  O202  1  0.14163558  0.28223252  0.47132412  1
  O  O203  1  0.13015158  0.23854711  0.97382376  1
  O  O204  1  0.07455393  0.74203601  0.49218702  1
  O  O205  1  0.12608753  0.73944688  0.99280801  1
  O  O206  1  0.62810775  0.25778339  0.49197552  1
  O  O207  1  0.62778500  0.24383518  0.99189591  1
  O  O208  1  0.63931403  0.74223274  0.48109760  1
  O  O209  1  0.64105811  0.76431763  0.98977663  1
  O  O210  1  0.51449386  0.26206272  0.15048021  1
  O  O211  1  0.49665901  0.23744708  0.63501554  1
  O  O212  1  0.46613860  0.78591353  0.12645068  1
  O  O213  1  0.50576333  0.79204164  0.63660823  1
  O  O214  1  1.00779969  0.28816826  0.18375069  1
  O  O215  1  1.03378697  0.21676144  0.62378941  1
  O  O216  1  1.00148928  0.77643544  0.13618644  1
  O  O217  1  0.96115464  0.81521243  0.65397071  1
  O  O218  1  0.02366689  0.23131114  0.36469376  1
  O  O219  1  0.00042834  0.26268522  0.87966609  1
  O  O220  1  -0.00111787  0.77856322  0.35342836  1
  O  O221  1  0.01158324  0.76452568  0.88323457  1
  O  O222  1  0.51172786  0.26515442  0.38208077  1
  O  O223  1  0.50591219  0.25047335  0.86852361  1
  O  O224  1  0.51770439  0.75447385  0.36990761  1
  O  O225  1  0.51954525  0.77579517  0.87934620  1
  O  O226  1  0.26946254  0.11025869  0.49289115  1
  O  O227  1  0.25837420  0.10534811  0.97133988  1
  O  O228  1  0.23479433  0.60765750  0.48313458  1
  O  O229  1  0.23023564  0.62115793  0.99429400  1
  O  O230  1  0.74451834  0.13795710  0.54835611  1
  O  O231  1  0.74033376  0.12988008  0.99192760  1
  O  O232  1  0.77412305  0.64316275  0.49866214  1
  O  O233  1  0.75653381  0.64722196  0.99499319  1
  O  O234  1  0.25461906  0.37315695  0.00528199  1
  O  O235  1  0.25962034  0.38721320  0.52579769  1
  O  O236  1  0.24384596  0.86620405  -0.00131741  1
  O  O237  1  0.26352029  0.87652000  0.50682319  1
  O  O238  1  0.75918286  0.36240189  -0.01329921  1
  O  O239  1  0.76758906  0.37634475  0.51754369  1
  O  O240  1  0.75880608  0.87273596  0.00827830  1
  O  O241  1  0.75260682  0.87329743  0.49791471  1
  O  O242  1  0.12648534  0.49625219  0.23615092  1
  O  O243  1  0.12901280  0.50210578  0.73643565  1
  O  O244  1  0.14332288  0.99218710  0.25482208  1
  O  O245  1  0.13319104  0.98664235  0.74991310  1
  O  O246  1  0.63591902  0.49576573  0.23145232  1
  O  O247  1  0.62582173  0.49380792  0.75026196  1
  O  O248  1  0.61972861  0.99693735  0.23666474  1
  O  O249  1  0.64320813  1.00382095  0.73942676  1
  O  O250  1  0.37451166  0.00939801  0.25003800  1
  O  O251  1  0.36525167  0.00930622  0.74271199  1
  O  O252  1  0.35823213  0.51064472  0.25935299  1
  O  O253  1  0.35710370  0.50739062  0.74401332  1
  O  O254  1  0.87287881  0.01142469  0.25960141  1
  O  O255  1  0.86199496  0.00595375  0.74156798  1
  O  O256  1  0.92036619  0.52440981  0.24738033  1
  O  O257  1  0.86265624  0.50501611  0.76392181  1
  O  O258  1  0.13542477  0.34399289  0.41212919  1
  O  O259  1  0.11271330  0.36499525  0.87851821  1
  O  O260  1  0.12368119  0.87814898  0.38227416  1
  O  O261  1  0.11619699  0.86760099  0.87093747  1
  O  O262  1  0.61608950  0.38527218  0.38271779  1
  O  O263  1  0.61715410  0.36491956  0.86916553  1
  O  O264  1  0.62030687  0.88076306  0.36041220  1
  O  O265  1  0.64038076  0.87185019  0.86696333  1
  O  O266  1  0.38243562  0.13214616  0.14646513  1
  O  O267  1  0.38817523  0.12878345  0.63398586  1
  O  O268  1  0.35348110  0.62455450  0.14673648  1
  O  O269  1  0.36436659  0.62293132  0.63749041  1
  O  O270  1  0.86888064  0.12389036  0.14102482  1
  O  O271  1  0.88401968  0.12317897  0.63830657  1
  O  O272  1  0.88194877  0.63104227  0.13982703  1
  O  O273  1  0.86904435  0.61100131  0.64105646  1
  O  O274  1  0.21091211  0.17175705  0.09507924  1
  O  O275  1  0.26621150  0.25819816  0.63460328  1
  O  O276  1  0.24166216  0.74792466  0.10704761  1
  O  O277  1  0.23665361  0.75934841  0.61772877  1
  O  O278  1  0.74191547  0.24510002  0.10951280  1
  O  O279  1  0.73895457  0.27629940  0.63901843  1
  O  O280  1  0.74640188  0.76632013  0.11328708  1
  O  O281  1  0.74230606  0.76454013  0.60485143  1
  O  O282  1  0.25469068  0.23038009  0.37927582  1
  O  O283  1  0.24216929  0.24385520  0.85904348  1
  O  O284  1  0.23851585  0.73313994  0.38220786  1
  O  O285  1  0.22884864  0.75150131  0.88572644  1
  O  O286  1  0.73222418  0.25336712  0.37886520  1
  O  O287  1  0.73923933  0.24150048  0.88090902  1
  O  O288  1  0.74131457  0.75127430  0.38007051  1
  O  O289  1  0.74407844  0.74895375  0.88329716  1
  O  O290  1  0.00288199  0.11503691  0.00268359  1
  O  O291  1  -0.00664371  0.11072637  0.49099944  1
  O  O292  1  0.01249884  0.61472893  -0.00939099  1
  O  O293  1  -0.01071167  0.59680411  0.50007539  1
  O  O294  1  0.51128815  0.11970673  -0.00895902  1
  O  O295  1  0.49586834  0.12262285  0.51774163  1
  O  O296  1  0.50322640  0.65272274  0.00008010  1
  O  O297  1  0.50109678  0.61256641  0.49614140  1
  O  O298  1  0.50036531  0.38544402  0.49339125  1
  O  O299  1  0.49553631  0.36506473  0.98441318  1
  O  O300  1  0.51124117  0.87203607  0.47702756  1
  O  O301  1  0.49813718  0.88399698  0.99011918  1
  O  O302  1  0.98570112  0.37310406  0.51058458  1
  O  O303  1  0.98611862  0.38620142  0.98435535  1
  O  O304  1  0.98305790  0.88360625  0.48524355  1
  O  O305  1  0.99894842  0.88496102  0.99173798  1
  O  O306  1  0.48993901  0.49230081  0.39213399  1
  O  O307  1  0.50846868  0.48695211  0.87919913  1
  O  O308  1  0.50278168  0.98977956  0.37024077  1
  O  O309  1  0.50446560  0.99216222  0.89134642  1
  O  O310  1  1.02649435  0.48345834  0.39430107  1
  O  O311  1  0.99242942  0.49151268  0.88177099  1
  O  O312  1  0.99637528  0.98825630  0.37982002  1
  O  O313  1  1.00763576  0.98920206  0.88963817  1
  O  O314  1  0.00226308  -0.00505135  0.11054268  1
  O  O315  1  -0.01066824  -0.00340631  0.60491313  1
  O  O316  1  0.01397437  0.49137198  0.11043403  1
  O  O317  1  0.01208316  0.49374571  0.62356953  1
  O  O318  1  0.51761037  -0.00884863  0.11429467  1
  O  O319  1  0.51475124  0.00443336  0.63219508  1
  O  O320  1  0.51910484  0.49768777  0.13663744  1
  O  O321  1  0.50564706  0.49907579  0.61897570  1
  O  O322  1  0.25304815  0.39040932  0.25692931  1
  O  O323  1  0.25677241  0.38860122  0.73634536  1
  O  O324  1  0.24675282  0.88680715  0.25565287  1
  O  O325  1  0.23751671  0.87728916  0.73966128  1
  O  O326  1  0.77642355  0.40272086  0.25381772  1
  O  O327  1  0.74068790  0.38357416  0.75493089  1
  O  O328  1  0.75033257  0.86975199  0.23803121  1
  O  O329  1  0.76354065  0.87853421  0.72899133  1
  O  O330  1  0.26896840  0.11672494  0.26065109  1
  O  O331  1  0.25555980  0.11581969  0.74611057  1
  O  O332  1  0.24693531  0.61818493  0.26584883  1
  O  O333  1  0.24822247  0.61235969  0.74916002  1
  O  O334  1  0.74417693  0.12262723  0.24626312  1
  O  O335  1  0.76213282  0.11886405  0.75497494  1
  O  O336  1  0.77953395  0.62065977  0.25907898  1
  O  O337  1  0.75301770  0.61337944  0.76197036  1
  O  O338  1  0.37334873  0.12414043  0.36917885  1
  O  O339  1  0.36139393  0.13306436  0.86012572  1
  O  O340  1  0.36326208  0.61396352  0.37214447  1
  O  O341  1  0.36165196  0.62121473  0.85103177  1
  O  O342  1  0.87366554  0.11740512  0.35889768  1
  O  O343  1  0.86110611  0.12734548  0.87820780  1
  O  O344  1  0.91714908  0.63086253  0.35836385  1
  O  O345  1  0.86313056  0.61445295  0.88114567  1
  O  O346  1  0.13040835  0.37829330  0.12157841  1
  O  O347  1  0.13912935  0.35791122  0.62863942  1
  O  O348  1  0.13407790  0.88741815  0.13021862  1
  O  O349  1  0.12613500  0.86961506  0.63744293  1
  O  O350  1  0.64197954  0.38008979  0.11959180  1
  O  O351  1  0.61887599  0.38142905  0.64271955  1
  O  O352  1  0.63809575  0.88537795  0.13865954  1
  O  O353  1  0.63926301  0.88852331  0.61408890  1
  O  O354  1  0.14649578  0.26254861  0.26770973  1
  O  O355  1  0.11001070  0.24351328  0.76746994  1
  O  O356  1  0.12242219  0.77528407  0.24411095  1
  O  O357  1  0.12640283  0.76276516  0.76109160  1
  O  O358  1  0.61020000  0.24681233  0.27343846  1
  O  O359  1  0.61471949  0.25482027  0.75999878  1
  O  O360  1  0.63448993  0.75784278  0.25879418  1
  O  O361  1  0.63776532  0.75320522  0.76047695  1
  O  O362  1  0.38931219  0.24251974  0.26152286  1
  O  O363  1  0.38645037  0.23907648  0.74258761  1
  O  O364  1  0.35996373  0.73874692  0.26100501  1
  O  O365  1  0.36267353  0.74026131  0.74695970  1
  O  O366  1  0.86252074  0.23162197  0.24941671  1
  O  O367  1  0.87909038  0.23265682  0.75431410  1
  O  O368  1  0.89333340  0.74592631  0.24829491  1
  O  O369  1  0.85536491  0.72973115  0.74799943  1
  O  O370  1  0.38366670  0.50803512  0.49974169  1
  O  O371  1  0.39233463  0.49606315  1.01807355  1
  O  O372  1  0.39796562  0.96285962  0.52562642  1
  O  O373  1  0.39466687  1.01142031  1.01875019  1
  O  O374  1  0.89115086  0.48044722  0.49449764  1
  O  O375  1  0.87946491  0.49732706  0.99512313  1
  O  O376  1  0.87826356  0.99849818  0.47945271  1
  O  O377  1  0.88597554  0.98895215  1.00142283  1
  O  O378  1  0.11678713  0.00923139  0.00033991  1
  O  O379  1  0.11058332  -0.00147398  0.49962530  1
  O  O380  1  0.12149144  0.50683602  0.01019732  1
  O  O381  1  0.11492836  0.48716170  0.52324713  1
  O  O382  1  0.61830956  0.00655746  0.00997444  1
  O  O383  1  0.62896454  0.00711625  0.51363557  1
  O  O384  1  0.62103342  0.50192949  0.01913732  1
  O  O385  1  0.61555070  0.49831551  0.52218808  1
  O  O386  1  0.37614957  0.36941254  0.13622573  1
  O  O387  1  0.38118697  0.35818618  0.63177782  1
  O  O388  1  0.40991809  0.84306679  0.12465235  1
  O  O389  1  0.35460119  0.86345386  0.63209314  1
  O  O390  1  0.88127096  0.36832039  0.10944026  1
  O  O391  1  0.86341455  0.37669832  0.64203007  1
  O  O392  1  0.86439394  0.88631450  0.12250601  1
  O  O393  1  0.85248015  0.89287647  0.59607649  1
  O  O394  1  0.14769113  0.13224890  0.37656798  1
  O  O395  1  0.14221863  0.13045667  0.86700548  1
  O  O396  1  0.11744834  0.62299677  0.36867070  1
  O  O397  1  0.12098069  0.63944378  0.87352745  1
  O  O398  1  0.62068421  0.13343011  0.38937910  1
  O  O399  1  0.63048721  0.13166940  0.88031950  1
  O  O400  1  0.62412796  0.63218316  0.35786937  1
  O  O401  1  0.63601110  0.63807709  0.87216575  1
