# generated using pymatgen
data_V73Zn73O256
_symmetry_space_group_name_H-M   'P 1'
_cell_length_a   16.86511701
_cell_length_b   16.85211427
_cell_length_c   16.87564970
_cell_angle_alpha   90.03681369
_cell_angle_beta   90.14799725
_cell_angle_gamma   89.93696071
_symmetry_Int_Tables_number   1
_chemical_formula_structural   V73Zn73O256
_chemical_formula_sum   'V73 Zn73 O256'
_cell_volume   4796.25710153
_cell_formula_units_Z   1
loop_
 _symmetry_equiv_pos_site_id
 _symmetry_equiv_pos_as_xyz
  1  'x, y, z'
loop_
 _atom_site_type_symbol
 _atom_site_label
 _atom_site_symmetry_multiplicity
 _atom_site_fract_x
 _atom_site_fract_y
 _atom_site_fract_z
 _atom_site_occupancy
  V  V0  1  0.00170610  0.62846994  0.14142205  1
  V  V1  1  0.49454568  0.86227941  0.86541796  1
  V  V2  1  0.24086342  0.37419227  0.12773336  1
  V  V3  1  0.24877579  0.88912946  0.12423197  1
  V  V4  1  0.25993406  0.35986642  0.61831258  1
  V  V5  1  0.50201045  0.49128822  0.47085602  1
  V  V6  1  0.51060927  0.60745876  0.60025655  1
  V  V7  1  0.75424917  0.87368661  0.12252989  1
  V  V8  1  0.13530949  0.72746970  0.38001401  1
  V  V9  1  0.50145113  0.11921134  0.12201677  1
  V  V10  1  0.86508508  0.38270800  0.00540924  1
  V  V11  1  0.87507330  0.49765184  0.36219951  1
  V  V12  1  0.87811530  0.75011633  0.13227214  1
  V  V13  1  0.37180935  0.24744596  0.12266006  1
  V  V14  1  0.50317944  0.25673700  0.24756112  1
  V  V15  1  0.74993145  -0.00587675  0.25661393  1
  V  V16  1  0.36508465  0.11795419  0.25298428  1
  V  V17  1  0.00059814  0.50323129  -0.00717989  1
  V  V18  1  0.75540589  0.25073117  0.50916553  1
  V  V19  1  0.12755731  0.63016504  0.00003629  1
  V  V20  1  0.87274367  0.14480879  0.75154221  1
  V  V21  1  0.24545104  0.12626419  0.86456495  1
  V  V22  1  0.63200357  0.11388568  -0.00456776  1
  V  V23  1  0.11700561  0.12315943  0.01409855  1
  V  V24  1  0.75070725  0.24423959  0.00004912  1
  V  V25  1  0.00442089  0.49748861  0.49770447  1
  V  V26  1  0.25866050  0.75326261  0.51228212  1
  V  V27  1  0.88155055  0.24832425  0.12537712  1
  V  V28  1  0.00248163  0.24789640  0.26850110  1
  V  V29  1  0.51293992  0.01242077  0.50105277  1
  V  V30  1  0.12068543  0.37053363  0.26915879  1
  V  V31  1  0.75271758  0.00068596  0.76023234  1
  V  V32  1  0.62977761  0.51229363  0.13138168  1
  V  V33  1  0.62532559  0.86624212  0.74182588  1
  V  V34  1  -0.01000541  0.62489830  0.62382250  1
  V  V35  1  0.48537959  0.73580942  0.73404698  1
  V  V36  1  -0.01170228  -0.00842818  0.49015435  1
  V  V37  1  0.75353751  0.12345433  0.37690747  1
  V  V38  1  0.12822816  0.75210734  0.86803391  1
  V  V39  1  0.62664102  0.25447254  0.37974318  1
  V  V40  1  0.25755359  0.50788242  0.26133152  1
  V  V41  1  0.38207671  0.37852122  -0.00219501  1
  V  V42  1  0.12813635  0.12733133  0.49497715  1
  V  V43  1  0.75438549  0.63338348  0.88163408  1
  V  V44  1  0.11375046  -0.01509045  0.63303219  1
  V  V45  1  0.63426829  0.01711622  0.62190310  1
  V  V46  1  0.75810231  0.62712303  0.36261778  1
  V  V47  1  0.62660508  0.74977112  0.36189683  1
  V  V48  1  0.49908470  0.51996836  0.00843884  1
  V  V49  1  0.65482618  0.36930387  0.23475569  1
  V  V50  1  -0.00261112  0.37153389  0.86947027  1
  V  V51  1  0.62506068  -0.01203101  0.13165412  1
  V  V52  1  0.36948235  -0.00338654  0.87517739  1
  V  V53  1  -0.00207884  0.14127329  0.63024405  1
  V  V54  1  0.87846556  0.12016753  0.24972712  1
  V  V55  1  0.37860535  0.74070131  0.13994749  1
  V  V56  1  0.73947363  0.74380262  0.51784439  1
  V  V57  1  0.63829336  0.37159497  0.75392153  1
  V  V58  1  0.25745110  0.60868823  0.86353310  1
  V  V59  1  0.87081062  0.85671160  0.50259559  1
  V  V60  1  0.60584522  0.25079077  0.88110879  1
  V  V61  1  0.14138668  0.50722338  0.62550323  1
  V  V62  1  0.00058923  0.00000820  0.02023586  1
  V  V63  1  0.24083695  -0.01898472  0.74660481  1
  V  V64  1  0.37687411  0.37143700  0.47534370  1
  V  V65  1  0.87143002  0.37517515  0.51286993  1
  V  V66  1  0.24343273  0.24831283  -0.00321399  1
  V  V67  1  0.49267619  -0.01301999  -0.00007705  1
  V  V68  1  0.12763222  0.90079407  0.25566450  1
  V  V69  1  0.51395616  0.87891013  0.36623341  1
  V  V70  1  -0.00755339  0.74128636  0.74400232  1
  V  V71  1  0.36454725  -0.00241663  0.37255363  1
  V  V72  1  0.00100364  0.88208848  0.86077315  1
  Zn  Zn73  1  0.12335401  0.50218695  0.13061469  1
  Zn  Zn74  1  0.14320735  0.37423172  0.75117925  1
  Zn  Zn75  1  0.11298647  0.24200121  0.85565416  1
  Zn  Zn76  1  0.86921296  0.00611304  0.87981176  1
  Zn  Zn77  1  0.26145789  0.22843880  0.48715213  1
  Zn  Zn78  1  0.00116788  0.76698960  0.27620038  1
  Zn  Zn79  1  0.26603488  0.76033152  -0.00064448  1
  Zn  Zn80  1  0.38012522  0.87894279  0.53001042  1
  Zn  Zn81  1  0.87742001  0.87238681  -0.00164042  1
  Zn  Zn82  1  0.18265568  0.18455980  0.19449375  1
  Zn  Zn83  1  0.18383229  0.19200468  0.67902660  1
  Zn  Zn84  1  0.19559248  0.70200535  0.19452276  1
  Zn  Zn85  1  0.18805083  0.68658783  0.68365649  1
  Zn  Zn86  1  0.69329755  0.18269510  0.18265640  1
  Zn  Zn87  1  0.68604470  0.19291086  0.69494636  1
  Zn  Zn88  1  0.68932067  0.69167048  0.18699027  1
  Zn  Zn89  1  0.67644752  0.67710558  0.68991021  1
  Zn  Zn90  1  0.30680550  0.30377476  0.31241791  1
  Zn  Zn91  1  0.35729394  0.37913250  0.78748882  1
  Zn  Zn92  1  0.30529009  0.82004236  0.31441990  1
  Zn  Zn93  1  0.31358513  0.80633064  0.80661932  1
  Zn  Zn94  1  0.82138891  0.31087728  0.31994822  1
  Zn  Zn95  1  0.80969336  0.31910269  0.82393147  1
  Zn  Zn96  1  0.81925014  0.81503935  0.31863197  1
  Zn  Zn97  1  0.82019875  0.82306499  0.79943608  1
  Zn  Zn98  1  0.19168203  0.43992134  0.44082290  1
  Zn  Zn99  1  0.18421102  0.43589588  0.93857761  1
  Zn  Zn100  1  0.18494620  0.93069004  0.44812635  1
  Zn  Zn101  1  0.18041389  0.93882113  0.94187935  1
  Zn  Zn102  1  0.69550030  0.43488711  0.42358809  1
  Zn  Zn103  1  0.67221544  0.43659255  0.94540963  1
  Zn  Zn104  1  0.69558619  0.93208116  0.44298534  1
  Zn  Zn105  1  0.66002276  0.88902996  0.95755180  1
  Zn  Zn106  1  0.31073613  0.06334426  0.05856903  1
  Zn  Zn107  1  0.30947110  0.04142491  0.56244412  1
  Zn  Zn108  1  0.31087998  0.56437268  0.07038253  1
  Zn  Zn109  1  0.32582580  0.57108319  0.54484451  1
  Zn  Zn110  1  0.81571560  0.05967168  0.06714874  1
  Zn  Zn111  1  0.81426918  0.06501313  0.56833016  1
  Zn  Zn112  1  0.81867886  0.56246179  0.07698450  1
  Zn  Zn113  1  0.81840204  0.57382787  0.55112203  1
  Zn  Zn114  1  0.43621750  0.44389730  0.18530427  1
  Zn  Zn115  1  0.41107049  0.47901604  0.65065109  1
  Zn  Zn116  1  0.43475904  0.92455828  0.18865636  1
  Zn  Zn117  1  0.42777212  1.04474564  0.67817969  1
  Zn  Zn118  1  0.94349536  0.43376974  0.18358148  1
  Zn  Zn119  1  0.93521135  0.43909218  0.68148434  1
  Zn  Zn120  1  0.93706701  0.93443187  0.19918907  1
  Zn  Zn121  1  0.93189476  0.93524463  0.67861833  1
  Zn  Zn122  1  0.06087330  0.06168997  0.31430248  1
  Zn  Zn123  1  0.06053742  0.06920400  0.81043865  1
  Zn  Zn124  1  0.07211181  0.55810213  0.31981744  1
  Zn  Zn125  1  0.07300415  0.55947389  0.80651226  1
  Zn  Zn126  1  0.56687648  0.06909676  0.31283450  1
  Zn  Zn127  1  0.56549690  0.05367600  0.81503940  1
  Zn  Zn128  1  0.57999377  0.55984413  0.30625820  1
  Zn  Zn129  1  0.50084067  0.52560023  0.79829429  1
  Zn  Zn130  1  0.44228701  0.18761961  0.43623166  1
  Zn  Zn131  1  0.43147728  0.17942383  0.81660381  1
  Zn  Zn132  1  0.44195088  0.70032774  0.44447480  1
  Zn  Zn133  1  0.42906194  0.68824597  0.94661244  1
  Zn  Zn134  1  0.93692475  0.18202623  0.44306566  1
  Zn  Zn135  1  0.93487198  0.18691545  0.93674253  1
  Zn  Zn136  1  0.94104731  0.68494344  0.43748799  1
  Zn  Zn137  1  0.94311786  0.69564954  0.94267681  1
  Zn  Zn138  1  0.05834513  0.31076065  0.06253326  1
  Zn  Zn139  1  0.06926571  0.31700345  0.55874163  1
  Zn  Zn140  1  0.06802179  0.81650842  0.06747540  1
  Zn  Zn141  1  0.06367211  0.80779564  0.55327368  1
  Zn  Zn142  1  0.56387583  0.30993521  0.06498558  1
  Zn  Zn143  1  0.58803114  0.37322978  0.55565064  1
  Zn  Zn144  1  0.55189329  0.78624711  0.06279939  1
  Zn  Zn145  1  0.55830755  0.81800144  0.56018008  1
  O  O146  1  0.12234813  0.12872677  0.11305729  1
  O  O147  1  0.10842441  0.11754368  0.62268867  1
  O  O148  1  0.11194060  0.62845022  0.11549971  1
  O  O149  1  0.11693198  0.61000048  0.62696507  1
  O  O150  1  0.61997349  0.11284836  0.11806607  1
  O  O151  1  0.62848849  0.11658041  0.62931563  1
  O  O152  1  0.61589290  0.61164634  0.15389085  1
  O  O153  1  0.60827983  0.61331012  0.63077443  1
  O  O154  1  0.37151326  0.37580576  0.37558199  1
  O  O155  1  0.36109344  0.37222813  0.90117937  1
  O  O156  1  0.39148573  0.89224793  0.36601277  1
  O  O157  1  0.38377369  0.88291021  0.86698053  1
  O  O158  1  0.87039504  0.39311203  0.38494584  1
  O  O159  1  0.88504103  0.37393324  0.89648456  1
  O  O160  1  0.87237843  0.87566672  0.39819238  1
  O  O161  1  0.89103826  0.87408435  0.87902051  1
  O  O162  1  0.26717673  -0.00399991  0.38075704  1
  O  O163  1  0.24465701  0.00647551  0.87074536  1
  O  O164  1  0.24457447  0.49927519  0.36136152  1
  O  O165  1  0.24234497  0.50814930  0.87333284  1
  O  O166  1  0.74014043  0.01100360  0.36830416  1
  O  O167  1  0.74796486  0.00105787  0.86053068  1
  O  O168  1  0.76199157  0.51448746  0.37511590  1
  O  O169  1  0.73773940  0.53016459  0.88914290  1
  O  O170  1  0.24350107  0.48574151  0.13124438  1
  O  O171  1  0.24152201  0.50908337  0.60943791  1
  O  O172  1  0.25050970  0.99061865  0.12040038  1
  O  O173  1  0.22616511  1.00206421  0.64138843  1
  O  O174  1  0.73166123  0.50876933  0.11948449  1
  O  O175  1  0.77691144  0.51522182  0.65529856  1
  O  O176  1  0.74496449  0.99397105  0.13575798  1
  O  O177  1  0.73955878  1.00172226  0.63017471  1
  O  O178  1  0.01135519  0.36223755  0.24788789  1
  O  O179  1  -0.02028340  0.39008886  0.77141170  1
  O  O180  1  0.02050226  0.87662501  0.24417657  1
  O  O181  1  -0.00122842  0.86500596  0.75759950  1
  O  O182  1  0.49626479  0.35667724  0.24056553  1
  O  O183  1  0.45699896  0.27728417  0.68647959  1
  O  O184  1  0.50940946  0.88338074  0.26683807  1
  O  O185  1  0.50428909  0.85716321  0.75632639  1
  O  O186  1  0.49938064  0.13137875  0.23637828  1
  O  O187  1  0.48896258  0.10655191  0.75226471  1
  O  O188  1  0.47251897  0.63181307  0.27740117  1
  O  O189  1  0.50544590  0.63901250  0.76010820  1
  O  O190  1  0.99266587  0.13796245  0.25724278  1
  O  O191  1  0.98972516  0.12888688  0.73988668  1
  O  O192  1  1.00910677  0.61869927  0.24030195  1
  O  O193  1  1.00252617  0.63193226  0.74218079  1
  O  O194  1  0.35991207  0.25625046  0.01411016  1
  O  O195  1  0.37686168  0.26303838  0.48856267  1
  O  O196  1  0.37769028  0.75535631  0.02014578  1
  O  O197  1  0.37118872  0.76493834  0.50167275  1
  O  O198  1  0.87069540  0.25547005  0.00702109  1
  O  O199  1  0.86685284  0.26415171  0.49232582  1
  O  O200  1  0.88886033  0.75660772  0.02296615  1
  O  O201  1  0.86682810  0.75075627  0.50042120  1
  O  O202  1  0.12325937  0.23066681  0.50488989  1
  O  O203  1  0.12811518  0.23940890  0.99890715  1
  O  O204  1  0.14165685  0.75923734  0.48856482  1
  O  O205  1  0.11158740  0.73915738  0.98634269  1
  O  O206  1  0.63925061  0.26741414  0.48353361  1
  O  O207  1  0.62971778  0.23774413  0.99750638  1
  O  O208  1  0.63708587  0.75432494  0.49628423  1
  O  O209  1  0.63380089  0.78121073  0.99308297  1
  O  O210  1  0.49159919  0.23806333  0.12701795  1
  O  O211  1  0.44719047  0.23365053  0.62804886  1
  O  O212  1  0.48140973  0.76546335  0.14025628  1
  O  O213  1  0.50328645  0.73286953  0.62769893  1
  O  O214  1  0.98693518  0.24916008  0.12925289  1
  O  O215  1  1.00057906  0.24003301  0.61766938  1
  O  O216  1  0.99820434  0.73828046  0.13095651  1
  O  O217  1  1.01378355  0.73583054  0.63406986  1
  O  O218  1  -0.00581293  0.25279606  0.36703589  1
  O  O219  1  -0.00065359  0.26686273  0.88233955  1
  O  O220  1  0.02251258  0.74351478  0.38728490  1
  O  O221  1  0.00550087  0.75348817  0.86317373  1
  O  O222  1  0.52065478  0.24208382  0.36310776  1
  O  O223  1  0.50718308  0.24382076  0.88235693  1
  O  O224  1  0.51753696  0.76416645  0.38279329  1
  O  O225  1  0.49016469  0.76057058  0.87187177  1
  O  O226  1  0.23159588  0.11205591  0.51058744  1
  O  O227  1  0.23483720  0.12873652  0.99666036  1
  O  O228  1  0.26817452  0.65074078  0.49394400  1
  O  O229  1  0.23536865  0.62274532  0.99383179  1
  O  O230  1  0.76371008  0.13996042  0.49006320  1
  O  O231  1  0.74046181  0.12671440  1.00704629  1
  O  O232  1  0.75223015  0.63874927  0.48753897  1
  O  O233  1  0.76899651  0.63544623  0.98594934  1
  O  O234  1  0.24844376  0.36654395  0.01041711  1
  O  O235  1  0.26351949  0.37549067  0.50004278  1
  O  O236  1  0.23391161  0.87269507  0.01525779  1
  O  O237  1  0.26286758  0.86918006  0.50166663  1
  O  O238  1  0.76181266  0.37283621  -0.00231510  1
  O  O239  1  0.76087228  0.36624966  0.49726838  1
  O  O240  1  0.76025228  0.88837620  0.01744616  1
  O  O241  1  0.75823823  0.85652767  0.50352419  1
  O  O242  1  0.12547243  0.48053223  0.24974087  1
  O  O243  1  0.12311643  0.48905108  0.73001740  1
  O  O244  1  0.12446801  1.00140210  0.24435712  1
  O  O245  1  0.12780659  0.99963043  0.74534961  1
  O  O246  1  0.62625269  0.47615323  0.24179383  1
  O  O247  1  0.59452550  0.46194188  0.76377506  1
  O  O248  1  0.63700751  1.00809608  0.24020145  1
  O  O249  1  0.63641334  0.99792560  0.73938636  1
  O  O250  1  0.38401861  0.01162000  0.25659831  1
  O  O251  1  0.34715955  0.00287633  0.76520819  1
  O  O252  1  0.35690145  0.49258230  0.24671650  1
  O  O253  1  0.40797259  0.47438535  0.76039475  1
  O  O254  1  0.86594185  0.01032353  0.24828328  1
  O  O255  1  0.85876945  -0.01012350  0.75009702  1
  O  O256  1  0.88598850  0.49452784  0.26355553  1
  O  O257  1  0.82995526  0.50481974  0.70812026  1
  O  O258  1  0.12409508  0.37284109  0.36767115  1
  O  O259  1  0.10860850  0.37683672  0.87178564  1
  O  O260  1  0.13114233  0.88541782  0.35849209  1
  O  O261  1  0.11076043  0.86121656  0.88113124  1
  O  O262  1  0.63851491  0.35879995  0.35107408  1
  O  O263  1  0.62243988  0.35675366  0.87966333  1
  O  O264  1  0.62340435  0.86488680  0.37911528  1
  O  O265  1  0.60375382  0.88882341  0.85601127  1
  O  O266  1  0.38154407  0.12765519  0.13097643  1
  O  O267  1  0.36482114  0.12282426  0.62133036  1
  O  O268  1  0.37100710  0.63819827  0.12981653  1
  O  O269  1  0.40564057  0.60100959  0.62788249  1
  O  O270  1  0.87187369  0.13269888  0.14031515  1
  O  O271  1  0.88677198  0.12409254  0.63826947  1
  O  O272  1  0.88867610  0.63709234  0.12737302  1
  O  O273  1  0.89098488  0.62692879  0.62650049  1
  O  O274  1  0.25225445  0.25191614  0.12091987  1
  O  O275  1  0.25181078  0.25759163  0.60830470  1
  O  O276  1  0.25713334  0.75761801  0.11932093  1
  O  O277  1  0.24214823  0.75431658  0.61345712  1
  O  O278  1  0.76361431  0.24563169  0.11355462  1
  O  O279  1  0.74571330  0.24281946  0.60694347  1
  O  O280  1  0.76665691  0.75820920  0.13460537  1
  O  O281  1  0.74407997  0.73399598  0.61730112  1
  O  O282  1  0.24638117  0.23674535  0.37539301  1
  O  O283  1  0.24657255  0.23577312  0.88781045  1
  O  O284  1  0.24039236  0.75511998  0.38248226  1
  O  O285  1  0.23592769  0.74946089  0.87911233  1
  O  O286  1  0.74572049  0.24341428  0.37914719  1
  O  O287  1  0.74797563  0.24954466  0.89656045  1
  O  O288  1  0.74291660  0.74332192  0.37822119  1
  O  O289  1  0.77207649  0.73652318  0.87382247  1
  O  O290  1  0.00849988  0.11574966  -0.00456418  1
  O  O291  1  0.00090714  0.11416356  0.51324426  1
  O  O292  1  0.00362401  0.61478258  0.00158704  1
  O  O293  1  -0.00444532  0.61100504  0.51383150  1
  O  O294  1  0.50958996  0.10828817  0.01462230  1
  O  O295  1  0.51180646  0.11207948  0.48688926  1
  O  O296  1  0.49665868  0.61994892  0.01178210  1
  O  O297  1  0.50269927  0.61084127  0.49253792  1
  O  O298  1  0.48649102  0.37909345  0.49137424  1
  O  O299  1  0.48202510  0.36499200  1.00707470  1
  O  O300  1  0.49643742  0.88942662  0.49075184  1
  O  O301  1  0.50535242  0.88318996  0.98531450  1
  O  O302  1  0.98858589  0.38785982  0.50598427  1
  O  O303  1  0.99607792  0.38890653  0.99604552  1
  O  O304  1  0.99138356  0.88465797  0.50255650  1
  O  O305  1  1.00403958  0.89164005  0.99616407  1
  O  O306  1  0.50564418  0.50109859  0.37143313  1
  O  O307  1  0.50349209  0.50000095  0.90983530  1
  O  O308  1  0.51905573  0.99074075  0.38315250  1
  O  O309  1  0.48612546  0.99326886  0.88167114  1
  O  O310  1  0.98908975  0.50977781  0.39087629  1
  O  O311  1  1.00284047  0.49812749  0.88835003  1
  O  O312  1  0.99617293  1.00443333  0.39198050  1
  O  O313  1  1.00128731  0.98609285  0.86879187  1
  O  O314  1  -0.00426842  0.00099823  0.11775681  1
  O  O315  1  0.00559964  0.00762326  0.62575596  1
  O  O316  1  -0.00015447  0.51351545  0.11682726  1
  O  O317  1  0.00355532  0.50805247  0.61864320  1
  O  O318  1  0.50493382  -0.00214747  0.12182507  1
  O  O319  1  0.51745550  0.00598856  0.60748174  1
  O  O320  1  0.51340553  0.49270145  0.12093297  1
  O  O321  1  0.51344424  0.49944847  0.59605271  1
  O  O322  1  0.23500735  0.37244624  0.24532075  1
  O  O323  1  0.25933773  0.37676629  0.72224953  1
  O  O324  1  0.23761674  0.88067857  0.24003998  1
  O  O325  1  0.24145416  0.88231440  0.75608173  1
  O  O326  1  0.75376213  0.36628012  0.24033663  1
  O  O327  1  0.73909518  0.38222967  0.76235282  1
  O  O328  1  0.75906167  0.88768300  0.24441573  1
  O  O329  1  0.73424966  0.88253395  0.75450481  1
  O  O330  1  0.26618754  0.12468293  0.24439450  1
  O  O331  1  0.23764564  0.12503743  0.76391871  1
  O  O332  1  0.23567360  0.60382916  0.23969624  1
  O  O333  1  0.24369151  0.62814333  0.76509586  1
  O  O334  1  0.75885478  0.11751321  0.25625867  1
  O  O335  1  0.76527957  0.11432133  0.74366071  1
  O  O336  1  0.75911071  0.63314823  0.26314065  1
  O  O337  1  0.74107969  0.62626376  0.77902958  1
  O  O338  1  0.38501650  0.11710943  0.35818575  1
  O  O339  1  0.35256706  0.11555883  0.87834760  1
  O  O340  1  0.41781632  0.63632689  0.32768572  1
  O  O341  1  0.35521057  0.62793943  0.88262298  1
  O  O342  1  0.86484411  0.13292279  0.36271649  1
  O  O343  1  0.88650020  0.12070748  0.85539820  1
  O  O344  1  0.86757294  0.61474937  0.37915893  1
  O  O345  1  0.86008125  0.62079815  0.87267767  1
  O  O346  1  0.13131412  0.37154653  0.13010904  1
  O  O347  1  0.14542381  0.38678735  0.61289918  1
  O  O348  1  0.13676886  0.86833910  0.14072919  1
  O  O349  1  0.11103254  0.88621366  0.62790165  1
  O  O350  1  0.63272363  0.37169340  0.13258107  1
  O  O351  1  0.61619944  0.34282545  0.65685848  1
  O  O352  1  0.63619364  0.88376763  0.12493732  1
  O  O353  1  0.61450055  0.88642467  0.63978136  1
  O  O354  1  0.11146195  0.25492027  0.25105282  1
  O  O355  1  0.12463664  0.26252788  0.74519406  1
  O  O356  1  0.12444573  0.74841697  0.27184938  1
  O  O357  1  0.11672473  0.74593677  0.76442349  1
  O  O358  1  0.62426577  0.25671495  0.24579914  1
  O  O359  1  0.63143152  0.24990076  0.77707461  1
  O  O360  1  0.62837193  0.75604058  0.26299744  1
  O  O361  1  0.61942621  0.76286109  0.74429693  1
  O  O362  1  0.38205749  0.23749865  0.24121944  1
  O  O363  1  0.39121312  0.26928445  0.75267939  1
  O  O364  1  0.36090134  0.75358510  0.24161584  1
  O  O365  1  0.38581839  0.74886131  0.74168882  1
  O  O366  1  0.88668744  0.24709595  0.24589633  1
  O  O367  1  0.86312857  0.24333368  0.75337353  1
  O  O368  1  0.88828336  0.75961321  0.24076880  1
  O  O369  1  0.89293963  0.75233271  0.74601754  1
  O  O370  1  0.39030431  0.49018449  0.48738677  1
  O  O371  1  0.38515893  0.48600596  1.02021992  1
  O  O372  1  0.39479484  1.01139629  0.47518909  1
  O  O373  1  0.38168998  1.00335061  0.98933459  1
  O  O374  1  0.88046864  0.49029788  0.49895715  1
  O  O375  1  0.88426368  0.49050860  1.00961563  1
  O  O376  1  0.88535535  0.99791502  0.50662868  1
  O  O377  1  0.89058313  1.00451079  0.99655942  1
  O  O378  1  0.11132950  0.01295124  -0.00041644  1
  O  O379  1  0.11133183  0.00226543  0.51556795  1
  O  O380  1  0.11245033  0.50811788  0.00472048  1
  O  O381  1  0.10958068  0.49419071  0.50724095  1
  O  O382  1  0.61723000  -0.00146709  0.00938413  1
  O  O383  1  0.62608667  -0.00329391  0.51154734  1
  O  O384  1  0.61246622  0.49912803  0.01975016  1
  O  O385  1  0.60926052  0.46737048  0.48881115  1
  O  O386  1  0.36111274  0.36249138  0.12422579  1
  O  O387  1  0.36256731  0.38356680  0.60538481  1
  O  O388  1  0.35524202  0.86975049  0.13180527  1
  O  O389  1  0.37053009  0.95502809  0.61599370  1
  O  O390  1  0.88046174  0.36679464  0.11217706  1
  O  O391  1  0.87194299  0.37334951  0.61254584  1
  O  O392  1  0.87171766  0.86766101  0.12665808  1
  O  O393  1  0.87726913  0.87101896  0.60612526  1
  O  O394  1  0.11853897  0.11589021  0.39584005  1
  O  O395  1  0.13091812  0.12636385  0.88444617  1
  O  O396  1  0.13526683  0.62686655  0.38427317  1
  O  O397  1  0.12938566  0.63343929  0.88050030  1
  O  O398  1  0.64115001  0.14314406  0.36662466  1
  O  O399  1  0.61891932  0.12886611  0.89013619  1
  O  O400  1  0.63898665  0.63699167  0.36844694  1
  O  O401  1  0.65373455  0.65420522  0.89694538  1
