# generated using pymatgen
data_V73Zn73O256
_symmetry_space_group_name_H-M   'P 1'
_cell_length_a   16.87667869
_cell_length_b   16.88638519
_cell_length_c   16.92556561
_cell_angle_alpha   89.40536365
_cell_angle_beta   90.30399818
_cell_angle_gamma   89.87899674
_symmetry_Int_Tables_number   1
_chemical_formula_structural   V73Zn73O256
_chemical_formula_sum   'V73 Zn73 O256'
_cell_volume   4823.21189675
_cell_formula_units_Z   1
loop_
 _symmetry_equiv_pos_site_id
 _symmetry_equiv_pos_as_xyz
  1  'x, y, z'
loop_
 _atom_site_type_symbol
 _atom_site_label
 _atom_site_symmetry_multiplicity
 _atom_site_fract_x
 _atom_site_fract_y
 _atom_site_fract_z
 _atom_site_occupancy
  V  V0  1  -0.00788010  0.49666684  0.49709569  1
  V  V1  1  -0.00480576  0.37851443  0.38060084  1
  V  V2  1  -0.00789109  0.87003176  0.88237733  1
  V  V3  1  0.75476714  0.37301927  0.59886100  1
  V  V4  1  0.12023881  0.62998160  0.48456632  1
  V  V5  1  0.74779969  0.88272844  0.62219993  1
  V  V6  1  0.85663936  0.25918469  0.12473512  1
  V  V7  1  0.86081218  0.74903633  0.13434245  1
  V  V8  1  0.24667353  0.74720467  0.49415356  1
  V  V9  1  0.25006449  0.50193189  0.74921421  1
  V  V10  1  0.37730234  0.86704313  0.49949806  1
  V  V11  1  0.50247783  0.36674320  0.87443248  1
  V  V12  1  0.26368055  0.61833450  0.35570080  1
  V  V13  1  0.15394874  0.37727284  0.25635405  1
  V  V14  1  0.86509660  0.37147572  -0.01136502  1
  V  V15  1  0.24509394  0.12348773  0.39096498  1
  V  V16  1  -0.01544769  -0.00664513  0.00605273  1
  V  V17  1  0.63731418  0.37261793  0.75478076  1
  V  V18  1  0.12875705  0.24485581  0.38756389  1
  V  V19  1  0.26818676  0.87708021  0.12014954  1
  V  V20  1  0.62652984  0.89453800  0.75621110  1
  V  V21  1  0.49195058  0.63630355  0.62520490  1
  V  V22  1  0.36156173  0.35003489  -0.00343639  1
  V  V23  1  -0.00242020  0.62066945  0.12290977  1
  V  V24  1  0.37180824  0.12897406  0.24383695  1
  V  V25  1  0.24855163  0.87015417  0.63002452  1
  V  V26  1  0.12539558  0.12305791  -0.01714672  1
  V  V27  1  0.23088997  0.63132731  0.87831546  1
  V  V28  1  0.39004716  0.72645341  0.14564047  1
  V  V29  1  0.37828707  -0.00308549  0.37815747  1
  V  V30  1  0.74230681  0.62196811  0.37916388  1
  V  V31  1  0.11937598  0.88156990  0.75713443  1
  V  V32  1  0.00506957  0.47978446  0.00358166  1
  V  V33  1  0.49148079  0.49300444  0.50557263  1
  V  V34  1  0.69854665  -0.04039576  0.29545909  1
  V  V35  1  0.13438325  0.25656247  0.87677146  1
  V  V36  1  0.50315184  0.00450149  0.51185447  1
  V  V37  1  0.50721920  0.74788277  0.76743265  1
  V  V38  1  -0.00451466  0.23846374  0.75531052  1
  V  V39  1  0.75674430  0.75268063  -0.01887969  1
  V  V40  1  0.12115409  0.00028760  0.12665845  1
  V  V41  1  0.64034242  0.62759497  0.00562899  1
  V  V42  1  0.75251985  0.13564468  0.86546434  1
  V  V43  1  0.00378950  0.25314748  0.24540589  1
  V  V44  1  0.87426745  0.24943047  0.60996326  1
  V  V45  1  -0.00456934  0.62440766  0.62686060  1
  V  V46  1  0.24840113  -0.00151893  0.25028714  1
  V  V47  1  0.63236943  0.14132539  -0.00636413  1
  V  V48  1  0.63467178  0.64261050  0.50643018  1
  V  V49  1  0.14529621  0.50318386  0.13296290  1
  V  V50  1  0.86875580  0.11967275  0.25269513  1
  V  V51  1  0.88383711  -0.02131185  0.38410463  1
  V  V52  1  0.49021475  0.43349345  0.33502396  1
  V  V53  1  0.00314846  0.74387394  0.75874971  1
  V  V54  1  0.37533890  0.51258601  0.87471240  1
  V  V55  1  0.74185451  0.13506545  0.38754392  1
  V  V56  1  0.12574616  0.50002799  0.62307955  1
  V  V57  1  0.49372830  0.12346347  0.10822694  1
  V  V58  1  0.47234777  0.13532522  0.62576897  1
  V  V59  1  0.11407589  -0.00454697  0.60357745  1
  V  V60  1  0.86656254  0.61066662  0.76770747  1
  V  V61  1  0.87030740  0.00388442  0.85840853  1
  V  V62  1  0.55649899  0.77146087  0.28835954  1
  V  V63  1  0.86851994  0.60063781  0.25972738  1
  V  V64  1  0.11711673  0.37296900  0.75260954  1
  V  V65  1  0.50727779  0.24222426  0.25686122  1
  V  V66  1  0.62473260  -0.00716886  0.10543332  1
  V  V67  1  0.26191302  0.36048252  0.61747265  1
  V  V68  1  -0.00026763  0.12016152  0.60828845  1
  V  V69  1  0.50015830  0.51526616  0.00108504  1
  V  V70  1  0.63843058  0.48380693  0.12850499  1
  V  V71  1  0.63191523  0.50153170  0.62329785  1
  V  V72  1  0.11624622  0.86586487  0.25873213  1
  Zn  Zn73  1  -0.00322402  0.12842416  0.12447573  1
  Zn  Zn74  1  0.24403583  0.74722522  -0.00020978  1
  Zn  Zn75  1  0.48368634  0.25722741  0.73776089  1
  Zn  Zn76  1  0.86740408  0.75231590  0.62552933  1
  Zn  Zn77  1  0.75037532  0.87945063  0.11992651  1
  Zn  Zn78  1  0.65606368  0.30551056  0.32617388  1
  Zn  Zn79  1  0.36599488  0.64345510  0.74317332  1
  Zn  Zn80  1  -0.00325085  0.74514026  0.26209995  1
  Zn  Zn81  1  0.49350386  0.90373710  0.88493636  1
  Zn  Zn82  1  0.18663362  0.18922873  0.18635102  1
  Zn  Zn83  1  0.29688186  0.18375186  0.70924185  1
  Zn  Zn84  1  0.18440426  0.69678779  0.16807298  1
  Zn  Zn85  1  0.18123334  0.69015085  0.68798891  1
  Zn  Zn86  1  0.68466553  0.17639855  0.18204730  1
  Zn  Zn87  1  0.68828025  0.19611848  0.69007862  1
  Zn  Zn88  1  0.67205347  0.67907554  0.20037376  1
  Zn  Zn89  1  0.68896680  0.69434155  0.69359366  1
  Zn  Zn90  1  0.33010251  0.30789832  0.35065981  1
  Zn  Zn91  1  0.30997758  0.32426175  0.81560874  1
  Zn  Zn92  1  0.31485507  0.80595737  0.31188827  1
  Zn  Zn93  1  0.31401589  0.80672002  0.81051301  1
  Zn  Zn94  1  0.81854158  0.31577343  0.31496210  1
  Zn  Zn95  1  0.82583848  0.31165278  0.81086509  1
  Zn  Zn96  1  0.77738060  0.80027087  0.31213366  1
  Zn  Zn97  1  0.81883175  0.81506880  0.79211510  1
  Zn  Zn98  1  0.19363408  0.44080967  0.43685922  1
  Zn  Zn99  1  0.18336591  0.44517707  0.94137062  1
  Zn  Zn100  1  0.18756668  0.93299723  0.43619828  1
  Zn  Zn101  1  0.17759625  0.93135795  0.94671232  1
  Zn  Zn102  1  0.68308072  0.46738266  0.31297421  1
  Zn  Zn103  1  0.68403736  0.44141871  0.93599428  1
  Zn  Zn104  1  0.70004193  0.95667033  0.46065398  1
  Zn  Zn105  1  0.68973238  0.93699007  0.93441660  1
  Zn  Zn106  1  0.30388603  0.06971074  0.06169509  1
  Zn  Zn107  1  0.30647849  0.05176181  0.57008297  1
  Zn  Zn108  1  0.32608949  0.58589555  0.05961362  1
  Zn  Zn109  1  0.31001470  0.56262841  0.55889028  1
  Zn  Zn110  1  0.80710370  0.07152573  0.06636338  1
  Zn  Zn111  1  0.81886580  0.05703398  0.56537397  1
  Zn  Zn112  1  0.81786209  0.55426652  0.06221846  1
  Zn  Zn113  1  0.81241916  0.55938153  0.56575434  1
  Zn  Zn114  1  0.43697457  0.42049285  0.16769377  1
  Zn  Zn115  1  0.43814851  0.44517883  0.68669721  1
  Zn  Zn116  1  0.45358630  0.93372082  0.19392788  1
  Zn  Zn117  1  0.43999451  0.92926852  0.68748127  1
  Zn  Zn118  1  0.94028220  0.43149042  0.18680411  1
  Zn  Zn119  1  0.93335398  0.43339329  0.68471510  1
  Zn  Zn120  1  0.93268521  0.93150302  0.19232994  1
  Zn  Zn121  1  0.93417169  0.94032132  0.68680265  1
  Zn  Zn122  1  0.05821680  0.06017693  0.31588321  1
  Zn  Zn123  1  0.12795680  0.10321038  0.75742108  1
  Zn  Zn124  1  0.06245250  0.56067242  0.30672962  1
  Zn  Zn125  1  0.05443208  0.55484212  0.81555241  1
  Zn  Zn126  1  0.55749347  0.06639572  0.31444194  1
  Zn  Zn127  1  0.57339832  0.07746620  0.80307870  1
  Zn  Zn128  1  0.49779245  0.58519217  0.20901099  1
  Zn  Zn129  1  0.56265074  0.55736258  0.80702481  1
  Zn  Zn130  1  0.43557499  0.18813492  0.44040152  1
  Zn  Zn131  1  0.40606093  0.18842649  0.88725310  1
  Zn  Zn132  1  0.44698582  0.68149087  0.42862313  1
  Zn  Zn133  1  0.43927387  0.72876447  0.96394347  1
  Zn  Zn134  1  0.93731464  0.18667771  0.43177190  1
  Zn  Zn135  1  0.93574707  0.18551425  0.94238678  1
  Zn  Zn136  1  0.89992708  0.72681078  0.40854358  1
  Zn  Zn137  1  0.93392822  0.68264423  0.94292276  1
  Zn  Zn138  1  0.09389028  0.30706306  0.07276830  1
  Zn  Zn139  1  0.06811800  0.31068854  0.56710235  1
  Zn  Zn140  1  0.06623253  0.80666959  0.07065938  1
  Zn  Zn141  1  0.06050471  0.80537796  0.56494985  1
  Zn  Zn142  1  0.55183882  0.31058024  0.06438082  1
  Zn  Zn143  1  0.56210787  0.31053636  0.56892429  1
  Zn  Zn144  1  0.55749446  0.81734878  0.04545961  1
  Zn  Zn145  1  0.56624196  0.81914521  0.57268269  1
  O  O146  1  0.11671574  0.10954903  0.12433549  1
  O  O147  1  0.11417132  0.10061932  0.61910975  1
  O  O148  1  0.10552734  0.60676509  0.14804348  1
  O  O149  1  0.11564426  0.61459888  0.62503734  1
  O  O150  1  0.61861938  0.11733018  0.10758462  1
  O  O151  1  0.62124793  0.15925496  0.59596496  1
  O  O152  1  0.63039038  0.61411588  0.10828359  1
  O  O153  1  0.62194607  0.62126798  0.62380009  1
  O  O154  1  0.41088063  0.38672788  0.37212753  1
  O  O155  1  0.38441859  0.38910094  0.88282762  1
  O  O156  1  0.36526235  0.88352302  0.39026459  1
  O  O157  1  0.37513550  0.90770363  0.83777107  1
  O  O158  1  0.89740417  0.36484211  0.38169003  1
  O  O159  1  0.88828703  0.36436385  0.89150087  1
  O  O160  1  0.86227833  0.88218032  0.36195468  1
  O  O161  1  0.88396413  0.88778308  0.86519228  1
  O  O162  1  0.25141673  0.00871066  0.36882507  1
  O  O163  1  0.26951673  0.00288667  0.90956327  1
  O  O164  1  0.24779999  0.51907670  0.37549688  1
  O  O165  1  0.25053622  0.50611843  0.86298537  1
  O  O166  1  0.76490403  0.01228519  0.36608592  1
  O  O167  1  0.76706078  0.00426947  0.88086343  1
  O  O168  1  0.75019728  0.52127993  0.39002190  1
  O  O169  1  0.70576408  0.54100320  0.87488898  1
  O  O170  1  0.24184663  0.52305762  0.12439900  1
  O  O171  1  0.24030347  0.50257841  0.63443409  1
  O  O172  1  0.24159440  0.99529072  0.13144883  1
  O  O173  1  0.22775857  0.98002809  0.61585227  1
  O  O174  1  0.73823826  0.49157852  0.11679739  1
  O  O175  1  0.74697829  0.48152658  0.61914007  1
  O  O176  1  0.73197242  1.00002409  0.11686240  1
  O  O177  1  0.75745878  0.98615880  0.62886771  1
  O  O178  1  0.00573668  0.36875297  0.26519112  1
  O  O179  1  0.01156789  0.36095080  0.73710070  1
  O  O180  1  0.01280442  0.86996677  0.24621104  1
  O  O181  1  0.00539263  0.86615201  0.75931530  1
  O  O182  1  0.48863368  0.34293882  0.24196946  1
  O  O183  1  0.49839746  0.37761439  0.76244414  1
  O  O184  1  0.52111365  0.85986915  0.24778714  1
  O  O185  1  0.50968513  0.86243946  0.75205894  1
  O  O186  1  0.48806349  0.12481309  0.24104209  1
  O  O187  1  0.51016400  0.13229812  0.72359110  1
  O  O188  1  0.54895422  0.68089332  0.23527271  1
  O  O189  1  0.50241959  0.63099600  0.73893076  1
  O  O190  1  0.99044272  0.13750768  0.25304127  1
  O  O191  1  1.01631557  0.13746013  0.73339788  1
  O  O192  1  0.98344409  0.61739128  0.24274969  1
  O  O193  1  0.99647538  0.62576493  0.74457622  1
  O  O194  1  0.36987281  0.25076464  -0.02363184  1
  O  O195  1  0.35713122  0.26337743  0.45468165  1
  O  O196  1  0.35085456  0.70667873  0.03194354  1
  O  O197  1  0.36919656  0.76341040  0.49826005  1
  O  O198  1  0.88288116  0.25884752  0.01666668  1
  O  O199  1  0.88134903  0.25043326  0.51108442  1
  O  O200  1  0.86042381  0.73791035  0.01614843  1
  O  O201  1  0.90690688  0.79047704  0.51162407  1
  O  O202  1  0.12419211  0.24969874  0.48577790  1
  O  O203  1  0.10142927  0.23504375  0.97917155  1
  O  O204  1  0.12874082  0.73587414  0.50234833  1
  O  O205  1  0.14863191  0.73176865  1.05846403  1
  O  O206  1  0.62701358  0.21488254  0.53894645  1
  O  O207  1  0.61943104  0.23948680  1.00091505  1
  O  O208  1  0.62382596  0.74093086  0.51225883  1
  O  O209  1  0.63834869  0.73374506  0.99748874  1
  O  O210  1  0.50143040  0.22715628  0.13273893  1
  O  O211  1  0.48057354  0.24007201  0.61575580  1
  O  O212  1  0.47937063  0.75738853  0.11081783  1
  O  O213  1  0.50255005  0.73827243  0.63125587  1
  O  O214  1  1.00655640  0.25197259  0.13962190  1
  O  O215  1  0.99570967  0.24067881  0.62598794  1
  O  O216  1  0.98792103  0.73244358  0.13012072  1
  O  O217  1  1.00073997  0.73620677  0.63852537  1
  O  O218  1  0.01325633  0.25581474  0.36969723  1
  O  O219  1  -0.00320736  0.23812069  0.85772413  1
  O  O220  1  0.00187160  0.73363440  0.37311216  1
  O  O221  1  -0.00681476  0.75946480  0.87537046  1
  O  O222  1  0.50543461  0.22858874  0.35749970  1
  O  O223  1  0.50136025  0.26664178  0.87628549  1
  O  O224  1  0.51474992  0.75807082  0.37999055  1
  O  O225  1  0.50043459  0.72881400  0.86511299  1
  O  O226  1  0.24839958  0.11598352  0.48851784  1
  O  O227  1  0.22277974  0.12852910  1.00601877  1
  O  O228  1  0.23546799  0.63037910  0.50063071  1
  O  O229  1  0.24080865  0.60684616  0.97600653  1
  O  O230  1  0.75836992  0.11828034  0.48562423  1
  O  O231  1  0.73735731  0.12884566  0.99357483  1
  O  O232  1  0.73907260  0.62533302  0.50629079  1
  O  O233  1  0.74629467  0.63022652  1.00085855  1
  O  O234  1  0.26495405  0.37769415  -0.01462348  1
  O  O235  1  0.24462078  0.38027018  0.51860721  1
  O  O236  1  0.24571269  0.87023184  0.01766351  1
  O  O237  1  0.25405595  0.86547780  0.50657780  1
  O  O238  1  0.76517575  0.37983329  -0.01413701  1
  O  O239  1  0.74622675  0.36654008  0.50471484  1
  O  O240  1  0.74309373  0.85517429  0.00172100  1
  O  O241  1  0.74686131  0.87439192  0.52110435  1
  O  O242  1  0.13259724  0.48551110  0.25038015  1
  O  O243  1  0.12718253  0.49220181  0.74321551  1
  O  O244  1  0.13044862  0.99510808  0.24559908  1
  O  O245  1  0.11558498  0.98123382  0.73636829  1
  O  O246  1  0.61685724  0.51344757  0.22646688  1
  O  O247  1  0.61763932  0.48347319  0.73451970  1
  O  O248  1  0.63035586  1.01222744  0.23639537  1
  O  O249  1  0.61429904  0.99322261  0.74069220  1
  O  O250  1  0.36920425  0.00321710  0.26073431  1
  O  O251  1  0.36796744  -0.03977616  0.77739206  1
  O  O252  1  0.44943252  0.49253330  0.25509555  1
  O  O253  1  0.36207359  0.50183578  0.75762874  1
  O  O254  1  0.87897327  0.01733849  0.24787510  1
  O  O255  1  0.88164639  0.01310942  0.76145384  1
  O  O256  1  0.86800363  0.50212698  0.24249551  1
  O  O257  1  0.88475558  0.51170894  0.74700829  1
  O  O258  1  0.12644228  0.36335257  0.36976508  1
  O  O259  1  0.12590491  0.36634024  0.86814058  1
  O  O260  1  0.13265804  0.87619313  0.35725593  1
  O  O261  1  0.11447500  0.88306072  0.86432337  1
  O  O262  1  0.58785071  0.39409135  0.35358519  1
  O  O263  1  0.61287686  0.38322336  0.86347158  1
  O  O264  1  0.64519780  0.90979513  0.36387545  1
  O  O265  1  0.60886564  0.89532715  0.86490907  1
  O  O266  1  0.38502687  0.11210368  0.12780224  1
  O  O267  1  0.36909264  0.12351501  0.63337497  1
  O  O268  1  0.39385093  0.62249163  0.15478749  1
  O  O269  1  0.38810347  0.62348808  0.62596772  1
  O  O270  1  0.87684723  0.13888725  0.13510711  1
  O  O271  1  0.88830794  0.13527475  0.62193668  1
  O  O272  1  0.87945024  0.62475415  0.13455599  1
  O  O273  1  0.88812076  0.62720092  0.62376135  1
  O  O274  1  0.19788880  0.26379821  0.10549975  1
  O  O275  1  0.25105925  0.26194774  0.63475233  1
  O  O276  1  0.27891351  0.77344046  0.14445802  1
  O  O277  1  0.24037662  0.76135449  0.61309353  1
  O  O278  1  0.75834482  0.24940054  0.12691623  1
  O  O279  1  0.76640264  0.25820608  0.62855382  1
  O  O280  1  0.75585995  0.74559933  0.12875390  1
  O  O281  1  0.75301828  0.76597332  0.63452663  1
  O  O282  1  0.23721977  0.23223615  0.36975273  1
  O  O283  1  0.23258870  0.25134163  0.87587731  1
  O  O284  1  0.25192161  0.74065214  0.38861372  1
  O  O285  1  0.25404802  0.73682041  0.87993542  1
  O  O286  1  0.74455847  0.23908394  0.37478139  1
  O  O287  1  0.76515641  0.23419030  0.87281697  1
  O  O288  1  0.78761014  0.72262013  0.39712377  1
  O  O289  1  0.76655658  0.75317504  0.88398294  1
  O  O290  1  0.00361584  0.10812070  0.00443695  1
  O  O291  1  0.00261138  0.12866738  0.50926307  1
  O  O292  1  -0.00730799  0.61273557  0.01924004  1
  O  O293  1  0.01437864  0.61670571  0.50845877  1
  O  O294  1  0.50536416  0.12654618  0.00855353  1
  O  O295  1  0.48495401  0.11472438  0.51426488  1
  O  O296  1  0.51768694  0.61653268  -0.01199640  1
  O  O297  1  0.50994724  0.62547130  0.51470409  1
  O  O298  1  0.50896886  0.39386785  0.51418989  1
  O  O299  1  0.49574433  0.38436114  0.98508025  1
  O  O300  1  0.48247978  0.88646635  0.51732103  1
  O  O301  1  0.47190326  0.84082619  0.97456934  1
  O  O302  1  1.01472518  0.38216454  0.48909546  1
  O  O303  1  1.00948314  0.37847310  1.01686709  1
  O  O304  1  0.96391000  0.84583462  0.51014152  1
  O  O305  1  1.00989558  0.88247267  0.99610875  1
  O  O306  1  0.50423804  0.51589284  0.40123496  1
  O  O307  1  0.49276782  0.49733861  0.88047473  1
  O  O308  1  0.48466785  1.01129159  0.39200517  1
  O  O309  1  0.48529462  1.03328130  0.87417024  1
  O  O310  1  1.00956535  0.48500356  0.38101257  1
  O  O311  1  1.01810604  0.49673481  0.90483889  1
  O  O312  1  0.98328792  0.99596063  0.36854432  1
  O  O313  1  0.98174761  0.99140070  0.89530584  1
  O  O314  1  0.00492520  -0.00729307  0.11796305  1
  O  O315  1  0.00051584  0.00857627  0.62309672  1
  O  O316  1  0.00368107  0.50485511  0.12248795  1
  O  O317  1  0.00951440  0.50181158  0.61769590  1
  O  O318  1  0.51482597  0.01253091  0.13001038  1
  O  O319  1  0.48494413  0.01220003  0.61777203  1
  O  O320  1  0.50353704  0.50307329  0.10517483  1
  O  O321  1  0.50756140  0.51386188  0.62277223  1
  O  O322  1  0.25122646  0.36699063  0.27229979  1
  O  O323  1  0.23823046  0.38532962  0.74430991  1
  O  O324  1  0.24787259  0.88768721  0.24523698  1
  O  O325  1  0.23249193  0.86254471  0.73779751  1
  O  O326  1  0.73394936  0.37432326  0.27405460  1
  O  O327  1  0.73802275  0.37018300  0.76176790  1
  O  O328  1  0.75157276  0.89196041  0.23997455  1
  O  O329  1  0.72859725  0.87767152  0.76061514  1
  O  O330  1  0.25349419  0.11237251  0.24479323  1
  O  O331  1  0.23721104  0.10391102  0.75405134  1
  O  O332  1  0.24252583  0.63903717  0.25951261  1
  O  O333  1  0.24852999  0.61960657  0.75450315  1
  O  O334  1  0.76485014  0.13069588  0.25452058  1
  O  O335  1  0.73593824  0.12515710  0.76579169  1
  O  O336  1  0.75491714  0.62307761  0.26779112  1
  O  O337  1  0.76929486  0.62671635  0.74421490  1
  O  O338  1  0.35742321  0.11432494  0.36691111  1
  O  O339  1  0.41643342  0.07292274  0.86334935  1
  O  O340  1  0.36381905  0.63093655  0.37214213  1
  O  O341  1  0.36378713  0.61500957  0.86716697  1
  O  O342  1  0.86850344  0.12582647  0.36299656  1
  O  O343  1  0.86444827  0.11248370  0.88479144  1
  O  O344  1  0.87760827  0.60820667  0.35998942  1
  O  O345  1  0.87953320  0.61690955  0.86779316  1
  O  O346  1  0.13674013  0.39007359  0.14808320  1
  O  O347  1  0.13334447  0.38376729  0.63303095  1
  O  O348  1  0.13547718  0.88751360  0.13620032  1
  O  O349  1  0.12273893  0.87829663  0.63052122  1
  O  O350  1  0.61509340  0.38540291  0.12187590  1
  O  O351  1  0.64167663  0.37784316  0.63059723  1
  O  O352  1  0.62049827  0.88882103  0.10894252  1
  O  O353  1  0.63539300  0.87446206  0.64250306  1
  O  O354  1  0.12149110  0.26219062  0.25995715  1
  O  O355  1  0.11560739  0.25645780  0.76513361  1
  O  O356  1  0.12586113  0.76518277  0.24267853  1
  O  O357  1  0.11097140  0.76057678  0.74859947  1
  O  O358  1  0.61173130  0.23507711  0.24563071  1
  O  O359  1  0.61155966  0.27177425  0.73823031  1
  O  O360  1  0.66230104  0.76804772  0.28247310  1
  O  O361  1  0.61131696  0.75194578  0.75498215  1
  O  O362  1  0.37552529  0.23031908  0.25731774  1
  O  O363  1  0.37444272  0.23581060  0.78057744  1
  O  O364  1  0.39120228  0.75945997  0.24357622  1
  O  O365  1  0.39433310  0.75459403  0.75002594  1
  O  O366  1  0.88310903  0.24715594  0.24005372  1
  O  O367  1  0.89207926  0.25265202  0.73618805  1
  O  O368  1  0.86969542  0.73353191  0.24055470  1
  O  O369  1  0.89127451  0.73221247  0.75187483  1
  O  O370  1  0.39113616  0.50333267  0.51051466  1
  O  O371  1  0.39003623  0.50964989  0.99268582  1
  O  O372  1  0.37309250  0.98911767  0.49465071  1
  O  O373  1  0.32684991  1.00527849  0.96092875  1
  O  O374  1  0.89348722  0.50392291  0.50453477  1
  O  O375  1  0.89122346  0.47855065  1.00950032  1
  O  O376  1  0.87196146  0.99338447  0.48291459  1
  O  O377  1  0.88457099  0.99805793  1.01627536  1
  O  O378  1  0.11375564  0.00832913  0.00558850  1
  O  O379  1  0.11078943  -0.01693548  0.50487013  1
  O  O380  1  0.11947733  0.49124850  0.02635821  1
  O  O381  1  0.12214967  0.51150563  0.50788033  1
  O  O382  1  0.62042757  0.00954304  0.00266317  1
  O  O383  1  0.60145165  -0.00201239  0.50521998  1
  O  O384  1  0.61674660  0.50376073  0.00841422  1
  O  O385  1  0.61481086  0.51566478  0.51910959  1
  O  O386  1  0.38094937  0.36109240  0.09538135  1
  O  O387  1  0.35982704  0.37984079  0.63630529  1
  O  O388  1  0.36539425  0.90168445  0.12370186  1
  O  O389  1  0.35436854  0.88191814  0.61669902  1
  O  O390  1  0.87407961  0.36161020  0.12247452  1
  O  O391  1  0.86580193  0.36487698  0.62116470  1
  O  O392  1  0.87280788  0.85302965  0.13182071  1
  O  O393  1  0.85577771  0.86714619  0.65896962  1
  O  O394  1  0.13346115  0.13176954  0.37077773  1
  O  O395  1  0.12237745  0.12962141  0.87979275  1
  O  O396  1  0.12853876  0.62222986  0.38443332  1
  O  O397  1  0.13209471  0.62692641  0.86281045  1
  O  O398  1  0.64379837  0.11269668  0.37324683  1
  O  O399  1  0.63709586  0.12382360  0.88555332  1
  O  O400  1  0.63828316  0.63384529  0.39626381  1
  O  O401  1  0.64445417  0.59529264  0.88709429  1
