# generated using pymatgen
data_V73Zn73O256
_symmetry_space_group_name_H-M   'P 1'
_cell_length_a   16.89114352
_cell_length_b   16.87769454
_cell_length_c   16.83581176
_cell_angle_alpha   89.97091355
_cell_angle_beta   89.81035292
_cell_angle_gamma   89.91728663
_symmetry_Int_Tables_number   1
_chemical_formula_structural   V73Zn73O256
_chemical_formula_sum   'V73 Zn73 O256'
_cell_volume   4799.58126522
_cell_formula_units_Z   1
loop_
 _symmetry_equiv_pos_site_id
 _symmetry_equiv_pos_as_xyz
  1  'x, y, z'
loop_
 _atom_site_type_symbol
 _atom_site_label
 _atom_site_symmetry_multiplicity
 _atom_site_fract_x
 _atom_site_fract_y
 _atom_site_fract_z
 _atom_site_occupancy
  V  V0  1  0.00561045  0.12848508  0.62528683  1
  V  V1  1  0.00085350  0.61766682  0.11008187  1
  V  V2  1  0.24977720  0.61667916  0.37712808  1
  V  V3  1  0.36923133  0.63892822  0.24322781  1
  V  V4  1  0.39492213  0.38083925  -0.01051072  1
  V  V5  1  0.11494588  0.38120419  0.74848008  1
  V  V6  1  0.62388733  0.87432229  0.74364417  1
  V  V7  1  0.61632700  0.62268728  0.51498015  1
  V  V8  1  0.89525792  0.49579027  0.87826748  1
  V  V9  1  0.50827782  0.25669061  0.26068157  1
  V  V10  1  0.12320018  0.74872454  0.85460437  1
  V  V11  1  0.50754378  0.40951033  0.36812570  1
  V  V12  1  0.88446009  0.37725960  0.00127118  1
  V  V13  1  0.73304965  0.87550819  0.12659554  1
  V  V14  1  -0.00193445  0.49078874  0.51137861  1
  V  V15  1  0.56065885  0.57288062  -0.04965486  1
  V  V16  1  0.63298092  0.01583186  0.61785044  1
  V  V17  1  0.12170885  0.49525583  0.11415718  1
  V  V18  1  0.74761136  0.36850822  0.12400619  1
  V  V19  1  0.76384248  0.75160734  0.50716646  1
  V  V20  1  0.12764452  0.11563659  0.00655421  1
  V  V21  1  -0.00652323  0.11349983  0.12511922  1
  V  V22  1  0.00288978  0.74871594  0.25585715  1
  V  V23  1  0.25585971  0.00592539  0.24750433  1
  V  V24  1  0.11257848  0.25815179  0.87199743  1
  V  V25  1  0.25047307  0.76123707  0.49468934  1
  V  V26  1  0.11932841  0.88810680  0.24054101  1
  V  V27  1  0.39432647  0.74573446  0.61887366  1
  V  V28  1  -0.01170935  -0.01453132  -0.01096066  1
  V  V29  1  0.24174258  0.24917731  0.48389866  1
  V  V30  1  0.38512047  0.38652842  0.48922830  1
  V  V31  1  0.26168865  0.36675076  0.62867870  1
  V  V32  1  0.25067762  0.87263879  0.63880984  1
  V  V33  1  0.74517514  0.63130438  0.37804420  1
  V  V34  1  0.00662079  -0.02058835  0.49623947  1
  V  V35  1  0.62174970  0.36726255  0.76168959  1
  V  V36  1  0.87515840  0.49415544  0.37856256  1
  V  V37  1  0.87320785  0.12413749  0.26089538  1
  V  V38  1  0.61815508  0.75752884  0.87831563  1
  V  V39  1  0.00015980  0.63896672  0.63137144  1
  V  V40  1  0.87865905  0.63253881  0.74907653  1
  V  V41  1  0.11922212  -0.01277490  0.64136356  1
  V  V42  1  0.51190426  0.12480545  0.12432575  1
  V  V43  1  -0.00199719  0.24883145  0.24319327  1
  V  V44  1  0.87116467  0.24093890  0.60417813  1
  V  V45  1  0.26290425  0.62690119  0.88746021  1
  V  V46  1  0.36815143  0.13260849  0.26731479  1
  V  V47  1  0.74969238  0.74664535  0.00030426  1
  V  V48  1  0.25371990  0.49068850  0.24771587  1
  V  V49  1  0.61586828  0.50181316  0.12673721  1
  V  V50  1  0.76901080  0.87430152  0.62292573  1
  V  V51  1  0.62446361  0.22880011  0.87906858  1
  V  V52  1  0.75525934  0.49260389  0.75369765  1
  V  V53  1  0.87944798  0.75724334  0.11935533  1
  V  V54  1  0.00095953  0.37057353  0.37553830  1
  V  V55  1  0.49667015  0.64171468  0.12676848  1
  V  V56  1  0.50273495  0.00428462  0.01118717  1
  V  V57  1  0.12383755  0.61950001  0.50391498  1
  V  V58  1  0.88056623  -0.02163679  0.37891961  1
  V  V59  1  0.48772245  0.88691446  0.86911937  1
  V  V60  1  0.87750992  0.62043433  0.24929099  1
  V  V61  1  0.12478490  0.37075983  0.25292971  1
  V  V62  1  0.74018305  -0.00729592  0.25381469  1
  V  V63  1  0.76116977  0.00188085  0.77074358  1
  V  V64  1  0.87847311  0.13097786  0.76526957  1
  V  V65  1  0.75149341  0.23958141  -0.00336845  1
  V  V66  1  0.74431683  0.49592536  0.24787430  1
  V  V67  1  0.24644603  0.26498084  0.00194026  1
  V  V68  1  0.26282703  0.50852019  0.74655064  1
  V  V69  1  0.35347009  0.88273580  0.03183321  1
  V  V70  1  0.37128782  0.25062352  0.12274173  1
  V  V71  1  0.43851170  0.01243035  0.46673545  1
  V  V72  1  0.75887442  0.37123098  0.61139985  1
  Zn  Zn73  1  0.49181885  0.13052814  0.63474711  1
  Zn  Zn74  1  0.58685407  0.79346362  0.31403742  1
  Zn  Zn75  1  0.48293014  0.88257165  0.37382014  1
  Zn  Zn76  1  0.74970846  0.62346273  0.87871692  1
  Zn  Zn77  1  0.28026655  0.01139880  0.75184755  1
  Zn  Zn78  1  0.24563411  0.11943651  0.87283672  1
  Zn  Zn79  1  0.68277790  0.18427258  0.45613385  1
  Zn  Zn80  1  0.11390076  0.75679107  0.38084162  1
  Zn  Zn81  1  0.61667021  0.49595851  0.62609350  1
  Zn  Zn82  1  0.18626701  0.18699194  0.18588273  1
  Zn  Zn83  1  0.18817973  0.18821192  0.68710628  1
  Zn  Zn84  1  0.17940870  0.67434416  0.18949559  1
  Zn  Zn85  1  0.18469108  0.68892132  0.68762384  1
  Zn  Zn86  1  0.68796734  0.18652408  0.29076281  1
  Zn  Zn87  1  0.69968852  0.18849089  0.69506216  1
  Zn  Zn88  1  0.68612463  0.68559295  0.18101059  1
  Zn  Zn89  1  0.69096798  0.69018690  0.68752961  1
  Zn  Zn90  1  0.32264038  0.31462726  0.31909321  1
  Zn  Zn91  1  0.30446814  0.31386106  0.82122666  1
  Zn  Zn92  1  0.29563247  0.81479797  0.31091771  1
  Zn  Zn93  1  0.32233315  0.78998528  0.80331167  1
  Zn  Zn94  1  0.81210639  0.30941726  0.32163530  1
  Zn  Zn95  1  0.81649378  0.30962758  0.81558409  1
  Zn  Zn96  1  0.81153530  0.80855602  0.30964501  1
  Zn  Zn97  1  0.80896731  0.81086511  0.81366758  1
  Zn  Zn98  1  0.18568277  0.43400686  0.44111319  1
  Zn  Zn99  1  0.19255413  0.44410762  0.92806035  1
  Zn  Zn100  1  0.18507705  0.94396957  0.42105981  1
  Zn  Zn101  1  0.22086535  0.92131965  0.90227560  1
  Zn  Zn102  1  0.68337516  0.44284474  0.43735945  1
  Zn  Zn103  1  0.69298792  0.43515554  0.93886016  1
  Zn  Zn104  1  0.68542369  0.93874095  0.43588889  1
  Zn  Zn105  1  0.68527290  0.93621702  0.94500729  1
  Zn  Zn106  1  0.31187487  0.05925987  0.06947234  1
  Zn  Zn107  1  0.29716793  0.06190438  0.55892114  1
  Zn  Zn108  1  0.31393565  0.55488563  0.06391917  1
  Zn  Zn109  1  0.31290777  0.56119035  0.57136092  1
  Zn  Zn110  1  0.81510809  0.05524755  0.06713846  1
  Zn  Zn111  1  0.81682692  0.05721061  0.56015180  1
  Zn  Zn112  1  0.81092981  0.56140994  0.06034315  1
  Zn  Zn113  1  0.81498551  0.56128945  0.56559257  1
  Zn  Zn114  1  0.43458810  0.43337220  0.18254887  1
  Zn  Zn115  1  0.43448403  0.42745278  0.69634390  1
  Zn  Zn116  1  0.42694829  0.91327039  0.22255246  1
  Zn  Zn117  1  0.45669743  0.91733174  0.63142558  1
  Zn  Zn118  1  0.93616729  0.43540069  0.18566904  1
  Zn  Zn119  1  0.93197770  0.42977512  0.68842906  1
  Zn  Zn120  1  0.94023693  0.93664390  0.18710834  1
  Zn  Zn121  1  0.94016947  0.93929869  0.69756816  1
  Zn  Zn122  1  0.08263608  0.06046658  0.32672434  1
  Zn  Zn123  1  0.06430517  0.06794702  0.81631277  1
  Zn  Zn124  1  0.06553640  0.55755340  0.31503264  1
  Zn  Zn125  1  0.07411690  0.56596697  0.81488359  1
  Zn  Zn126  1  0.55748539  0.06737522  0.31652034  1
  Zn  Zn127  1  0.56237573  0.05897685  0.80661845  1
  Zn  Zn128  1  0.57159834  0.59796678  0.30499722  1
  Zn  Zn129  1  0.55817901  0.55943233  0.78938051  1
  Zn  Zn130  1  0.46588040  0.21478998  0.47716107  1
  Zn  Zn131  1  0.44182194  0.19441875  0.93889233  1
  Zn  Zn132  1  0.43255100  0.68025171  0.43461476  1
  Zn  Zn133  1  0.42351974  0.70708783  0.94172367  1
  Zn  Zn134  1  0.96574733  0.16959182  0.43223353  1
  Zn  Zn135  1  0.93773260  0.19319848  0.94627144  1
  Zn  Zn136  1  0.93456633  0.68150364  0.44116203  1
  Zn  Zn137  1  0.93902891  0.69309792  0.93369606  1
  Zn  Zn138  1  0.06289076  0.31069906  0.06803664  1
  Zn  Zn139  1  0.06802802  0.31249076  0.56847312  1
  Zn  Zn140  1  0.12947883  0.86494276  0.02801170  1
  Zn  Zn141  1  0.06453151  0.80903681  0.56555246  1
  Zn  Zn142  1  0.56859346  0.30754784  0.06555772  1
  Zn  Zn143  1  0.57103688  0.31812534  0.56707086  1
  Zn  Zn144  1  0.55556266  0.82119889  0.05497515  1
  Zn  Zn145  1  0.55545151  0.80269953  0.49482945  1
  O  O146  1  0.10865870  0.13663682  0.11401517  1
  O  O147  1  0.11040164  0.10889220  0.63123109  1
  O  O148  1  0.10900918  0.61033511  0.12538472  1
  O  O149  1  0.10990405  0.62601885  0.61879088  1
  O  O150  1  0.60747000  0.12883041  0.12640303  1
  O  O151  1  0.63818111  0.11708422  0.63281023  1
  O  O152  1  0.60459281  0.61904909  0.12355202  1
  O  O153  1  0.63084490  0.62072868  0.62212103  1
  O  O154  1  0.38897883  0.38783462  0.37975156  1
  O  O155  1  0.37749173  0.36700967  0.88923027  1
  O  O156  1  0.37886401  0.88429100  0.32784430  1
  O  O157  1  0.39051230  0.87350880  0.85239638  1
  O  O158  1  0.88291718  0.38737448  0.36881847  1
  O  O159  1  0.87554285  0.38709169  0.88472297  1
  O  O160  1  0.88180007  0.87944326  0.36768984  1
  O  O161  1  0.91185409  0.86748065  0.84703346  1
  O  O162  1  0.20309440  0.02556318  0.33968907  1
  O  O163  1  0.27562067  0.00709564  0.86604401  1
  O  O164  1  0.24108865  0.50722099  0.36237151  1
  O  O165  1  0.24731507  0.51767690  0.86113285  1
  O  O166  1  0.76507970  -0.01431084  0.36220518  1
  O  O167  1  0.75653821  -0.01240429  0.86969223  1
  O  O168  1  0.75893686  0.50262447  0.36722059  1
  O  O169  1  0.75552454  0.50479649  0.86581391  1
  O  O170  1  0.23221080  0.50758468  0.13849136  1
  O  O171  1  0.25056705  0.48627234  0.63772539  1
  O  O172  1  0.23057078  1.02742674  0.15159606  1
  O  O173  1  0.23275588  0.98647956  0.62544637  1
  O  O174  1  0.73939646  0.50154635  0.13034634  1
  O  O175  1  0.76862979  0.48214263  0.63738015  1
  O  O176  1  0.75526046  0.98247100  0.13641990  1
  O  O177  1  0.75060436  0.98667491  0.63252778  1
  O  O178  1  0.00338955  0.36985672  0.25496590  1
  O  O179  1  0.01519629  0.37931339  0.74745237  1
  O  O180  1  0.00195063  0.85283065  0.24358657  1
  O  O181  1  -0.03377488  0.86878985  0.79239876  1
  O  O182  1  0.49257569  0.36848629  0.26179711  1
  O  O183  1  0.52342111  0.37283870  0.74073162  1
  O  O184  1  0.52777756  0.87770162  0.25646332  1
  O  O185  1  0.51914090  0.88341290  0.75619282  1
  O  O186  1  0.48920313  0.13382276  0.23994238  1
  O  O187  1  0.50959115  0.13524200  0.74662485  1
  O  O188  1  0.47848543  0.63068029  0.23893471  1
  O  O189  1  0.49145438  0.58325271  0.69961414  1
  O  O190  1  0.99566000  0.12982878  0.23928050  1
  O  O191  1  0.98731980  0.11267443  0.73732592  1
  O  O192  1  0.98926526  0.62410697  0.24891472  1
  O  O193  1  0.99354285  0.61605342  0.73906649  1
  O  O194  1  0.36272293  0.25363663  0.00236571  1
  O  O195  1  0.36187249  0.27881147  0.49100418  1
  O  O196  1  0.36582949  0.78761467  -0.00492126  1
  O  O197  1  0.35242672  0.75013058  0.49734815  1
  O  O198  1  0.86341890  0.26860662  -0.00513538  1
  O  O199  1  0.88839714  0.23946196  0.50670130  1
  O  O200  1  0.86604427  0.74562557  0.00835046  1
  O  O201  1  0.86426441  0.74581574  0.50410188  1
  O  O202  1  0.14083803  0.25922587  0.50243835  1
  O  O203  1  0.13383684  0.25294176  0.99708438  1
  O  O204  1  0.12903415  0.73696275  0.49900698  1
  O  O205  1  0.18859155  0.74407540  1.04369696  1
  O  O206  1  0.58728133  0.23491436  0.49212638  1
  O  O207  1  0.64135108  0.25109926  0.99206644  1
  O  O208  1  0.64721822  0.72875673  0.50681239  1
  O  O209  1  0.63280802  0.75860808  0.98835189  1
  O  O210  1  0.49319688  0.24088765  0.12839340  1
  O  O211  1  0.49213212  0.24035706  0.59542248  1
  O  O212  1  0.50086574  0.74000441  0.11958065  1
  O  O213  1  0.48772834  0.78136512  0.59240828  1
  O  O214  1  0.99383116  0.24590513  0.13789638  1
  O  O215  1  0.99410988  0.23430454  0.62056671  1
  O  O216  1  0.99078272  0.72785431  0.13696428  1
  O  O217  1  0.99630021  0.73760443  0.62675257  1
  O  O218  1  -0.01162594  0.26757936  0.36469717  1
  O  O219  1  0.01385530  0.25744702  0.88569111  1
  O  O220  1  -0.00602363  0.73853505  0.36038944  1
  O  O221  1  0.02482972  0.74076097  0.88110900  1
  O  O222  1  0.49589444  0.24672714  0.35951580  1
  O  O223  1  0.52562204  0.24680854  0.88370141  1
  O  O224  1  0.49564692  0.76553535  0.39685871  1
  O  O225  1  0.50941132  0.76944313  0.88326671  1
  O  O226  1  0.25847664  0.15245675  0.50845346  1
  O  O227  1  0.23509252  0.12736486  1.00218316  1
  O  O228  1  0.23985755  0.62571188  0.49526205  1
  O  O229  1  0.25615559  0.61708336  0.98751286  1
  O  O230  1  0.76187766  0.14563036  0.52242208  1
  O  O231  1  0.76367090  0.14217121  1.01232936  1
  O  O232  1  0.75700785  0.63327088  0.49713168  1
  O  O233  1  0.74826054  0.63969137  1.00067462  1
  O  O234  1  0.25381986  0.36551103  -0.00327160  1
  O  O235  1  0.25039056  0.37344231  0.51448245  1
  O  O236  1  0.25139243  0.90175489  0.01837955  1
  O  O237  1  0.23469669  0.86126743  0.49107691  1
  O  O238  1  0.75789245  0.37277804  0.00927575  1
  O  O239  1  0.75103646  0.38082115  0.51276175  1
  O  O240  1  0.74770559  0.86533419  0.01709799  1
  O  O241  1  0.75045989  0.86332750  0.51343421  1
  O  O242  1  0.13081292  0.49123099  0.24365789  1
  O  O243  1  0.13680958  0.48451494  0.75795412  1
  O  O244  1  0.08990153  0.98431592  0.24108502  1
  O  O245  1  0.11182651  0.98787876  0.74092272  1
  O  O246  1  0.63827911  0.51144829  0.24162445  1
  O  O247  1  0.63961230  0.48803501  0.74498296  1
  O  O248  1  0.64298986  1.00377175  0.25581884  1
  O  O249  1  0.64674021  0.99068204  0.75130933  1
  O  O250  1  0.36204912  0.02064917  0.24728453  1
  O  O251  1  0.38182129  0.00741693  0.69468375  1
  O  O252  1  0.35574025  0.50277017  0.23831259  1
  O  O253  1  0.36168901  0.49266243  0.75553324  1
  O  O254  1  0.87855790  0.00358146  0.26074689  1
  O  O255  1  0.86690226  0.00934166  0.75164469  1
  O  O256  1  0.86883490  0.50500601  0.25586007  1
  O  O257  1  0.87352308  0.49863084  0.76397495  1
  O  O258  1  0.11199709  0.38424858  0.36404473  1
  O  O259  1  0.13375450  0.36544835  0.86621440  1
  O  O260  1  0.12832403  0.86645574  0.35035337  1
  O  O261  1  0.14354920  0.84188916  0.91019448  1
  O  O262  1  0.60543461  0.38617058  0.37784254  1
  O  O263  1  0.62878893  0.37666473  0.86368204  1
  O  O264  1  0.60443168  0.86835283  0.40563073  1
  O  O265  1  0.62089336  0.87239539  0.86705909  1
  O  O266  1  0.37827169  0.13960301  0.12883301  1
  O  O267  1  0.37741932  0.07610003  0.64808856  1
  O  O268  1  0.38412220  0.61968411  0.13119649  1
  O  O269  1  0.38140762  0.64633711  0.60118708  1
  O  O270  1  0.88777839  0.11899297  0.13858456  1
  O  O271  1  0.88249994  0.13236155  0.63418066  1
  O  O272  1  0.88205059  0.62345193  0.13199963  1
  O  O273  1  0.88765546  0.61813739  0.63851749  1
  O  O274  1  0.25427607  0.24677003  0.10953123  1
  O  O275  1  0.25218856  0.26360318  0.62796968  1
  O  O276  1  0.23540755  0.73569454  0.10201914  1
  O  O277  1  0.24370768  0.76046913  0.61177140  1
  O  O278  1  0.74623074  0.26850727  0.11661172  1
  O  O279  1  0.76142665  0.26020476  0.62431503  1
  O  O280  1  0.75663262  0.75617926  0.12225799  1
  O  O281  1  0.75506168  0.76255549  0.62117363  1
  O  O282  1  0.24528836  0.26174579  0.38240772  1
  O  O283  1  0.24002223  0.24169529  0.89181011  1
  O  O284  1  0.24238516  0.73770740  0.38318720  1
  O  O285  1  0.24461742  0.73462191  0.86303053  1
  O  O286  1  0.73274664  0.25329488  0.37189078  1
  O  O287  1  0.74638703  0.25186410  0.89025373  1
  O  O288  1  0.75777373  0.74163505  0.38824356  1
  O  O289  1  0.74225552  0.74770601  0.88324697  1
  O  O290  1  0.00223359  0.12577175  0.01405753  1
  O  O291  1  -0.01140633  0.09914884  0.52487528  1
  O  O292  1  -0.00689261  0.62284350  0.01202499  1
  O  O293  1  0.00296792  0.61676464  0.51267511  1
  O  O294  1  0.48997722  0.11488670  0.00928416  1
  O  O295  1  0.46444378  0.10056354  0.51554444  1
  O  O296  1  0.49110337  0.62845887  0.00808551  1
  O  O297  1  0.51830746  0.62903588  0.49679342  1
  O  O298  1  0.49216741  0.38738169  0.48726669  1
  O  O299  1  0.49439198  0.36734007  1.00132293  1
  O  O300  1  0.47565636  0.92762964  0.51298439  1
  O  O301  1  0.48642967  0.88813661  0.98987910  1
  O  O302  1  1.00712066  0.38608989  0.49539534  1
  O  O303  1  0.98300822  0.37266289  1.01103810  1
  O  O304  1  0.99637075  0.87980728  0.50703643  1
  O  O305  1  1.01485992  0.89009203  1.00958177  1
  O  O306  1  0.50624877  0.50773395  0.35469256  1
  O  O307  1  0.50925929  0.51573316  0.88783710  1
  O  O308  1  0.48325138  1.00400622  0.37228820  1
  O  O309  1  0.50002456  0.99130639  0.88094931  1
  O  O310  1  0.99181157  0.49325305  0.38139201  1
  O  O311  1  0.99366446  0.50292973  0.87501633  1
  O  O312  1  0.99342358  0.99369418  0.38901736  1
  O  O313  1  1.00589300  1.00334984  0.89030443  1
  O  O314  1  -0.00098371  0.01091906  0.11625205  1
  O  O315  1  0.00864083  -0.00804353  0.62122676  1
  O  O316  1  0.00691934  0.50794613  0.12796776  1
  O  O317  1  -0.00750124  0.49693076  0.61269526  1
  O  O318  1  0.49614969  0.01344326  0.11861526  1
  O  O319  1  0.53243925  0.00461598  0.64162176  1
  O  O320  1  0.51159407  0.50270965  0.13193260  1
  O  O321  1  0.49670677  0.51948878  0.64791923  1
  O  O322  1  0.24298513  0.38518689  0.25627420  1
  O  O323  1  0.25041446  0.37885046  0.74272493  1
  O  O324  1  0.23573247  0.89950345  0.24646091  1
  O  O325  1  0.25632195  0.87424705  0.73928059  1
  O  O326  1  0.76061344  0.38611371  0.23483700  1
  O  O327  1  0.74936533  0.37998352  0.74752042  1
  O  O328  1  0.74919846  0.87864574  0.24059873  1
  O  O329  1  0.75181870  0.88290372  0.74415209  1
  O  O330  1  0.26385227  0.13721149  0.25385041  1
  O  O331  1  0.22421810  0.11178064  0.75849743  1
  O  O332  1  0.25233019  0.61329663  0.25533705  1
  O  O333  1  0.25185222  0.61089813  0.73707465  1
  O  O334  1  0.76737772  0.10688636  0.24495332  1
  O  O335  1  0.76439655  0.11062208  0.75542769  1
  O  O336  1  0.76250691  0.61588228  0.25556595  1
  O  O337  1  0.76527444  0.61350081  0.74747856  1
  O  O338  1  0.38071416  0.13543324  0.36317716  1
  O  O339  1  0.37597984  0.16018635  0.84043888  1
  O  O340  1  0.36160750  0.62702854  0.35796414  1
  O  O341  1  0.36427646  0.63875504  0.87185166  1
  O  O342  1  0.88434740  0.11123463  0.36319668  1
  O  O343  1  0.88723443  0.13149402  0.86441525  1
  O  O344  1  0.86749019  0.61388064  0.36836864  1
  O  O345  1  0.87803730  0.61290573  0.86487445  1
  O  O346  1  0.11619930  0.38737336  0.13784742  1
  O  O347  1  0.13622004  0.36892578  0.64349325  1
  O  O348  1  0.12481308  0.86152103  0.14250845  1
  O  O349  1  0.13377114  0.87973131  0.62528247  1
  O  O350  1  0.63882174  0.38847194  0.11740910  1
  O  O351  1  0.64513844  0.37327352  0.63527090  1
  O  O352  1  0.63414941  0.86738422  0.12816836  1
  O  O353  1  0.63880309  0.88217315  0.64146402  1
  O  O354  1  0.11537763  0.26220912  0.24313856  1
  O  O355  1  0.12678824  0.25785178  0.76607498  1
  O  O356  1  0.10854238  0.73996265  0.25070379  1
  O  O357  1  0.12375713  0.76133098  0.75366774  1
  O  O358  1  0.60639265  0.25067091  0.24049025  1
  O  O359  1  0.64260517  0.25917777  0.76756322  1
  O  O360  1  0.62571571  0.69966563  0.27288767  1
  O  O361  1  0.63689565  0.76494515  0.76154158  1
  O  O362  1  0.38182064  0.24713711  0.24279743  1
  O  O363  1  0.37173577  0.21342746  0.78396579  1
  O  O364  1  0.34780337  0.73481156  0.23643980  1
  O  O365  1  0.38900555  0.75206866  0.71991083  1
  O  O366  1  0.88067618  0.23228031  0.25815953  1
  O  O367  1  0.86863452  0.23399351  0.74364876  1
  O  O368  1  0.88071495  0.73764038  0.24202794  1
  O  O369  1  0.87276397  0.73072084  0.75711177  1
  O  O370  1  0.36198048  0.48513773  0.50199609  1
  O  O371  1  0.37614283  0.47856472  1.00898004  1
  O  O372  1  0.33683130  1.00066265  0.46924380  1
  O  O373  1  0.38334071  0.98934508  1.00831479  1
  O  O374  1  0.88888890  0.50581564  0.49070605  1
  O  O375  1  0.87074726  0.49398585  0.98582749  1
  O  O376  1  0.87934944  0.99350825  0.48514853  1
  O  O377  1  0.88749477  0.99526494  1.00240928  1
  O  O378  1  0.11547245  0.01713976  0.00207206  1
  O  O379  1  0.11047938  -0.00890572  0.50421541  1
  O  O380  1  0.13014486  0.48775925  0.01538924  1
  O  O381  1  0.10903665  0.50924989  0.49554942  1
  O  O382  1  0.60337831  -0.00678865  0.00167778  1
  O  O383  1  0.64137935  0.00562948  0.51795083  1
  O  O384  1  0.62497953  0.50998447  0.00451652  1
  O  O385  1  0.63587495  0.51361000  0.51403377  1
  O  O386  1  0.38022577  0.35733892  0.11418493  1
  O  O387  1  0.36738757  0.37460831  0.61861973  1
  O  O388  1  0.37101669  0.87789837  0.13043113  1
  O  O389  1  0.35185583  0.86484220  0.61281499  1
  O  O390  1  0.86062557  0.39010227  0.11096374  1
  O  O391  1  0.87080636  0.35396416  0.62581625  1
  O  O392  1  0.87212094  0.85900762  0.13202054  1
  O  O393  1  0.86765084  0.87732587  0.63135477  1
  O  O394  1  0.07108620  0.14750792  0.39145789  1
  O  O395  1  0.11766825  0.14022080  0.89394793  1
  O  O396  1  0.13089661  0.62587692  0.38495945  1
  O  O397  1  0.14114005  0.63931816  0.86916840  1
  O  O398  1  0.63890697  0.11892628  0.37096644  1
  O  O399  1  0.63205694  0.12979483  0.87362685  1
  O  O400  1  0.64468009  0.60804040  0.39808951  1
  O  O401  1  0.61462514  0.63243898  0.87621488  1
