# generated using pymatgen
data_V73Zn73O256
_symmetry_space_group_name_H-M   'P 1'
_cell_length_a   16.87888516
_cell_length_b   16.91425378
_cell_length_c   16.88177610
_cell_angle_alpha   90.17599106
_cell_angle_beta   89.73303336
_cell_angle_gamma   90.02326095
_symmetry_Int_Tables_number   1
_chemical_formula_structural   V73Zn73O256
_chemical_formula_sum   'V73 Zn73 O256'
_cell_volume   4819.56609222
_cell_formula_units_Z   1
loop_
 _symmetry_equiv_pos_site_id
 _symmetry_equiv_pos_as_xyz
  1  'x, y, z'
loop_
 _atom_site_type_symbol
 _atom_site_label
 _atom_site_symmetry_multiplicity
 _atom_site_fract_x
 _atom_site_fract_y
 _atom_site_fract_z
 _atom_site_occupancy
  V  V0  1  0.60092507  0.25180298  0.37279998  1
  V  V1  1  0.26470196  0.61884385  0.87437255  1
  V  V2  1  0.50156697  0.23671602  0.75435165  1
  V  V3  1  -0.00992617  0.63176542  0.12576462  1
  V  V4  1  0.14006855  0.49576262  0.64369162  1
  V  V5  1  0.13158344  0.74399750  0.38264222  1
  V  V6  1  0.75304854  0.13768710  0.37156745  1
  V  V7  1  0.49341305  -0.01187202  0.49046966  1
  V  V8  1  -0.00132380  0.37405111  0.34992592  1
  V  V9  1  0.61202958  0.36831200  0.24597315  1
  V  V10  1  0.12274150  0.76751680  0.86800681  1
  V  V11  1  0.23421894  0.24129932  0.00257728  1
  V  V12  1  0.48855033  0.50180067  0.00336172  1
  V  V13  1  0.87167475  0.37059201  0.01214318  1
  V  V14  1  0.13546839  0.62678935  0.50312851  1
  V  V15  1  0.75122686  0.12531576  0.87773767  1
  V  V16  1  0.39323938  0.13208539  0.23200636  1
  V  V17  1  0.62706102  0.49834040  0.12588621  1
  V  V18  1  0.74932254  0.49723484  0.25087611  1
  V  V19  1  0.62228391  0.50522929  0.61760211  1
  V  V20  1  0.76369989  -0.00576990  0.74979399  1
  V  V21  1  -0.00271293  0.13505796  0.11844304  1
  V  V22  1  0.62994755  0.12733628  0.49594609  1
  V  V23  1  0.62765338  0.74195077  0.87713210  1
  V  V24  1  0.74148934  0.50044557  0.74935861  1
  V  V25  1  0.02523981  0.25840808  0.75866877  1
  V  V26  1  -0.00584928  0.74951811  0.25560690  1
  V  V27  1  0.36913324  0.36252516  0.02539955  1
  V  V28  1  0.64119190  -0.02085409  0.60727138  1
  V  V29  1  0.12022117  0.87723495  0.25568516  1
  V  V30  1  0.75440075  0.24907025  0.01481247  1
  V  V31  1  0.50669759  0.87945562  0.88174764  1
  V  V32  1  0.24867445  0.88036529  0.12989390  1
  V  V33  1  0.62407762  0.24524401  0.88793794  1
  V  V34  1  0.86837245  0.50148072  0.38449363  1
  V  V35  1  0.13017871  0.00576746  0.62064379  1
  V  V36  1  0.87816196  0.14606359  0.24348024  1
  V  V37  1  0.87041991  0.14819417  0.74691723  1
  V  V38  1  -0.01032946  0.13168400  0.61161516  1
  V  V39  1  0.88250095  -0.00850642  0.38351471  1
  V  V40  1  0.11970284  0.12283961  0.48934764  1
  V  V41  1  0.49288423  0.74506227  0.75091170  1
  V  V42  1  0.49447147  0.63486580  0.60702727  1
  V  V43  1  0.24899398  0.75699768  -0.00006064  1
  V  V44  1  0.12148113  0.25578617  0.35920350  1
  V  V45  1  0.39574894  0.47601593  0.37681711  1
  V  V46  1  -0.00107270  0.49400778  -0.00255647  1
  V  V47  1  0.38129510  0.74571903  0.12869382  1
  V  V48  1  0.00311721  0.49016869  0.50552293  1
  V  V49  1  0.35838016  0.62457414  0.26361911  1
  V  V50  1  -0.01183330  0.63092202  0.63518165  1
  V  V51  1  -0.01341138  0.75520654  0.75515419  1
  V  V52  1  0.12544739  0.62742327  0.00061513  1
  V  V53  1  0.50477811  0.11882498  0.62885444  1
  V  V54  1  0.63030040  0.87212906  0.74692202  1
  V  V55  1  0.13433712  0.49194151  0.13658229  1
  V  V56  1  0.11805410  0.00135035  0.11653149  1
  V  V57  1  0.38385092  0.87958913  0.00406324  1
  V  V58  1  0.63621439  0.35505146  0.72008650  1
  V  V59  1  0.63924337  0.75634786  0.37860834  1
  V  V60  1  0.24775494  0.11266304  0.35509519  1
  V  V61  1  0.49936260  0.74362034  0.25802638  1
  V  V62  1  -0.01433545  -0.00848267  -0.01361309  1
  V  V63  1  0.49579912  0.37162643  0.87552806  1
  V  V64  1  0.75431877  0.74331922  0.02567043  1
  V  V65  1  0.87581250  0.49663417  0.86746502  1
  V  V66  1  0.62171274  0.00598924  0.10269382  1
  V  V67  1  0.36490778  0.76520228  0.62291002  1
  V  V68  1  0.75817328  -0.00809001  0.24266713  1
  V  V69  1  0.64804082  0.63234605  0.49308262  1
  V  V70  1  0.62087540  0.61921421  0.00215142  1
  V  V71  1  0.37333144  0.00470065  0.87697952  1
  V  V72  1  0.61382389  0.88386658  0.24662428  1
  Zn  Zn73  1  0.86947064  0.86876488  0.00859306  1
  Zn  Zn74  1  0.35083566  0.88287871  0.49648027  1
  Zn  Zn75  1  0.26760158  0.25739920  0.49272628  1
  Zn  Zn76  1  0.36004856  0.58464581  0.73403946  1
  Zn  Zn77  1  0.37856312  -0.01563154  0.35252187  1
  Zn  Zn78  1  0.75589850  0.62475309  0.87408673  1
  Zn  Zn79  1  0.85531676  0.63188695  0.25415969  1
  Zn  Zn80  1  0.36110731  0.11782944  0.74416158  1
  Zn  Zn81  1  0.23486331  -0.00398494  0.76082103  1
  Zn  Zn82  1  0.18538862  0.19095399  0.18118347  1
  Zn  Zn83  1  0.19497920  0.18425432  0.81430639  1
  Zn  Zn84  1  0.18449360  0.68781628  0.18747690  1
  Zn  Zn85  1  0.18544640  0.67923359  0.69550180  1
  Zn  Zn86  1  0.68142505  0.18184782  0.18910836  1
  Zn  Zn87  1  0.68191748  0.18178151  0.68793418  1
  Zn  Zn88  1  0.67618121  0.67849475  0.19399841  1
  Zn  Zn89  1  0.68949167  0.68789460  0.68875160  1
  Zn  Zn90  1  0.31485812  0.30653269  0.30959835  1
  Zn  Zn91  1  0.28061889  0.34974462  0.84442421  1
  Zn  Zn92  1  0.30730392  0.81534515  0.31750916  1
  Zn  Zn93  1  0.30866499  0.82192528  0.81041925  1
  Zn  Zn94  1  0.80935279  0.32315197  0.31006756  1
  Zn  Zn95  1  0.81160108  0.31953673  0.82280624  1
  Zn  Zn96  1  0.81471764  0.81665328  0.30782315  1
  Zn  Zn97  1  0.81805206  0.81680769  0.82284130  1
  Zn  Zn98  1  0.18610848  0.42726597  0.44923190  1
  Zn  Zn99  1  0.18669962  0.44118152  0.94329596  1
  Zn  Zn100  1  0.17530856  0.94205576  0.43649025  1
  Zn  Zn101  1  0.18023055  1.05752896  0.93872571  1
  Zn  Zn102  1  0.66021343  0.45076106  0.42022052  1
  Zn  Zn103  1  0.68843138  0.43238645  0.93642687  1
  Zn  Zn104  1  0.68894833  0.94580858  0.42464420  1
  Zn  Zn105  1  0.71546273  0.92411187  0.93368728  1
  Zn  Zn106  1  0.31254131  0.06499830  0.06391545  1
  Zn  Zn107  1  0.31518676  0.08466299  0.55200595  1
  Zn  Zn108  1  0.31208750  0.56725730  0.06744169  1
  Zn  Zn109  1  0.31484832  0.56062693  0.55380406  1
  Zn  Zn110  1  0.81060254  0.06462134  0.06548089  1
  Zn  Zn111  1  0.81307118  0.06356955  0.56251797  1
  Zn  Zn112  1  0.80846152  0.56049141  0.06150797  1
  Zn  Zn113  1  0.81084723  0.56105606  0.56679547  1
  Zn  Zn114  1  0.43511028  0.44481915  0.19168592  1
  Zn  Zn115  1  0.46073900  0.43037569  0.67801003  1
  Zn  Zn116  1  0.44130241  0.94956209  0.17931341  1
  Zn  Zn117  1  0.44694784  0.93750695  0.68839086  1
  Zn  Zn118  1  0.93585727  0.44775046  0.18348873  1
  Zn  Zn119  1  0.95987485  0.44853355  0.70039458  1
  Zn  Zn120  1  0.93474294  0.93318636  0.18064026  1
  Zn  Zn121  1  0.99190246  0.90934428  0.64014944  1
  Zn  Zn122  1  0.05497765  0.06290078  0.30551754  1
  Zn  Zn123  1  0.04758599  0.05907946  0.80164573  1
  Zn  Zn124  1  0.06052891  0.56212683  0.31595119  1
  Zn  Zn125  1  0.06403879  0.56930418  0.81901337  1
  Zn  Zn126  1  0.55794630  0.06652708  0.30782935  1
  Zn  Zn127  1  0.57735985  0.05397120  0.81799757  1
  Zn  Zn128  1  0.55872609  0.56501293  0.31694686  1
  Zn  Zn129  1  0.53132938  0.54215835  0.79765141  1
  Zn  Zn130  1  0.42727827  0.17560944  0.44095107  1
  Zn  Zn131  1  0.38797188  0.21566916  0.90028045  1
  Zn  Zn132  1  0.43273240  0.70856937  0.43576257  1
  Zn  Zn133  1  0.44186675  0.69121554  0.94241028  1
  Zn  Zn134  1  0.93209789  0.19757847  0.42929097  1
  Zn  Zn135  1  0.94340611  0.18493706  0.93400630  1
  Zn  Zn136  1  0.94580356  0.67851001  0.43894279  1
  Zn  Zn137  1  0.93513034  0.68514029  0.93281401  1
  Zn  Zn138  1  0.06914593  0.31648132  0.05759799  1
  Zn  Zn139  1  0.09317923  0.31001851  0.56537615  1
  Zn  Zn140  1  0.05734980  0.81625333  0.05987219  1
  Zn  Zn141  1  0.18472790  0.82207114  0.57975031  1
  Zn  Zn142  1  0.56879507  0.32274138  0.05678052  1
  Zn  Zn143  1  0.57563994  0.29831283  0.56751158  1
  Zn  Zn144  1  0.57012092  0.81426609  0.06840596  1
  Zn  Zn145  1  0.72306539  0.81448286  0.56715212  1
  O  O146  1  0.11045003  0.10771214  0.13580753  1
  O  O147  1  0.11310716  0.12081088  0.59762684  1
  O  O148  1  0.11856609  0.62300137  0.11286586  1
  O  O149  1  0.11912400  0.62307772  0.61494965  1
  O  O150  1  0.63018821  0.10556861  0.12368935  1
  O  O151  1  0.62776325  0.10985146  0.61125287  1
  O  O152  1  0.61965514  0.61203235  0.11429281  1
  O  O153  1  0.61744745  0.62983604  0.60631388  1
  O  O154  1  0.38820681  0.37593242  0.36604994  1
  O  O155  1  0.39227988  0.36587452  0.87425574  1
  O  O156  1  0.37139030  0.87640834  0.38241516  1
  O  O157  1  0.38681398  0.88020746  0.88606314  1
  O  O158  1  0.88884550  0.38704498  0.36886840  1
  O  O159  1  0.87345575  0.38962506  0.88991628  1
  O  O160  1  0.86125689  0.89215863  0.37700521  1
  O  O161  1  0.82433984  0.89018586  0.90628848  1
  O  O162  1  0.24101953  0.01174831  0.36802189  1
  O  O163  1  0.27047420  0.00064376  0.88343071  1
  O  O164  1  0.25361522  0.45788433  0.34990756  1
  O  O165  1  0.26102121  0.52236510  0.89643109  1
  O  O166  1  0.75531547  0.01630749  0.35951002  1
  O  O167  1  0.73524760  0.01734132  0.85663128  1
  O  O168  1  0.76295482  0.49026549  0.37616154  1
  O  O169  1  0.75763008  0.49805991  0.87017187  1
  O  O170  1  0.23405214  0.50585872  0.11953622  1
  O  O171  1  0.24104953  0.50972429  0.62599159  1
  O  O172  1  0.23199775  0.98968875  0.11613207  1
  O  O173  1  0.23008298  1.01660203  0.60608658  1
  O  O174  1  0.73715565  0.50080587  0.13366132  1
  O  O175  1  0.73358121  0.50329788  0.63219245  1
  O  O176  1  0.74327656  1.00435160  0.14018931  1
  O  O177  1  0.74487897  1.01098743  0.64176631  1
  O  O178  1  0.00159226  0.38201885  0.25188262  1
  O  O179  1  -0.00776853  0.35297352  0.74028460  1
  O  O180  1  0.00975196  0.85745030  0.23904668  1
  O  O181  1  -0.00866424  0.85484939  0.74125262  1
  O  O182  1  0.51291772  0.37637748  0.24660310  1
  O  O183  1  0.51907883  0.35440195  0.75396039  1
  O  O184  1  0.51060404  0.87396566  0.25063974  1
  O  O185  1  0.51053424  0.86498030  0.76130902  1
  O  O186  1  0.49485655  0.13423481  0.24434765  1
  O  O187  1  0.52496200  0.12199808  0.73866275  1
  O  O188  1  0.49825164  0.64119669  0.25022562  1
  O  O189  1  0.50744857  0.64067156  0.74116714  1
  O  O190  1  0.98486143  0.12590256  0.23689381  1
  O  O191  1  0.98077986  0.14017692  0.74366925  1
  O  O192  1  1.00276636  0.63435789  0.23693616  1
  O  O193  1  1.00182727  0.62780469  0.74137578  1
  O  O194  1  0.37177064  0.26056429  0.00978218  1
  O  O195  1  0.35273548  0.19558429  0.52304281  1
  O  O196  1  0.37068152  0.75639832  0.01109116  1
  O  O197  1  0.37222784  0.75682763  0.51945163  1
  O  O198  1  0.87025405  0.26287903  -0.00511056  1
  O  O199  1  0.87488477  0.24924730  0.51929398  1
  O  O200  1  0.85504063  0.74154030  -0.00546261  1
  O  O201  1  0.87892345  0.76388508  0.49042978  1
  O  O202  1  0.10425519  0.23085255  0.47658007  1
  O  O203  1  0.13791321  0.26279122  0.98201917  1
  O  O204  1  0.12111268  0.74164844  0.49035682  1
  O  O205  1  0.13020566  0.74709737  0.99377571  1
  O  O206  1  0.62227305  0.24233056  0.48002197  1
  O  O207  1  0.64373616  0.25450723  0.99951380  1
  O  O208  1  0.64099451  0.74767535  0.48511036  1
  O  O209  1  0.62514265  0.73495171  0.99980676  1
  O  O210  1  0.50911504  0.22176090  0.10119719  1
  O  O211  1  0.51077384  0.22749288  0.63825594  1
  O  O212  1  0.48925001  0.76027658  0.13962135  1
  O  O213  1  0.48499211  0.74253010  0.63469387  1
  O  O214  1  1.01226871  0.23279473  0.11355088  1
  O  O215  1  1.01763829  0.23273253  0.63520579  1
  O  O216  1  1.00460504  0.73665395  0.12999611  1
  O  O217  1  0.99873103  0.73508678  0.64280228  1
  O  O218  1  -0.00028582  0.26693204  0.36685169  1
  O  O219  1  -0.00144736  0.24564337  0.85702519  1
  O  O220  1  0.00863415  0.74365485  0.36007560  1
  O  O221  1  0.01335098  0.74186842  0.86887693  1
  O  O222  1  0.50295845  0.24163745  0.37744065  1
  O  O223  1  0.50826416  0.25110762  0.87692043  1
  O  O224  1  0.51063380  0.75522461  0.36182535  1
  O  O225  1  0.50783976  0.75579926  0.87061024  1
  O  O226  1  0.22475706  0.12481280  0.47692081  1
  O  O227  1  0.24285007  0.13322655  1.00268651  1
  O  O228  1  0.23391703  0.62793703  0.50104268  1
  O  O229  1  0.24655214  0.64161997  0.99902902  1
  O  O230  1  0.73788265  0.11930283  0.48757658  1
  O  O231  1  0.76678192  0.14006353  0.98918095  1
  O  O232  1  0.74675120  0.62734851  0.49474915  1
  O  O233  1  0.73698536  0.62750086  0.99666690  1
  O  O234  1  0.26777372  0.36923464  -0.00473071  1
  O  O235  1  0.20624420  0.34376215  0.52009127  1
  O  O236  1  0.26208627  0.86413185  0.01135199  1
  O  O237  1  0.23845343  0.87633307  0.49829082  1
  O  O238  1  0.76112465  0.36298149  0.00071710  1
  O  O239  1  0.83179150  0.31786106  0.50732029  1
  O  O240  1  0.72908810  0.84079797  0.01970667  1
  O  O241  1  0.70717204  0.91750511  0.53265241  1
  O  O242  1  0.11992275  0.51081156  0.23527043  1
  O  O243  1  0.12770758  0.51465311  0.74232689  1
  O  O244  1  0.11265682  0.98087227  0.24063787  1
  O  O245  1  0.11962653  1.00774498  0.72459502  1
  O  O246  1  0.62449169  0.49107691  0.24791138  1
  O  O247  1  0.62442366  0.48673626  0.73757538  1
  O  O248  1  0.63130526  0.99148845  0.25353700  1
  O  O249  1  0.63181183  0.98595385  0.73641915  1
  O  O250  1  0.37987452  0.01773103  0.24473946  1
  O  O251  1  0.38828151  -0.00135998  0.77102651  1
  O  O252  1  0.38362698  0.51703993  0.26635426  1
  O  O253  1  0.42524654  0.49934073  0.75952796  1
  O  O254  1  0.86439855  0.00142713  0.25185680  1
  O  O255  1  0.86113395  0.00750617  0.74882960  1
  O  O256  1  0.86441076  0.50169751  0.25823838  1
  O  O257  1  0.86610924  0.48728081  0.76120921  1
  O  O258  1  0.10907358  0.36465878  0.37490828  1
  O  O259  1  0.17832678  0.39131118  0.84395856  1
  O  O260  1  0.12142689  0.86383128  0.36035066  1
  O  O261  1  0.12420557  0.86274563  0.87591819  1
  O  O262  1  0.62064672  0.36028996  0.36771995  1
  O  O263  1  0.61262927  0.36023315  0.88610065  1
  O  O264  1  0.63148048  0.86422119  0.36197833  1
  O  O265  1  0.62330670  0.86264069  0.87020369  1
  O  O266  1  0.37751690  0.12295278  0.13164784  1
  O  O267  1  0.40499718  0.09885362  0.63707102  1
  O  O268  1  0.37068630  0.63892826  0.13982041  1
  O  O269  1  0.38312427  0.62941957  0.62356086  1
  O  O270  1  0.88367743  0.12626756  0.13475576  1
  O  O271  1  0.87890579  0.12764639  0.63495785  1
  O  O272  1  0.88783218  0.61769793  0.12880479  1
  O  O273  1  0.88969178  0.61525015  0.62654136  1
  O  O274  1  0.23593891  0.25391064  0.10427073  1
  O  O275  1  0.27718186  0.32095053  0.66320169  1
  O  O276  1  0.25585481  0.75900053  0.12010956  1
  O  O277  1  0.25882985  0.75093278  0.63618578  1
  O  O278  1  0.75020994  0.24126157  0.11329548  1
  O  O279  1  0.67335060  0.28798280  0.64268692  1
  O  O280  1  0.75371404  0.72656389  0.12488457  1
  O  O281  1  0.76576980  0.73620125  0.62594863  1
  O  O282  1  0.23244761  0.24342505  0.37220958  1
  O  O283  1  0.27143508  0.24056875  0.88647529  1
  O  O284  1  0.22948845  0.74572407  0.36772182  1
  O  O285  1  0.24088867  0.74805922  0.88333114  1
  O  O286  1  0.75211287  0.24021466  0.36984907  1
  O  O287  1  0.74188680  0.24431958  0.88299576  1
  O  O288  1  0.73601795  0.74592511  0.35487891  1
  O  O289  1  0.73354516  0.74241921  0.87641321  1
  O  O290  1  -0.00979882  0.11269109  0.01327765  1
  O  O291  1  -0.01103986  0.13347294  0.50766489  1
  O  O292  1  0.00524507  0.62112715  0.00878812  1
  O  O293  1  0.00664248  0.61585357  0.51418130  1
  O  O294  1  0.50284907  0.16811542  0.05099051  1
  O  O295  1  0.51057203  0.12456533  0.51548850  1
  O  O296  1  0.50156995  0.60783304  -0.00117226  1
  O  O297  1  0.50116458  0.64359323  0.50680463  1
  O  O298  1  0.46268392  0.34843890  0.52500718  1
  O  O299  1  0.48590788  0.37790536  0.99816135  1
  O  O300  1  0.50391093  0.89212516  0.49315484  1
  O  O301  1  0.49357243  0.86072952  0.99399516  1
  O  O302  1  1.00934913  0.39024314  0.51094174  1
  O  O303  1  0.98978174  0.38635455  1.00352769  1
  O  O304  1  0.93109541  0.81913991  0.51703747  1
  O  O305  1  0.99342077  0.88589759  0.99803191  1
  O  O306  1  0.49573963  0.49736294  0.38337425  1
  O  O307  1  0.51247509  0.48437679  0.89788978  1
  O  O308  1  0.49250662  1.01606531  0.38792126  1
  O  O309  1  0.50642720  0.98284407  0.87813450  1
  O  O310  1  0.99603963  0.48758068  0.38253719  1
  O  O311  1  0.98875624  0.50517903  0.88461083  1
  O  O312  1  0.98147399  0.99960166  0.36446981  1
  O  O313  1  0.99202497  1.00504661  0.88791531  1
  O  O314  1  0.00702492  0.00257910  0.11995855  1
  O  O315  1  0.00534237  0.02599688  0.62733315  1
  O  O316  1  0.00784343  0.51415012  0.11615974  1
  O  O317  1  0.01290385  0.51184741  0.62337135  1
  O  O318  1  0.52107086  -0.00980081  0.10874100  1
  O  O319  1  0.52210729  -0.00060352  0.61416290  1
  O  O320  1  0.51167654  0.49016545  0.11136247  1
  O  O321  1  0.50918680  0.52933395  0.62104135  1
  O  O322  1  0.24550530  0.40677908  0.29061792  1
  O  O323  1  0.30823150  0.36818496  0.71033358  1
  O  O324  1  0.23291399  0.86645778  0.23911342  1
  O  O325  1  0.24930763  0.88780614  0.74524891  1
  O  O326  1  0.73359278  0.38886414  0.25615241  1
  O  O327  1  0.73329567  0.38408475  0.76043784  1
  O  O328  1  0.74210668  0.88955076  0.25168604  1
  O  O329  1  0.74634143  0.88675777  0.75503064  1
  O  O330  1  0.24045841  0.12243211  0.25424082  1
  O  O331  1  0.25165290  0.10815009  0.74962708  1
  O  O332  1  0.25925810  0.62899680  0.25279014  1
  O  O333  1  0.25685452  0.62348411  0.76786251  1
  O  O334  1  0.76228447  0.12081718  0.25207581  1
  O  O335  1  0.75665034  0.12241021  0.75314550  1
  O  O336  1  0.74038266  0.60530762  0.25504105  1
  O  O337  1  0.73422277  0.60427272  0.75727809  1
  O  O338  1  0.35496903  0.12127373  0.36172214  1
  O  O339  1  0.39761949  0.10124058  0.89253822  1
  O  O340  1  0.37414632  0.63916863  0.36292914  1
  O  O341  1  0.36522927  0.63721533  0.87896861  1
  O  O342  1  0.87164874  0.12331185  0.35812041  1
  O  O343  1  0.86372952  0.13350418  0.85716209  1
  O  O344  1  0.88596608  0.60484279  0.36953781  1
  O  O345  1  0.87121537  0.60214516  0.88305928  1
  O  O346  1  0.11895538  0.39307120  0.12371902  1
  O  O347  1  0.12156813  0.39770843  0.63677305  1
  O  O348  1  0.12885892  0.88060648  0.12998268  1
  O  O349  1  0.10440375  0.90242818  0.60204459  1
  O  O350  1  0.62573636  0.37935659  0.13823480  1
  O  O351  1  0.58967759  0.40171435  0.61890920  1
  O  O352  1  0.62831831  0.88318750  0.14205959  1
  O  O353  1  0.62271588  0.86916854  0.64242378  1
  O  O354  1  0.12138261  0.24970558  0.25957154  1
  O  O355  1  0.12553763  0.25549419  0.75451903  1
  O  O356  1  0.11514496  0.75419509  0.25582128  1
  O  O357  1  0.11859548  0.74578228  0.76394589  1
  O  O358  1  0.62626778  0.25933894  0.25864277  1
  O  O359  1  0.62093655  0.24834947  0.77178498  1
  O  O360  1  0.61354127  0.75884469  0.25184345  1
  O  O361  1  0.61859835  0.75316901  0.75918551  1
  O  O362  1  0.36402436  0.23001300  0.24678869  1
  O  O363  1  0.40046952  0.22479581  0.77025869  1
  O  O364  1  0.38269079  0.74588919  0.24871812  1
  O  O365  1  0.38388330  0.75537416  0.74429403  1
  O  O366  1  0.87059414  0.24441783  0.24685728  1
  O  O367  1  0.85915534  0.24689347  0.74358769  1
  O  O368  1  0.88890465  0.74545168  0.25632856  1
  O  O369  1  0.88731222  0.74190464  0.77486565  1
  O  O370  1  0.35293089  0.50097315  0.46619542  1
  O  O371  1  0.38567235  0.49249826  1.01091664  1
  O  O372  1  0.38763097  1.00026643  0.50681895  1
  O  O373  1  0.37474308  0.98412309  0.99943820  1
  O  O374  1  0.88257715  0.50218875  0.48970166  1
  O  O375  1  0.87851703  0.49025267  0.99635512  1
  O  O376  1  0.87065157  1.01086027  0.48216826  1
  O  O377  1  0.88390635  0.99858526  1.00852527  1
  O  O378  1  0.10889264  -0.00195472  0.01213325  1
  O  O379  1  0.10461955  0.01803763  0.48783838  1
  O  O380  1  0.11547414  0.50834243  0.00492977  1
  O  O381  1  0.12162569  0.51258972  0.50225891  1
  O  O382  1  0.65022073  -0.01005464  0.00700418  1
  O  O383  1  0.61086598  0.01507850  0.49138229  1
  O  O384  1  0.62313416  0.50049300  0.00888128  1
  O  O385  1  0.63033035  0.52101205  0.50189060  1
  O  O386  1  0.37338889  0.37495167  0.12460749  1
  O  O387  1  0.41506222  0.37218485  0.58030729  1
  O  O388  1  0.36786965  0.86977236  0.12378463  1
  O  O389  1  0.37824975  0.86700299  0.62598990  1
  O  O390  1  0.87609009  0.37972460  0.11195413  1
  O  O391  1  0.82072894  0.35964970  0.56901699  1
  O  O392  1  0.87340448  0.86467704  0.12080489  1
  O  O393  1  0.90063847  0.86633029  0.57320614  1
  O  O394  1  0.12150020  0.13328274  0.36791029  1
  O  O395  1  0.12008914  0.11570815  0.86707436  1
  O  O396  1  0.11546432  0.63380801  0.38880730  1
  O  O397  1  0.13708392  0.62857689  0.89045658  1
  O  O398  1  0.63082902  0.13894996  0.37255977  1
  O  O399  1  0.63534605  0.13491034  0.87867866  1
  O  O400  1  0.61994866  0.63803070  0.38755961  1
  O  O401  1  0.61604053  0.62970127  0.88892679  1
