# generated using pymatgen
data_V73Zn73O256
_symmetry_space_group_name_H-M   'P 1'
_cell_length_a   16.82454409
_cell_length_b   16.83353268
_cell_length_c   16.83280831
_cell_angle_alpha   90.02691507
_cell_angle_beta   90.01117865
_cell_angle_gamma   90.02941765
_symmetry_Int_Tables_number   1
_chemical_formula_structural   V73Zn73O256
_chemical_formula_sum   'V73 Zn73 O256'
_cell_volume   4767.32802275
_cell_formula_units_Z   1
loop_
 _symmetry_equiv_pos_site_id
 _symmetry_equiv_pos_as_xyz
  1  'x, y, z'
loop_
 _atom_site_type_symbol
 _atom_site_label
 _atom_site_symmetry_multiplicity
 _atom_site_fract_x
 _atom_site_fract_y
 _atom_site_fract_z
 _atom_site_occupancy
  V  V0  1  0.87361172  0.76927633  0.13762774  1
  V  V1  1  0.12620238  0.74385962  0.37435231  1
  V  V2  1  0.11478059  0.37988553  0.74724033  1
  V  V3  1  0.38239090  0.50124660  0.38184681  1
  V  V4  1  -0.01236881  -0.01721885  -0.01145217  1
  V  V5  1  0.63783990  0.49679384  0.12888220  1
  V  V6  1  0.38178575  -0.00333524  0.87101258  1
  V  V7  1  0.25454021  0.49686624  0.76900672  1
  V  V8  1  0.24485628  0.88592204  0.63022647  1
  V  V9  1  0.73873296  0.25316630  0.50841058  1
  V  V10  1  0.75785638  0.75002159  0.00759353  1
  V  V11  1  0.87734585  0.86893111  0.50225199  1
  V  V12  1  0.62477220  0.00365290  0.61922146  1
  V  V13  1  0.26222657  0.25294432  0.00405004  1
  V  V14  1  0.38493087  0.62537940  0.24406711  1
  V  V15  1  0.36054317  0.62484510  0.74417889  1
  V  V16  1  0.62265734  -0.00171487  0.10562075  1
  V  V17  1  0.74091768  0.62733416  0.86674327  1
  V  V18  1  0.88800807  0.13426779  0.24035524  1
  V  V19  1  0.63773324  0.36535520  0.24325294  1
  V  V20  1  0.11819413  -0.00019636  0.12638718  1
  V  V21  1  0.48441037  0.24229935  0.23009324  1
  V  V22  1  0.75923791  0.13162161  0.88934326  1
  V  V23  1  0.37683009  0.12714987  0.74974766  1
  V  V24  1  -0.00459305  0.38264272  0.89049835  1
  V  V25  1  0.11418858  0.12677735  0.00861815  1
  V  V26  1  0.88248608  0.37193805  0.51477313  1
  V  V27  1  0.49456631  0.74399023  0.72848748  1
  V  V28  1  0.50884381  0.76217204  0.25788614  1
  V  V29  1  0.48803238  0.49201610  0.00264317  1
  V  V30  1  0.24895491  0.75182971  0.50489302  1
  V  V31  1  0.24774182  0.50226119  0.25093761  1
  V  V32  1  0.12000896  0.87400240  0.25157474  1
  V  V33  1  0.64034333  0.38522085  0.74970682  1
  V  V34  1  0.61592431  0.62957566  0.00821879  1
  V  V35  1  0.50947376  0.36579159  0.36996594  1
  V  V36  1  0.88851345  0.49076965  0.37261800  1
  V  V37  1  0.11950800  0.49495902  0.12487303  1
  V  V38  1  0.62440014  0.50198886  0.60911804  1
  V  V39  1  0.24254397  0.37434942  0.61904323  1
  V  V40  1  0.25655803  0.13785848  0.37436378  1
  V  V41  1  0.72950454  0.13125961  0.37644021  1
  V  V42  1  0.61908648  0.24720709  0.87953216  1
  V  V43  1  0.37501268  -0.00110063  0.36502870  1
  V  V44  1  0.38304059  0.36458186  0.50133442  1
  V  V45  1  0.63861154  0.87782045  0.26099568  1
  V  V46  1  0.12022351  0.62503553  -0.01135528  1
  V  V47  1  0.84666481  0.36946165  0.00978094  1
  V  V48  1  0.01267548  0.61677121  0.60893970  1
  V  V49  1  0.88039974  0.01112993  0.38303351  1
  V  V50  1  0.75544851  0.86895057  0.62085603  1
  V  V51  1  0.62333327  0.64635569  0.48957893  1
  V  V52  1  0.38207175  0.87317777  -0.00156989  1
  V  V53  1  -0.00317500  0.74504332  0.76425537  1
  V  V54  1  0.00451326  0.87944212  0.38584678  1
  V  V55  1  0.11944628  0.87639687  0.76838931  1
  V  V56  1  0.48372025  0.37948147  0.86508057  1
  V  V57  1  0.24620424  0.74393003  -0.01961242  1
  V  V58  1  0.50474266  0.13356103  0.62700088  1
  V  V59  1  0.62569213  0.86960960  0.74949955  1
  V  V60  1  -0.01697079  0.12442460  0.63042598  1
  V  V61  1  0.50160762  0.00518190  0.49421822  1
  V  V62  1  0.76010308  0.01438231  0.74936651  1
  V  V63  1  0.86509508  0.50557027  0.86926645  1
  V  V64  1  0.38068470  0.87522763  0.50469303  1
  V  V65  1  0.11177789  0.25990748  0.36936876  1
  V  V66  1  0.50622508  0.86632054  0.87335429  1
  V  V67  1  0.75752143  0.62510135  0.36746868  1
  V  V68  1  0.25188085  0.86695548  0.12712055  1
  V  V69  1  0.12646176  0.12468379  0.50562636  1
  V  V70  1  0.26479423  0.37232621  0.12573346  1
  V  V71  1  0.24463903  0.11832865  0.87209417  1
  V  V72  1  -0.00284819  0.63064748  0.13562209  1
  Zn  Zn73  1  0.87238796  0.72976572  0.63534732  1
  Zn  Zn74  1  0.75371173  0.00032832  0.24338303  1
  Zn  Zn75  1  0.11938165  0.25110111  0.87551699  1
  Zn  Zn76  1  0.38248801  0.73975160  0.11677090  1
  Zn  Zn77  1  0.37996834  0.25293645  0.63187228  1
  Zn  Zn78  1  0.22024064  0.59395009  0.41418420  1
  Zn  Zn79  1  0.11945664  0.00147163  0.62480348  1
  Zn  Zn80  1  0.25495930  0.00620197  0.24403831  1
  Zn  Zn81  1  -0.01509463  0.24679278  0.74772385  1
  Zn  Zn82  1  0.18879452  0.19032392  0.19334772  1
  Zn  Zn83  1  0.18608970  0.19726604  0.68879137  1
  Zn  Zn84  1  0.18751857  0.68391637  0.18903566  1
  Zn  Zn85  1  0.18228847  0.69312145  0.69103158  1
  Zn  Zn86  1  0.68736740  0.17818580  0.18507336  1
  Zn  Zn87  1  0.68602720  0.20292936  0.69573729  1
  Zn  Zn88  1  0.68787622  0.68507063  0.19064298  1
  Zn  Zn89  1  0.68152740  0.68112159  0.67649093  1
  Zn  Zn90  1  0.31299362  0.31577494  0.30942946  1
  Zn  Zn91  1  0.30725894  0.30845276  0.81378274  1
  Zn  Zn92  1  0.31312405  0.81303011  0.31569486  1
  Zn  Zn93  1  0.31664971  0.81030476  0.80474891  1
  Zn  Zn94  1  0.81865000  0.30946943  0.32373622  1
  Zn  Zn95  1  0.81149470  0.31076045  0.81562643  1
  Zn  Zn96  1  0.81740499  0.80705328  0.31881938  1
  Zn  Zn97  1  0.81803455  0.81577523  0.82069954  1
  Zn  Zn98  1  0.17611749  0.43354214  0.45005626  1
  Zn  Zn99  1  0.18420963  0.43736679  0.94129494  1
  Zn  Zn100  1  0.19214861  0.94289918  0.43894619  1
  Zn  Zn101  1  0.18802364  0.93854345  0.94389086  1
  Zn  Zn102  1  0.70234147  0.44286683  0.43672241  1
  Zn  Zn103  1  0.67652203  0.44165318  0.93233580  1
  Zn  Zn104  1  0.69127259  0.93842753  0.43391389  1
  Zn  Zn105  1  0.70993999  0.93577853  0.93254542  1
  Zn  Zn106  1  0.30732611  0.05471284  0.05267139  1
  Zn  Zn107  1  0.31258639  0.06597444  0.55889915  1
  Zn  Zn108  1  0.30799985  0.56319143  0.06022050  1
  Zn  Zn109  1  0.29293001  0.55496388  0.56714079  1
  Zn  Zn110  1  0.80740944  0.05806817  0.06732510  1
  Zn  Zn111  1  0.80847368  0.06481406  0.55689943  1
  Zn  Zn112  1  0.81073799  0.55992047  0.04685727  1
  Zn  Zn113  1  0.80721871  0.55889424  0.55935176  1
  Zn  Zn114  1  0.44399801  0.43981370  0.18586919  1
  Zn  Zn115  1  0.44078103  0.45355262  0.68323290  1
  Zn  Zn116  1  0.44673291  0.93376688  0.18287136  1
  Zn  Zn117  1  0.43673774  0.94149642  0.68689454  1
  Zn  Zn118  1  0.89934339  0.47948452  0.16218558  1
  Zn  Zn119  1  0.92552695  0.45028196  0.67951900  1
  Zn  Zn120  1  0.93930040  0.94699618  0.19429709  1
  Zn  Zn121  1  0.94282315  0.94037958  0.69180446  1
  Zn  Zn122  1  0.06584601  0.06886493  0.31454394  1
  Zn  Zn123  1  0.05710561  0.05468965  0.80789900  1
  Zn  Zn124  1  0.05452943  0.55654388  0.31377064  1
  Zn  Zn125  1  0.05692595  0.55875632  0.80292888  1
  Zn  Zn126  1  0.55724904  0.06211642  0.29744367  1
  Zn  Zn127  1  0.56588886  0.05720006  0.81167000  1
  Zn  Zn128  1  0.56821178  0.55885353  0.31486177  1
  Zn  Zn129  1  0.55756394  0.56318685  0.81489301  1
  Zn  Zn130  1  0.44348285  0.18559733  0.43260648  1
  Zn  Zn131  1  0.43646849  0.19483468  0.93066714  1
  Zn  Zn132  1  0.43595453  0.68496137  0.43857253  1
  Zn  Zn133  1  0.43696945  0.68403520  0.92667124  1
  Zn  Zn134  1  0.94122211  0.19611582  0.45033122  1
  Zn  Zn135  1  0.93315413  0.19579958  0.93683611  1
  Zn  Zn136  1  0.93623314  0.67972721  0.44187123  1
  Zn  Zn137  1  0.93568802  0.68558036  0.94366948  1
  Zn  Zn138  1  0.07081956  0.31591572  0.06201774  1
  Zn  Zn139  1  0.06253565  0.30082115  0.55753636  1
  Zn  Zn140  1  0.06034872  0.80809461  0.05863947  1
  Zn  Zn141  1  0.06181422  0.80185549  0.56829800  1
  Zn  Zn142  1  0.56474982  0.31506847  0.05955216  1
  Zn  Zn143  1  0.56938029  0.32039564  0.56318365  1
  Zn  Zn144  1  0.56407087  0.81454785  0.07738773  1
  Zn  Zn145  1  0.56636915  0.81558761  0.55413613  1
  O  O146  1  0.13284495  0.11688023  0.11510801  1
  O  O147  1  0.14239181  0.12494509  0.61240196  1
  O  O148  1  0.11668944  0.61953070  0.12078578  1
  O  O149  1  0.11458257  0.63007215  0.62822633  1
  O  O150  1  0.62453125  0.10076446  0.13043139  1
  O  O151  1  0.61110742  0.11734573  0.63219031  1
  O  O152  1  0.62383410  0.61248581  0.11730183  1
  O  O153  1  0.62606283  0.62082483  0.59966839  1
  O  O154  1  0.38044493  0.38023340  0.38310772  1
  O  O155  1  0.38364878  0.36983278  0.87442036  1
  O  O156  1  0.36878372  0.89132079  0.38778835  1
  O  O157  1  0.38123706  0.87842578  0.87635151  1
  O  O158  1  0.87807384  0.38324816  0.38516393  1
  O  O159  1  0.88258715  0.38044460  0.88280144  1
  O  O160  1  0.88577093  0.88053130  0.38245291  1
  O  O161  1  0.81246714  0.89988183  0.89222608  1
  O  O162  1  0.26392543  0.00721287  0.37164582  1
  O  O163  1  0.25856121  0.01400452  0.88438101  1
  O  O164  1  0.26094929  0.48971705  0.35721705  1
  O  O165  1  0.25077449  0.49614009  0.86891725  1
  O  O166  1  0.76483165  0.01139913  0.37761269  1
  O  O167  1  0.72976039  0.02677234  0.85534511  1
  O  O168  1  0.76714007  0.50709011  0.37177278  1
  O  O169  1  0.75373134  0.51436375  0.87771000  1
  O  O170  1  0.24625289  0.49115723  0.13143360  1
  O  O171  1  0.25820366  0.47539631  0.64533871  1
  O  O172  1  0.24091353  0.98796651  0.12082573  1
  O  O173  1  0.24935925  0.98883414  0.62287640  1
  O  O174  1  0.73764899  0.50356712  0.12254378  1
  O  O175  1  0.72704494  0.51228013  0.63154120  1
  O  O176  1  0.73708749  0.99481188  0.12958062  1
  O  O177  1  0.74186346  0.99749078  0.63017585  1
  O  O178  1  -0.00983263  0.32295858  0.20969104  1
  O  O179  1  0.01119302  0.38110665  0.74663832  1
  O  O180  1  0.01414190  0.87829528  0.26102986  1
  O  O181  1  0.01238448  0.86847637  0.75001080  1
  O  O182  1  0.50012327  0.36670016  0.25772464  1
  O  O183  1  0.49581418  0.38464157  0.76287163  1
  O  O184  1  0.50402038  0.86626393  0.25909157  1
  O  O185  1  0.50427208  0.86807877  0.75039089  1
  O  O186  1  0.49799242  0.14246523  0.24744210  1
  O  O187  1  0.49074953  0.11505430  0.73494164  1
  O  O188  1  0.48754083  0.62324914  0.25331048  1
  O  O189  1  0.50722028  0.64325557  0.74609465  1
  O  O190  1  0.98984683  0.11923831  0.24718272  1
  O  O191  1  1.00869071  0.12824997  0.73797715  1
  O  O192  1  1.00768839  0.62746516  0.23494291  1
  O  O193  1  1.00300908  0.64109537  0.74651774  1
  O  O194  1  0.36084156  0.24812746  0.00156522  1
  O  O195  1  0.37848314  0.26229816  0.49946403  1
  O  O196  1  0.36290485  0.75184218  -0.00300536  1
  O  O197  1  0.37038998  0.77106256  0.48858289  1
  O  O198  1  0.87978721  0.27199168  0.00083705  1
  O  O199  1  0.86168808  0.26176446  0.49481164  1
  O  O200  1  0.86534927  0.74365520  0.01560999  1
  O  O201  1  0.88058940  0.76717007  0.50238230  1
  O  O202  1  0.12962772  0.23526265  0.48781013  1
  O  O203  1  0.12930163  0.23676436  1.00131326  1
  O  O204  1  0.13960347  0.75423130  0.48897890  1
  O  O205  1  0.13694890  0.74018058  1.00052366  1
  O  O206  1  0.63564360  0.25548979  0.49774320  1
  O  O207  1  0.62278160  0.25717126  0.98030564  1
  O  O208  1  0.63045832  0.74778024  0.49226313  1
  O  O209  1  0.62889668  0.73348032  1.01580272  1
  O  O210  1  0.49621928  0.25862262  0.13019263  1
  O  O211  1  0.50101555  0.23608524  0.61964594  1
  O  O212  1  0.49183738  0.75307778  0.14656230  1
  O  O213  1  0.49847589  0.75798700  0.62940089  1
  O  O214  1  1.00007326  0.27473951  0.15439806  1
  O  O215  1  1.00882115  0.23109410  0.63055023  1
  O  O216  1  0.98510485  0.73855729  0.11970631  1
  O  O217  1  0.99400888  0.73989657  0.63390341  1
  O  O218  1  0.01198305  0.24600336  0.37526553  1
  O  O219  1  -0.00038197  0.26851155  0.86851764  1
  O  O220  1  0.01982982  0.76140366  0.38228918  1
  O  O221  1  -0.00540539  0.74583987  0.86578873  1
  O  O222  1  0.49896975  0.26198707  0.36527030  1
  O  O223  1  0.50549267  0.26547124  0.87675377  1
  O  O224  1  0.49241467  0.74349264  0.35609009  1
  O  O225  1  0.49609329  0.76264727  0.85741530  1
  O  O226  1  0.24439596  0.12335336  0.48561523  1
  O  O227  1  0.24420390  0.13459674  0.99569030  1
  O  O228  1  0.27817743  0.65346739  0.49946468  1
  O  O229  1  0.24227702  0.63833254  1.00230831  1
  O  O230  1  0.75121947  0.13267325  0.48509832  1
  O  O231  1  0.74964175  0.12188397  0.98779245  1
  O  O232  1  0.73413378  0.61658212  0.48714918  1
  O  O233  1  0.73545129  0.63060767  0.99602376  1
  O  O234  1  0.24267317  0.36123873  0.00806233  1
  O  O235  1  0.26272507  0.37282730  0.51542003  1
  O  O236  1  0.25536777  0.86109432  0.00445759  1
  O  O237  1  0.25973718  0.87328228  0.50866632  1
  O  O238  1  0.74760309  0.37133160  -0.00991854  1
  O  O239  1  0.75527832  0.35873451  0.49394383  1
  O  O240  1  0.73450160  0.84611525  0.00759654  1
  O  O241  1  0.75717304  0.88187493  0.51432145  1
  O  O242  1  0.13924914  0.50608144  0.24080407  1
  O  O243  1  0.13688294  0.48771374  0.75357085  1
  O  O244  1  0.12823116  0.99242979  0.24164610  1
  O  O245  1  0.12451187  0.98135182  0.74673623  1
  O  O246  1  0.61656185  0.48797863  0.23471796  1
  O  O247  1  0.62263212  0.48887414  0.75631445  1
  O  O248  1  0.62687007  0.98608033  0.24964943  1
  O  O249  1  0.62600685  0.98979241  0.73471092  1
  O  O250  1  0.37995781  -0.00718966  0.26182908  1
  O  O251  1  0.37240670  0.00863288  0.76088693  1
  O  O252  1  0.36940156  0.50630791  0.25340511  1
  O  O253  1  0.36155198  0.50588760  0.75465016  1
  O  O254  1  0.87317302  0.00820075  0.26570916  1
  O  O255  1  0.85830990  -0.00323397  0.75057527  1
  O  O256  1  0.88907174  0.49140290  0.27073145  1
  O  O257  1  0.86954408  0.49390456  0.76937705  1
  O  O258  1  0.12871531  0.36024416  0.38618373  1
  O  O259  1  0.11070135  0.37979122  0.86811604  1
  O  O260  1  0.12220428  0.87561303  0.37036749  1
  O  O261  1  0.13179630  0.87604977  0.86773800  1
  O  O262  1  0.61223167  0.38514602  0.36022628  1
  O  O263  1  0.61431653  0.37001989  0.86480965  1
  O  O264  1  0.62525320  0.87793222  0.36361531  1
  O  O265  1  0.61746063  0.88199887  0.85914560  1
  O  O266  1  0.41438533  0.11564324  0.08448625  1
  O  O267  1  0.38145621  0.12528027  0.63274291  1
  O  O268  1  0.37047113  0.62258821  0.13993781  1
  O  O269  1  0.36984351  0.60938056  0.64170051  1
  O  O270  1  0.86791152  0.12286046  0.14205114  1
  O  O271  1  0.88379244  0.12299690  0.62064342  1
  O  O272  1  0.89758775  0.59735447  0.11967408  1
  O  O273  1  0.88923259  0.62115025  0.61066856  1
  O  O274  1  0.24580126  0.26123831  0.11743812  1
  O  O275  1  0.26431918  0.27214189  0.64342433  1
  O  O276  1  0.25291816  0.75883586  0.12185090  1
  O  O277  1  0.24536933  0.76350366  0.61097978  1
  O  O278  1  0.74355091  0.24930424  0.11845739  1
  O  O279  1  0.74762129  0.23844914  0.60834270  1
  O  O280  1  0.76629092  0.73686968  0.12089726  1
  O  O281  1  0.75458828  0.76679703  0.63252522  1
  O  O282  1  0.25303427  0.24017087  0.37396825  1
  O  O283  1  0.24559856  0.24010020  0.88988368  1
  O  O284  1  0.23852597  0.76029807  0.38724791  1
  O  O285  1  0.25101658  0.75021135  0.88165118  1
  O  O286  1  0.74457393  0.23507861  0.37939970  1
  O  O287  1  0.73487197  0.23698226  0.86721200  1
  O  O288  1  0.76635402  0.72807848  0.38024285  1
  O  O289  1  0.76089516  0.73401593  0.89286429  1
  O  O290  1  0.01351236  0.12687279  -0.00194355  1
  O  O291  1  0.01543079  0.12882644  0.51551366  1
  O  O292  1  0.01643832  0.63013488  0.01043613  1
  O  O293  1  0.01449316  0.63084300  0.50710564  1
  O  O294  1  0.46737656  0.12147183  0.03045954  1
  O  O295  1  0.49197838  0.11584981  0.51441311  1
  O  O296  1  0.51101236  0.61780963  -0.00926255  1
  O  O297  1  0.52110479  0.62621409  0.48345967  1
  O  O298  1  0.49207600  0.37120981  0.48451778  1
  O  O299  1  0.50035719  0.38677544  0.99012920  1
  O  O300  1  0.48764887  0.88738749  0.50513382  1
  O  O301  1  0.48880519  0.85592754  0.98999571  1
  O  O302  1  0.98518623  0.36739100  0.50936344  1
  O  O303  1  1.00568321  0.37905001  0.99065777  1
  O  O304  1  0.99687971  0.87524262  0.49351999  1
  O  O305  1  1.00323905  0.88231279  0.99589345  1
  O  O306  1  0.48624717  0.48579689  0.36577734  1
  O  O307  1  0.50305186  0.48949475  0.88754170  1
  O  O308  1  0.48648205  1.01315509  0.38386458  1
  O  O309  1  0.49090811  0.98608021  0.86970471  1
  O  O310  1  0.99149571  0.50583313  0.38945376  1
  O  O311  1  0.98800531  0.48889820  0.87043404  1
  O  O312  1  0.99170607  0.99115782  0.37288150  1
  O  O313  1  0.99922893  1.00409908  0.88988897  1
  O  O314  1  0.01459225  -0.00729237  0.11517393  1
  O  O315  1  0.00330664  0.01622786  0.62885959  1
  O  O316  1  0.01784573  0.50236568  0.13099419  1
  O  O317  1  0.00346259  0.51642953  0.63289971  1
  O  O318  1  0.51698420  -0.01465170  0.11508228  1
  O  O319  1  0.50599640  0.00620962  0.61545682  1
  O  O320  1  0.51007217  0.49412766  0.10920042  1
  O  O321  1  0.52217434  0.51156481  0.63481971  1
  O  O322  1  0.25523397  0.38573679  0.23481003  1
  O  O323  1  0.24056659  0.38308260  0.75505429  1
  O  O324  1  0.24528674  0.87922914  0.24098854  1
  O  O325  1  0.24067286  0.86597255  0.73605903  1
  O  O326  1  0.73547008  0.36430108  0.25766203  1
  O  O327  1  0.73993112  0.38175090  0.75952715  1
  O  O328  1  0.74310616  0.87425893  0.25926564  1
  O  O329  1  0.74146439  0.88662361  0.73725454  1
  O  O330  1  0.24734446  0.12118709  0.26602876  1
  O  O331  1  0.25233213  0.13039264  0.76850899  1
  O  O332  1  0.25920615  0.60977708  0.24900051  1
  O  O333  1  0.25186449  0.61361687  0.74838782  1
  O  O334  1  0.75874912  0.12226746  0.26755104  1
  O  O335  1  0.74881871  0.11504113  0.73822198  1
  O  O336  1  0.74482003  0.62157166  0.26486458  1
  O  O337  1  0.73734724  0.63883451  0.76775103  1
  O  O338  1  0.36513916  0.11504923  0.38131111  1
  O  O339  1  0.36951520  0.11682075  0.87273734  1
  O  O340  1  0.37235380  0.60749580  0.36802555  1
  O  O341  1  0.38398826  0.62546899  0.84664170  1
  O  O342  1  0.88492885  0.11387692  0.37924852  1
  O  O343  1  0.85926077  0.13332623  0.87471566  1
  O  O344  1  0.86875769  0.60919869  0.38532445  1
  O  O345  1  0.86424664  0.61194914  0.88495751  1
  O  O346  1  0.13466300  0.39095414  0.12125966  1
  O  O347  1  0.13557795  0.36880563  0.63255002  1
  O  O348  1  0.13125712  0.87683458  0.13151157  1
  O  O349  1  0.13731777  0.87896432  0.61916569  1
  O  O350  1  0.62804076  0.38407364  0.13218877  1
  O  O351  1  0.62040850  0.38610511  0.64068983  1
  O  O352  1  0.62682716  0.88221172  0.14365548  1
  O  O353  1  0.63636516  0.88318993  0.62573715  1
  O  O354  1  0.12999870  0.25078399  0.26797294  1
  O  O355  1  0.12581848  0.26953539  0.75714247  1
  O  O356  1  0.13740727  0.76212323  0.26356049  1
  O  O357  1  0.11393136  0.76520717  0.74961789  1
  O  O358  1  0.61239919  0.26380073  0.24046189  1
  O  O359  1  0.62092776  0.27064556  0.75864613  1
  O  O360  1  0.61645061  0.75974385  0.24723001  1
  O  O361  1  0.61481791  0.76363842  0.73647116  1
  O  O362  1  0.38367032  0.25469627  0.24495979  1
  O  O363  1  0.37492084  0.23162720  0.75589572  1
  O  O364  1  0.37402531  0.73381122  0.25475742  1
  O  O365  1  0.38269266  0.74000975  0.73986663  1
  O  O366  1  0.87424073  0.23297383  0.26025527  1
  O  O367  1  0.87226854  0.25326633  0.74387052  1
  O  O368  1  0.87547037  0.74903105  0.23586603  1
  O  O369  1  0.88912784  0.76477668  0.74918108  1
  O  O370  1  0.36922980  0.49091315  0.48443894  1
  O  O371  1  0.38855012  0.50780137  1.00332189  1
  O  O372  1  0.38224719  0.99364985  0.49326492  1
  O  O373  1  0.36996727  0.98147927  0.98686430  1
  O  O374  1  0.86493347  0.47999929  0.49413510  1
  O  O375  1  0.86844000  0.48221956  0.98333366  1
  O  O376  1  0.87426071  0.99047551  0.48823686  1
  O  O377  1  0.89157852  1.00324485  1.01048537  1
  O  O378  1  0.11965744  0.01077312  0.00608036  1
  O  O379  1  0.12751189  0.01722987  0.49784977  1
  O  O380  1  0.13815588  0.51503268  0.01593859  1
  O  O381  1  0.19182268  0.52720246  0.50304558  1
  O  O382  1  0.63605075  -0.01399369  0.00484621  1
  O  O383  1  0.61494701  -0.00685376  0.50850469  1
  O  O384  1  0.61881071  0.50804193  0.01095350  1
  O  O385  1  0.62193753  0.48427837  0.50824937  1
  O  O386  1  0.36283603  0.38128926  0.11892182  1
  O  O387  1  0.38470613  0.37750509  0.60959615  1
  O  O388  1  0.36660566  0.87461397  0.11433634  1
  O  O389  1  0.36422375  0.88256649  0.61335454  1
  O  O390  1  0.86430364  0.38882449  0.10929432  1
  O  O391  1  0.86655220  0.37782707  0.61625474  1
  O  O392  1  0.87915188  0.86869516  0.13294658  1
  O  O393  1  0.86395099  0.88451660  0.61937146  1
  O  O394  1  0.13609686  0.13173632  0.38318088  1
  O  O395  1  0.13571749  0.12173282  0.88627695  1
  O  O396  1  0.12778064  0.64043098  0.36299181  1
  O  O397  1  0.11869025  0.61246642  0.89040746  1
  O  O398  1  0.63119555  0.11615563  0.37245504  1
  O  O399  1  0.61543821  0.14273621  0.86712722  1
  O  O400  1  0.63881480  0.61687783  0.38075516  1
  O  O401  1  0.63420132  0.62042129  0.89014913  1
