# generated using pymatgen
data_V73Zn73O256
_symmetry_space_group_name_H-M   'P 1'
_cell_length_a   16.85832760
_cell_length_b   16.88521854
_cell_length_c   16.95922542
_cell_angle_alpha   89.61817603
_cell_angle_beta   90.44287113
_cell_angle_gamma   89.93029124
_symmetry_Int_Tables_number   1
_chemical_formula_structural   V73Zn73O256
_chemical_formula_sum   'V73 Zn73 O256'
_cell_volume   4827.29924006
_cell_formula_units_Z   1
loop_
 _symmetry_equiv_pos_site_id
 _symmetry_equiv_pos_as_xyz
  1  'x, y, z'
loop_
 _atom_site_type_symbol
 _atom_site_label
 _atom_site_symmetry_multiplicity
 _atom_site_fract_x
 _atom_site_fract_y
 _atom_site_fract_z
 _atom_site_occupancy
  V  V0  1  0.63785541  0.62688032  0.50274647  1
  V  V1  1  0.40532150  0.62955898  0.24418886  1
  V  V2  1  0.62197382  0.00598331  0.12369725  1
  V  V3  1  0.00259111  0.37530588  0.85050925  1
  V  V4  1  0.60862163  0.37660488  0.74769869  1
  V  V5  1  0.38735516  0.61940565  0.76307888  1
  V  V6  1  0.00716446  0.49960290  -0.00476490  1
  V  V7  1  0.86477772  0.50636668  0.86406025  1
  V  V8  1  0.36270147  0.86701888  0.50400823  1
  V  V9  1  0.74523513  0.25791399  -0.00406804  1
  V  V10  1  0.26396517  0.25004919  0.50104480  1
  V  V11  1  0.50823518  0.37218152  0.37927943  1
  V  V12  1  0.83701529  0.12482841  0.74921296  1
  V  V13  1  0.12304667  0.64480278  -0.00539444  1
  V  V14  1  0.37387213  0.87303165  -0.00332858  1
  V  V15  1  0.61335467  0.87368771  0.25742001  1
  V  V16  1  0.87814023  0.75146585  0.12230967  1
  V  V17  1  -0.00154907  0.62263062  0.13102817  1
  V  V18  1  0.03252297  0.11780795  0.64992921  1
  V  V19  1  0.24185969  0.86161608  0.12694268  1
  V  V20  1  0.47964921  0.25065745  0.72444079  1
  V  V21  1  0.61974424  0.61944334  -0.02136801  1
  V  V22  1  0.01353357  0.62075881  0.61909095  1
  V  V23  1  0.01138199  0.87619810  0.87801928  1
  V  V24  1  0.36958220  0.11086855  0.75016791  1
  V  V25  1  0.61482645  0.12707316  0.50507240  1
  V  V26  1  0.50721998  0.25813594  0.24640656  1
  V  V27  1  0.88080643  0.24693053  0.11940759  1
  V  V28  1  0.63111023  -0.01535998  0.63726513  1
  V  V29  1  0.20294271  0.68299061  0.44176710  1
  V  V30  1  0.49481487  -0.00096255  -0.00445839  1
  V  V31  1  0.37729986  0.49765635  0.35862922  1
  V  V32  1  0.24861178  0.11847658  0.88390668  1
  V  V33  1  0.11727734  0.01476282  0.11896053  1
  V  V34  1  0.50523148  0.76566607  0.75869935  1
  V  V35  1  0.75197629  0.87306534  0.11551811  1
  V  V36  1  0.38358397  0.48795954  0.90054140  1
  V  V37  1  0.11742806  0.10893605  0.49129628  1
  V  V38  1  0.88309020  -0.00002150  0.39100194  1
  V  V39  1  0.86155682  0.61829821  0.73516207  1
  V  V40  1  0.24628647  0.64114427  0.87669870  1
  V  V41  1  0.10784632  0.86474089  0.25179814  1
  V  V42  1  -0.00092749  0.86927402  0.39343656  1
  V  V43  1  0.24879703  0.11989805  0.36963184  1
  V  V44  1  0.23153890  0.50824989  0.24139003  1
  V  V45  1  -0.00452788  0.25484214  0.24626966  1
  V  V46  1  0.26389886  0.37301174  0.12363284  1
  V  V47  1  0.12084339  0.26038555  0.37597360  1
  V  V48  1  0.11718764  0.37438613  0.23632436  1
  V  V49  1  0.75287137  -0.00204982  0.25361190  1
  V  V50  1  0.95015132  0.41755219  0.46376357  1
  V  V51  1  0.87821976  0.12708943  0.24553993  1
  V  V52  1  0.39398013  0.74953193  0.12830563  1
  V  V53  1  0.87206329  0.76974595  0.62271743  1
  V  V54  1  0.37637279  0.72288130  0.62721109  1
  V  V55  1  0.75288186  0.24701277  0.50794518  1
  V  V56  1  0.01564656  0.75174827  0.75408153  1
  V  V57  1  0.49986492  -0.01004207  0.50933152  1
  V  V58  1  0.60438770  0.25334660  0.88433399  1
  V  V59  1  0.86576788  0.62274424  0.26498960  1
  V  V60  1  0.12650489  0.26071260  0.86666474  1
  V  V61  1  0.49704711  0.12748204  0.12571755  1
  V  V62  1  0.37373300  0.13327442  0.24577672  1
  V  V63  1  0.74373664  0.37279261  0.62974491  1
  V  V64  1  0.38675503  -0.01018628  0.36641147  1
  V  V65  1  0.87438898  0.37653779  -0.00426626  1
  V  V66  1  0.23714437  0.49799664  0.75841726  1
  V  V67  1  0.73411672  0.11443277  0.88521957  1
  V  V68  1  0.60979033  0.75153357  0.37716791  1
  V  V69  1  0.25527330  0.25365874  0.00466067  1
  V  V70  1  0.49318903  0.51396988  0.49985830  1
  V  V71  1  0.74515478  0.12729484  0.37775892  1
  V  V72  1  0.75878835  0.77252423  0.49573951  1
  Zn  Zn73  1  0.88766112  0.24843164  0.63903183  1
  Zn  Zn74  1  0.24544793  -0.00251528  0.24605529  1
  Zn  Zn75  1  0.71704100  0.41472883  0.16862043  1
  Zn  Zn76  1  0.25229532  0.35666815  0.64378026  1
  Zn  Zn77  1  0.74345965  0.74918662  -0.01687025  1
  Zn  Zn78  1  0.62065641  0.50992566  0.63188214  1
  Zn  Zn79  1  -0.02158213  0.01331205  0.01103300  1
  Zn  Zn80  1  0.68904547  0.30725791  0.31415027  1
  Zn  Zn81  1  0.30152675  -0.05426522  0.83118402  1
  Zn  Zn82  1  0.18605985  0.19110687  0.18669372  1
  Zn  Zn83  1  0.19702189  0.18247214  0.68953603  1
  Zn  Zn84  1  0.17424643  0.68679205  0.18837152  1
  Zn  Zn85  1  0.22533549  0.63678152  0.61894600  1
  Zn  Zn86  1  0.66741415  0.21984406  0.16223341  1
  Zn  Zn87  1  0.66582117  0.18543296  0.68837996  1
  Zn  Zn88  1  0.69199338  0.69168559  0.19841427  1
  Zn  Zn89  1  0.68506565  0.69737190  0.68175864  1
  Zn  Zn90  1  0.31050826  0.31602699  0.31247346  1
  Zn  Zn91  1  0.31859006  0.31642766  0.82264132  1
  Zn  Zn92  1  0.30814515  0.80738112  0.30774512  1
  Zn  Zn93  1  0.21265536  0.80450717  0.72015336  1
  Zn  Zn94  1  0.82619628  0.44380710  0.33229797  1
  Zn  Zn95  1  0.80651737  0.30792341  0.81027645  1
  Zn  Zn96  1  0.82052473  0.81004046  0.31243709  1
  Zn  Zn97  1  0.83553304  0.81496660  0.80178175  1
  Zn  Zn98  1  0.11968298  0.46878149  0.60850065  1
  Zn  Zn99  1  0.19156324  0.44067238  0.93621773  1
  Zn  Zn100  1  0.18714054  0.93336321  0.42875388  1
  Zn  Zn101  1  0.17637956  0.92654339  0.94911582  1
  Zn  Zn102  1  0.68312092  0.43679628  0.44114976  1
  Zn  Zn103  1  0.68234118  0.44012149  0.92968934  1
  Zn  Zn104  1  0.68502663  0.94180754  0.43697809  1
  Zn  Zn105  1  0.82341894  0.94812147  0.92759111  1
  Zn  Zn106  1  0.30586897  0.05793294  0.06455811  1
  Zn  Zn107  1  0.34025930  0.09485444  0.54112593  1
  Zn  Zn108  1  0.30746456  0.57007983  0.06759106  1
  Zn  Zn109  1  0.28323023  0.49031710  0.53385663  1
  Zn  Zn110  1  0.79975830  0.07278193  0.06383561  1
  Zn  Zn111  1  0.80722099  0.05403834  0.57077945  1
  Zn  Zn112  1  0.78904164  0.57208668  0.06526886  1
  Zn  Zn113  1  0.80733329  0.53367435  0.51429940  1
  Zn  Zn114  1  0.44893610  0.44088695  0.17128520  1
  Zn  Zn115  1  0.41999483  0.44145164  0.67847263  1
  Zn  Zn116  1  0.43335867  0.93735907  0.18372152  1
  Zn  Zn117  1  0.39478263  0.91025594  0.70837364  1
  Zn  Zn118  1  0.89911683  0.45730162  0.16802919  1
  Zn  Zn119  1  0.92428613  0.44970157  0.65695751  1
  Zn  Zn120  1  0.93387516  0.94191236  0.18530588  1
  Zn  Zn121  1  0.96038886  0.96177516  0.72174967  1
  Zn  Zn122  1  0.06162396  0.05749401  0.30506240  1
  Zn  Zn123  1  0.04966539  0.07842421  0.85772327  1
  Zn  Zn124  1  0.11167599  0.52296734  0.42612883  1
  Zn  Zn125  1  0.05620154  0.57069904  0.81282165  1
  Zn  Zn126  1  0.56413516  0.06615878  0.31028616  1
  Zn  Zn127  1  0.55389551  0.06671576  0.80980821  1
  Zn  Zn128  1  0.57308536  0.56301562  0.31765604  1
  Zn  Zn129  1  0.56111994  0.55552964  0.82231252  1
  Zn  Zn130  1  0.44235275  0.18376301  0.42494142  1
  Zn  Zn131  1  0.42751463  0.18610551  0.94410274  1
  Zn  Zn132  1  0.41976497  0.68761817  0.43271694  1
  Zn  Zn133  1  0.44483834  0.69039341  0.93987892  1
  Zn  Zn134  1  0.93506866  0.19713907  0.43674819  1
  Zn  Zn135  1  0.92885237  0.18994029  0.92170934  1
  Zn  Zn136  1  0.94488380  0.68790025  0.44185598  1
  Zn  Zn137  1  0.92945019  0.69029737  0.93620255  1
  Zn  Zn138  1  0.06186226  0.30567731  0.05307969  1
  Zn  Zn139  1  0.07569013  0.29124307  0.58134141  1
  Zn  Zn140  1  0.05311286  0.82151811  0.05697537  1
  Zn  Zn141  1  0.07113345  0.80047585  0.56287120  1
  Zn  Zn142  1  0.56614008  0.34605420  0.06474302  1
  Zn  Zn143  1  0.55623161  0.31269324  0.55941310  1
  Zn  Zn144  1  0.56761472  0.81191899  0.05529804  1
  Zn  Zn145  1  0.55228133  0.81072118  0.56700362  1
  O  O146  1  0.12613915  0.11382307  0.12990836  1
  O  O147  1  0.13094162  0.12502778  0.60505876  1
  O  O148  1  0.10655180  0.63203558  0.10955885  1
  O  O149  1  0.11076034  0.64344354  0.62891876  1
  O  O150  1  0.61244824  0.11809001  0.13404039  1
  O  O151  1  0.62187726  0.11031527  0.60826054  1
  O  O152  1  0.63795706  0.61358652  0.12715081  1
  O  O153  1  0.62312003  0.62637745  0.60622253  1
  O  O154  1  0.39222209  0.39036394  0.35511046  1
  O  O155  1  0.37265255  0.38789494  0.89100349  1
  O  O156  1  0.37187895  0.88709104  0.37578653  1
  O  O157  1  0.36779544  0.87384167  0.89968266  1
  O  O158  1  0.88848463  0.36991809  0.39846356  1
  O  O159  1  0.88624715  0.37800967  0.87243711  1
  O  O160  1  0.88576497  0.89025480  0.37377636  1
  O  O161  1  0.88982803  0.88099523  0.86981398  1
  O  O162  1  0.25831862  0.00801230  0.36749230  1
  O  O163  1  0.23847120  0.01412254  0.89359009  1
  O  O164  1  0.27411852  0.49283253  0.34262417  1
  O  O165  1  0.26301064  0.50799229  0.87450707  1
  O  O166  1  0.76205079  0.00408413  0.37140253  1
  O  O167  1  0.73091854  0.01515988  0.89182892  1
  O  O168  1  0.76836416  0.50082561  0.41183814  1
  O  O169  1  0.76717183  0.48962927  0.86511712  1
  O  O170  1  0.25351217  0.48680658  0.13623834  1
  O  O171  1  0.23187470  0.52375786  0.65511689  1
  O  O172  1  0.23688250  0.98899439  0.12779822  1
  O  O173  1  0.16782446  0.93666483  0.61660020  1
  O  O174  1  0.79246267  0.48186563  0.12403263  1
  O  O175  1  0.73824513  0.47469921  0.61071279  1
  O  O176  1  0.74045314  0.99459691  0.13545694  1
  O  O177  1  0.73202297  0.99331493  0.62879288  1
  O  O178  1  0.00349459  0.35996367  0.24332022  1
  O  O179  1  -0.00651504  0.37982963  0.75411094  1
  O  O180  1  0.00585155  0.87406581  0.24765506  1
  O  O181  1  -0.00622874  0.85409085  0.74826067  1
  O  O182  1  0.50221905  0.36119330  0.25123169  1
  O  O183  1  0.49716552  0.36340238  0.73494210  1
  O  O184  1  0.51529596  0.87947956  0.24645219  1
  O  O185  1  0.49075882  0.86563510  0.74733346  1
  O  O186  1  0.49153101  0.13171482  0.24708817  1
  O  O187  1  0.47871505  0.14300984  0.75788983  1
  O  O188  1  0.50371016  0.63323178  0.24681349  1
  O  O189  1  0.48831642  0.62178174  0.75721127  1
  O  O190  1  0.98595189  0.13569311  0.25903127  1
  O  O191  1  1.04777627  0.11867486  0.74801941  1
  O  O192  1  0.99605743  0.62597923  0.22792044  1
  O  O193  1  0.99236573  0.63915916  0.74454321  1
  O  O194  1  0.35604366  0.25762464  -0.00081401  1
  O  O195  1  0.36230147  0.20893286  0.49989934  1
  O  O196  1  0.38275575  0.76242820  0.01711347  1
  O  O197  1  0.38005822  0.75837163  0.51315861  1
  O  O198  1  0.86898916  0.25671054  -0.00346087  1
  O  O199  1  0.85538215  0.23831424  0.51139331  1
  O  O200  1  0.86116231  0.74477038  0.01486030  1
  O  O201  1  0.86743163  0.75338883  0.51066101  1
  O  O202  1  0.13924233  0.24123779  0.48182631  1
  O  O203  1  0.13858202  0.25748204  0.98521092  1
  O  O204  1  0.14250301  0.74643097  0.49409869  1
  O  O205  1  0.11785561  0.74324368  0.99867520  1
  O  O206  1  0.61927916  0.23077051  0.50172046  1
  O  O207  1  0.62547280  0.27295253  0.98846641  1
  O  O208  1  0.63300880  0.74699667  0.49347131  1
  O  O209  1  0.63060218  0.73541866  1.00829610  1
  O  O210  1  0.50382739  0.24024943  0.14042685  1
  O  O211  1  0.48754186  0.24533078  0.62588713  1
  O  O212  1  0.49157475  0.76079871  0.13286345  1
  O  O213  1  0.47983970  0.75274952  0.63355222  1
  O  O214  1  0.99143238  0.24476218  0.12846129  1
  O  O215  1  0.99595481  0.21465876  0.62361731  1
  O  O216  1  0.98460686  0.74413446  0.11385094  1
  O  O217  1  0.98852683  0.74418786  0.63174695  1
  O  O218  1  0.01434658  0.24747692  0.36558580  1
  O  O219  1  0.01286843  0.26489905  0.87237490  1
  O  O220  1  -0.00888229  0.77124262  0.37798040  1
  O  O221  1  -0.00880809  0.75693187  0.86091119  1
  O  O222  1  0.49515328  0.26628923  0.36817087  1
  O  O223  1  0.50376217  0.25222617  0.88737344  1
  O  O224  1  0.51126477  0.75361993  0.38363794  1
  O  O225  1  0.49416736  0.75222610  0.85850614  1
  O  O226  1  0.23827878  0.12341095  0.48379388  1
  O  O227  1  0.25638133  0.13919982  0.99454542  1
  O  O228  1  0.25893469  0.62138061  0.50745517  1
  O  O229  1  0.23094461  0.62339614  0.99567316  1
  O  O230  1  0.73726145  0.12866158  0.49756213  1
  O  O231  1  0.73717779  0.14100677  0.99160832  1
  O  O232  1  0.73912304  0.63022101  0.50268973  1
  O  O233  1  0.73648465  0.63323414  0.99317638  1
  O  O234  1  0.24490123  0.37255095  0.01716527  1
  O  O235  1  0.27436087  0.34372691  0.47837888  1
  O  O236  1  0.26154289  0.87861169  0.01832265  1
  O  O237  1  0.26367591  0.87603693  0.48775217  1
  O  O238  1  0.76311608  0.36878483  -0.01497794  1
  O  O239  1  0.73040969  0.35227189  0.51272448  1
  O  O240  1  0.74506245  0.87695695  0.01657555  1
  O  O241  1  0.74962443  0.87100677  0.50261298  1
  O  O242  1  0.13230703  0.48878666  0.25361611  1
  O  O243  1  0.13840978  0.50108193  0.77526659  1
  O  O244  1  0.12374231  0.98780556  0.23690921  1
  O  O245  1  0.18685337  0.98319928  0.67135065  1
  O  O246  1  0.63122074  0.51749242  0.22520618  1
  O  O247  1  0.60755019  0.48169521  0.74605272  1
  O  O248  1  0.63190684  0.99107717  0.24837975  1
  O  O249  1  0.60659623  1.00642405  0.73256774  1
  O  O250  1  0.37364627  0.00496453  0.25825517  1
  O  O251  1  0.38574216  0.01174048  0.77200749  1
  O  O252  1  0.39241303  0.51505753  0.24236255  1
  O  O253  1  0.37034833  0.51191904  0.76076743  1
  O  O254  1  0.86796578  0.00890108  0.25457629  1
  O  O255  1  0.87940438  0.03363290  0.76177181  1
  O  O256  1  0.88749564  0.51728564  0.26345831  1
  O  O257  1  0.88026992  0.50865930  0.75319395  1
  O  O258  1  0.13239705  0.35831894  0.35953159  1
  O  O259  1  0.11333300  0.37247995  0.87366851  1
  O  O260  1  0.10834721  0.88532878  0.36023560  1
  O  O261  1  0.11452087  0.86091988  0.88088113  1
  O  O262  1  0.61255303  0.37955663  0.36977144  1
  O  O263  1  0.62161432  0.36492114  0.85607261  1
  O  O264  1  0.62603148  0.86969997  0.36548507  1
  O  O265  1  0.68845003  0.83789268  0.83937183  1
  O  O266  1  0.38072015  0.11712836  0.13875829  1
  O  O267  1  0.35534648  0.10815300  0.65071798  1
  O  O268  1  0.37673384  0.63982586  0.13256950  1
  O  O269  1  0.37536342  0.62179444  0.64014327  1
  O  O270  1  0.87007413  0.13053047  0.13734580  1
  O  O271  1  0.84404959  0.13250574  0.64453913  1
  O  O272  1  0.87949199  0.63702411  0.12996978  1
  O  O273  1  0.88780721  0.61902623  0.63496966  1
  O  O274  1  0.24340898  0.26018038  0.11530498  1
  O  O275  1  0.24862811  0.24435695  0.60534709  1
  O  O276  1  0.24848157  0.75977048  0.12763662  1
  O  O277  1  0.27176018  0.74391505  0.63714719  1
  O  O278  1  0.76725073  0.24047929  0.10494074  1
  O  O279  1  0.73297288  0.25035940  0.61540267  1
  O  O280  1  0.75184917  0.76646847  0.13039797  1
  O  O281  1  0.76274345  0.75087839  0.61196812  1
  O  O282  1  0.24300676  0.23649719  0.37159559  1
  O  O283  1  0.24409152  0.25489070  0.88845703  1
  O  O284  1  0.26877935  0.73439150  0.38174677  1
  O  O285  1  0.25328674  0.73682162  0.87489812  1
  O  O286  1  0.74312165  0.23717957  0.39431202  1
  O  O287  1  0.73188989  0.24958157  0.88348511  1
  O  O288  1  0.74898207  0.75946559  0.39223685  1
  O  O289  1  0.73998024  0.77263491  0.86478742  1
  O  O290  1  -0.00225897  0.10768581  -0.04777689  1
  O  O291  1  0.01823089  0.12947931  0.48851797  1
  O  O292  1  0.00836772  0.62021486  -0.00757878  1
  O  O293  1  -0.00272612  0.62559313  0.51920360  1
  O  O294  1  0.48407608  0.11275545  0.01686986  1
  O  O295  1  0.51050997  0.11004727  0.48555808  1
  O  O296  1  0.51864443  0.63089433  0.00171114  1
  O  O297  1  0.49967844  0.61693426  0.49103719  1
  O  O298  1  0.50319866  0.38501584  0.48307732  1
  O  O299  1  0.50471105  0.43491234  1.07754836  1
  O  O300  1  0.48751208  0.88565922  0.49530928  1
  O  O301  1  0.48798447  0.88742265  1.01214677  1
  O  O302  1  1.00168055  0.34537989  0.51339631  1
  O  O303  1  0.99079930  0.38180486  0.99139988  1
  O  O304  1  1.01221858  0.87550705  0.49171088  1
  O  O305  1  0.99984415  0.89081366  0.98184395  1
  O  O306  1  0.49941592  0.49205692  0.37394846  1
  O  O307  1  0.48257400  0.50072651  0.88194603  1
  O  O308  1  0.48923930  1.00025177  0.37362480  1
  O  O309  1  0.50379234  1.01011622  0.89829917  1
  O  O310  1  1.00977276  0.48075770  0.41051428  1
  O  O311  1  0.99404840  0.48851198  0.87463753  1
  O  O312  1  0.98655080  0.99743888  0.37280581  1
  O  O313  1  1.01719046  0.97230094  0.83467855  1
  O  O314  1  0.01125196  -0.00243729  0.12411601  1
  O  O315  1  -0.01268424  0.02925081  0.63056713  1
  O  O316  1  -0.01571732  0.51735245  0.10753138  1
  O  O317  1  0.01988932  0.51585765  0.64240294  1
  O  O318  1  0.50490230  0.01018908  0.12994625  1
  O  O319  1  0.49789596  0.00133176  0.60648457  1
  O  O320  1  0.59641882  0.55093009  0.15698597  1
  O  O321  1  0.49726339  0.49506153  0.60040572  1
  O  O322  1  0.23954241  0.37534824  0.23731059  1
  O  O323  1  0.26072360  0.39506909  0.75685703  1
  O  O324  1  0.23958515  0.87459017  0.23980593  1
  O  O325  1  0.28703898  0.88226010  0.74424553  1
  O  O326  1  0.76054781  0.37768031  0.26752495  1
  O  O327  1  0.72362162  0.35910884  0.73800834  1
  O  O328  1  0.74803424  0.88800445  0.24994568  1
  O  O329  1  0.72333321  0.87624004  0.78263237  1
  O  O330  1  0.25763246  0.12566214  0.25356788  1
  O  O331  1  0.25812657  0.12399196  0.76920339  1
  O  O332  1  0.24337925  0.60849303  0.23499133  1
  O  O333  1  0.25849106  0.61843923  0.77082317  1
  O  O334  1  0.75695012  0.11499093  0.26176151  1
  O  O335  1  0.73126114  0.12579056  0.76578170  1
  O  O336  1  0.76501620  0.62325538  0.25333601  1
  O  O337  1  0.76194877  0.62440333  0.73297092  1
  O  O338  1  0.36883311  0.11248959  0.36275509  1
  O  O339  1  0.35707198  0.13228446  0.87099288  1
  O  O340  1  0.38489348  0.61457303  0.35025126  1
  O  O341  1  0.36769019  0.62349877  0.87429748  1
  O  O342  1  0.86673551  0.11822685  0.37029218  1
  O  O343  1  0.83805477  0.13240990  0.87102398  1
  O  O344  1  0.88115056  0.64105887  0.36187802  1
  O  O345  1  0.87737068  0.61261072  0.85922801  1
  O  O346  1  0.12471028  0.37004785  0.13442952  1
  O  O347  1  0.13776015  0.36154444  0.64004857  1
  O  O348  1  0.13015629  0.87417370  0.13083658  1
  O  O349  1  0.13109440  0.86344570  0.64513547  1
  O  O350  1  0.64699424  0.33301014  0.14123089  1
  O  O351  1  0.62220576  0.37186265  0.63459219  1
  O  O352  1  0.63575026  0.88100665  0.14030499  1
  O  O353  1  0.61633642  0.88530203  0.62233936  1
  O  O354  1  0.11622833  0.25306542  0.25544519  1
  O  O355  1  0.14429719  0.25434711  0.76826957  1
  O  O356  1  0.12265449  0.76535377  0.25043206  1
  O  O357  1  0.11518452  0.74847925  0.75077876  1
  O  O358  1  0.60920273  0.23442033  0.26584876  1
  O  O359  1  0.59525889  0.25418155  0.75650057  1
  O  O360  1  0.63039358  0.76245725  0.26640108  1
  O  O361  1  0.60370328  0.74722342  0.73708545  1
  O  O362  1  0.38672625  0.23973949  0.25851356  1
  O  O363  1  0.37727489  0.25147596  0.74737589  1
  O  O364  1  0.37522551  0.73757967  0.24059630  1
  O  O365  1  0.38556990  0.73078047  0.74067965  1
  O  O366  1  0.88111080  0.24328501  0.23592379  1
  O  O367  1  0.87326454  0.22739886  0.75882176  1
  O  O368  1  0.87111557  0.74067831  0.23386662  1
  O  O369  1  0.87488684  0.73609643  0.73246136  1
  O  O370  1  0.38563356  0.50722432  0.46777503  1
  O  O371  1  0.37058856  0.50868457  0.99853485  1
  O  O372  1  0.38372672  1.00019502  0.48396957  1
  O  O373  1  0.38387368  0.98680077  1.01326389  1
  O  O374  1  0.89863721  0.47273695  0.53950313  1
  O  O375  1  0.88459357  0.49301620  0.97643723  1
  O  O376  1  0.87278534  1.00831356  0.48886099  1
  O  O377  1  0.86619136  0.99882051  1.01622077  1
  O  O378  1  0.12154305  -0.00130757  0.01763145  1
  O  O379  1  0.12394688  0.00981231  0.48751281  1
  O  O380  1  0.10994922  0.50229076  -0.00534797  1
  O  O381  1  0.17211553  0.47784066  0.50860923  1
  O  O382  1  0.60544440  -0.00658884  0.02162536  1
  O  O383  1  0.61284026  0.00025869  0.50550630  1
  O  O384  1  0.63328978  0.51427428  -0.00493619  1
  O  O385  1  0.61143551  0.51725476  0.49273836  1
  O  O386  1  0.36099382  0.36726732  0.13606264  1
  O  O387  1  0.34074053  0.41433298  0.60393602  1
  O  O388  1  0.36212650  0.86211336  0.13168531  1
  O  O389  1  0.36835296  0.88630192  0.60088858  1
  O  O390  1  0.88420211  0.35906466  0.10512145  1
  O  O391  1  0.84814867  0.35901488  0.64483133  1
  O  O392  1  0.86229170  0.86518917  0.13255941  1
  O  O393  1  0.87732684  0.86528168  0.63431438  1
  O  O394  1  0.13166317  0.12733621  0.37396821  1
  O  O395  1  0.14471580  0.14471237  0.87748086  1
  O  O396  1  0.14415480  0.62191731  0.38431613  1
  O  O397  1  0.13247479  0.62749084  0.88594955  1
  O  O398  1  0.63800747  0.10788101  0.38838486  1
  O  O399  1  0.62204462  0.14491532  0.87375247  1
  O  O400  1  0.62419056  0.64322759  0.38451163  1
  O  O401  1  0.62518791  0.62755346  0.87799641  1
