# generated using pymatgen
data_V73Zn73O256
_symmetry_space_group_name_H-M   'P 1'
_cell_length_a   16.94123778
_cell_length_b   16.83989092
_cell_length_c   16.84656754
_cell_angle_alpha   90.12307364
_cell_angle_beta   89.76055864
_cell_angle_gamma   90.20565563
_symmetry_Int_Tables_number   1
_chemical_formula_structural   V73Zn73O256
_chemical_formula_sum   'V73 Zn73 O256'
_cell_volume   4806.04974234
_cell_formula_units_Z   1
loop_
 _symmetry_equiv_pos_site_id
 _symmetry_equiv_pos_as_xyz
  1  'x, y, z'
loop_
 _atom_site_type_symbol
 _atom_site_label
 _atom_site_symmetry_multiplicity
 _atom_site_fract_x
 _atom_site_fract_y
 _atom_site_fract_z
 _atom_site_occupancy
  V  V0  1  0.00449006  0.88880403  0.36681573  1
  V  V1  1  0.86138045  0.38032269  -0.00688689  1
  V  V2  1  0.74035994  0.86952765  0.62191164  1
  V  V3  1  0.11909487  0.88241211  0.75839283  1
  V  V4  1  0.61232806  0.50177899  0.13616497  1
  V  V5  1  0.12402182  0.38369020  0.25523597  1
  V  V6  1  0.40608764  0.71347568  0.12612234  1
  V  V7  1  0.65353187  0.74446376  0.88195158  1
  V  V8  1  0.12775288  0.75309189  0.38509387  1
  V  V9  1  0.74857731  0.37385498  0.62139928  1
  V  V10  1  0.74457112  0.63151943  0.37847507  1
  V  V11  1  0.87418829  0.24463103  0.62184990  1
  V  V12  1  0.88484730  0.62150561  0.74294615  1
  V  V13  1  0.74244530  0.36200001  0.12456685  1
  V  V14  1  0.37903883  0.38039045  0.00044417  1
  V  V15  1  -0.00139522  0.74817210  0.71722262  1
  V  V16  1  0.88363025  0.87559527  0.50775572  1
  V  V17  1  0.87368638  0.12009384  0.75722716  1
  V  V18  1  0.12423910  0.11130171  0.50408210  1
  V  V19  1  0.74713119  0.24038093  0.49367787  1
  V  V20  1  0.49332401  0.74413414  0.76526612  1
  V  V21  1  0.24905498  0.13609191  0.38045952  1
  V  V22  1  0.36921960  0.74356252  0.62410978  1
  V  V23  1  0.75777677  0.49137454  0.25046640  1
  V  V24  1  0.49514566  0.48334000  0.49549496  1
  V  V25  1  0.25911747  0.11940158  0.87873817  1
  V  V26  1  0.50130243  0.38614223  0.87792985  1
  V  V27  1  0.49818343  -0.00720046  0.49615862  1
  V  V28  1  0.74885674  0.00167982  0.74840405  1
  V  V29  1  0.62515555  0.37404791  0.74690131  1
  V  V30  1  0.24915184  0.88287901  0.62115609  1
  V  V31  1  0.54431632  0.76812095  0.31411109  1
  V  V32  1  0.61632382  0.10570736  0.00422446  1
  V  V33  1  0.00873427  0.75263984  0.23751937  1
  V  V34  1  0.35623094  0.50777382  0.86557255  1
  V  V35  1  0.88560093  0.37419098  0.48951000  1
  V  V36  1  0.00013178  0.25093774  0.74866331  1
  V  V37  1  0.37276958  0.12647177  0.25469870  1
  V  V38  1  0.74651247  0.12515300  0.88255220  1
  V  V39  1  0.25401099  0.63707366  0.38368611  1
  V  V40  1  0.50645023  0.62565087  0.61821033  1
  V  V41  1  0.25263453  0.25596155  0.00591467  1
  V  V42  1  0.61953642  0.87813552  0.75716587  1
  V  V43  1  0.25177891  0.73563744  0.00420784  1
  V  V44  1  0.00178434  0.61133138  0.10904536  1
  V  V45  1  0.62374257  0.25032078  0.88731421  1
  V  V46  1  0.49661552  0.36947067  0.35686301  1
  V  V47  1  0.84839028  0.00186848  0.37478865  1
  V  V48  1  0.00323404  0.11199478  0.62178683  1
  V  V49  1  0.36664572  -0.01036620  0.37198395  1
  V  V50  1  0.49653142  0.10789639  0.12852914  1
  V  V51  1  0.63021877  0.60956552  0.00054411  1
  V  V52  1  -0.01021086  0.38544900  0.87526823  1
  V  V53  1  0.11086818  0.26053162  0.38678321  1
  V  V54  1  0.86399851  0.11883402  0.23634780  1
  V  V55  1  0.14253008  0.37989848  0.74333552  1
  V  V56  1  0.65609395  0.88250963  0.24525048  1
  V  V57  1  0.38306637  0.25675685  0.13437429  1
  V  V58  1  0.49407666  0.11707255  0.63090263  1
  V  V59  1  0.10493173  0.72750579  0.87320739  1
  V  V60  1  0.36898118  0.25566575  0.61262881  1
  V  V61  1  -0.00060851  -0.01434017  -0.00488131  1
  V  V62  1  0.62505875  0.11744916  0.50113380  1
  V  V63  1  0.26395728  0.00157078  0.75755055  1
  V  V64  1  0.12281930  -0.01417488  0.14070623  1
  V  V65  1  0.75488993  0.50458994  0.76072311  1
  V  V66  1  0.86244846  0.76106996  0.11445543  1
  V  V67  1  0.49243475  0.24727039  0.75098920  1
  V  V68  1  0.12436792  0.25001991  0.87552621  1
  V  V69  1  0.26274560  0.50870288  0.25208037  1
  V  V70  1  0.62130761  0.24907127  0.36512395  1
  V  V71  1  0.10818833  0.13732860  0.02153263  1
  V  V72  1  0.11954383  0.51778643  0.60750546  1
  Zn  Zn73  1  0.00141922  0.24785496  0.24118268  1
  Zn  Zn74  1  0.25980113  0.38598460  0.59318806  1
  Zn  Zn75  1  0.74821137  0.73692945  0.50906401  1
  Zn  Zn76  1  0.63305668  0.51392805  0.61750411  1
  Zn  Zn77  1  0.87814646  0.49642965  0.37615827  1
  Zn  Zn78  1  0.88722249  0.24188701  0.11562760  1
  Zn  Zn79  1  0.36883465  0.87053408  0.49490354  1
  Zn  Zn80  1  0.87733165  0.62588026  0.24761079  1
  Zn  Zn81  1  0.13711309  0.50721852  0.11585922  1
  Zn  Zn82  1  0.19402310  0.20123178  0.19777230  1
  Zn  Zn83  1  0.18906895  0.18405444  0.68788200  1
  Zn  Zn84  1  0.18723226  0.68782669  0.18569787  1
  Zn  Zn85  1  0.18449147  0.68946169  0.68139621  1
  Zn  Zn86  1  0.68777594  0.17067909  0.18799156  1
  Zn  Zn87  1  0.68121234  0.18504018  0.68630755  1
  Zn  Zn88  1  0.69043021  0.67944325  0.19156725  1
  Zn  Zn89  1  0.68664852  0.69213127  0.69290808  1
  Zn  Zn90  1  0.28873598  0.34644760  0.37886852  1
  Zn  Zn91  1  0.31677438  0.31103646  0.81862741  1
  Zn  Zn92  1  0.34064399  0.78261781  0.31160565  1
  Zn  Zn93  1  0.30203907  0.80455454  0.81383368  1
  Zn  Zn94  1  0.81016559  0.30406897  0.30723113  1
  Zn  Zn95  1  0.80791485  0.30748594  0.81143930  1
  Zn  Zn96  1  0.82212606  0.81332999  0.30629470  1
  Zn  Zn97  1  0.81725845  0.80607418  0.79460895  1
  Zn  Zn98  1  0.18379559  0.45675074  0.43663409  1
  Zn  Zn99  1  0.18374346  0.44317094  0.94076693  1
  Zn  Zn100  1  0.18633764  0.94083787  0.42968401  1
  Zn  Zn101  1  0.32229749  0.91701307  0.95940185  1
  Zn  Zn102  1  0.67747475  0.43874259  0.43588972  1
  Zn  Zn103  1  0.68525643  0.43753911  0.94072748  1
  Zn  Zn104  1  0.67010329  0.90182511  0.44227382  1
  Zn  Zn105  1  0.69583706  0.93379762  0.94272665  1
  Zn  Zn106  1  0.30041462  0.06497917  0.06893928  1
  Zn  Zn107  1  0.31178530  0.06571330  0.56342052  1
  Zn  Zn108  1  0.31642428  0.56173946  0.06521906  1
  Zn  Zn109  1  0.30926249  0.56011794  0.56205282  1
  Zn  Zn110  1  0.80586446  0.03830594  0.05750573  1
  Zn  Zn111  1  0.81312073  0.05319812  0.56054862  1
  Zn  Zn112  1  0.81292609  0.56671482  0.06492102  1
  Zn  Zn113  1  0.81983380  0.56073249  0.56192945  1
  Zn  Zn114  1  0.43137058  0.43973607  0.19319564  1
  Zn  Zn115  1  0.43292305  0.43979391  0.68826233  1
  Zn  Zn116  1  0.50996755  0.91924772  0.19387568  1
  Zn  Zn117  1  0.43739079  0.92993040  0.68970697  1
  Zn  Zn118  1  0.94546232  0.41323197  0.17761677  1
  Zn  Zn119  1  0.93737507  0.43766913  0.67981795  1
  Zn  Zn120  1  0.93740964  0.94347485  0.18265373  1
  Zn  Zn121  1  0.93578256  0.93622468  0.69330621  1
  Zn  Zn122  1  0.05600955  0.07413243  0.30647135  1
  Zn  Zn123  1  0.06447596  0.06474760  0.81692444  1
  Zn  Zn124  1  0.07604171  0.57676555  0.30225089  1
  Zn  Zn125  1  0.06049776  0.55765262  0.79493645  1
  Zn  Zn126  1  0.56234720  0.05994091  0.31690809  1
  Zn  Zn127  1  0.55979631  0.06062809  0.81644151  1
  Zn  Zn128  1  0.55987245  0.56647119  0.31770627  1
  Zn  Zn129  1  0.56717329  0.56832142  0.81004911  1
  Zn  Zn130  1  0.44135694  0.18697250  0.43898560  1
  Zn  Zn131  1  0.44054417  0.18820080  0.94307877  1
  Zn  Zn132  1  0.43436021  0.68185176  0.43951651  1
  Zn  Zn133  1  0.43932363  0.67962664  0.95278021  1
  Zn  Zn134  1  0.93793045  0.17597071  0.43405460  1
  Zn  Zn135  1  0.92953789  0.19729751  0.93911927  1
  Zn  Zn136  1  0.92593225  0.69640103  0.42062195  1
  Zn  Zn137  1  0.92347634  0.67827130  0.93451901  1
  Zn  Zn138  1  0.06969544  0.34147655  0.06200729  1
  Zn  Zn139  1  0.06732870  0.31142642  0.56406216  1
  Zn  Zn140  1  0.07455024  0.81312855  0.05333109  1
  Zn  Zn141  1  0.06970488  0.82737541  0.55826857  1
  Zn  Zn142  1  0.55877992  0.31479065  0.06901135  1
  Zn  Zn143  1  0.56087565  0.30583020  0.56100341  1
  Zn  Zn144  1  0.59867106  0.78714399  0.08325306  1
  Zn  Zn145  1  0.54796429  0.78870749  0.53145094  1
  O  O146  1  0.11802144  0.15812923  0.11953832  1
  O  O147  1  0.11760612  0.13069112  0.61363248  1
  O  O148  1  0.10777621  0.62201843  0.12496905  1
  O  O149  1  0.12472185  0.61881947  0.62083589  1
  O  O150  1  0.61146418  0.12215701  0.11501105  1
  O  O151  1  0.60857313  0.12900460  0.61414300  1
  O  O152  1  0.62938474  0.60954336  0.11805678  1
  O  O153  1  0.61130861  0.63212977  0.62794030  1
  O  O154  1  0.39895991  0.36117826  0.37086984  1
  O  O155  1  0.38418756  0.38372847  0.88063565  1
  O  O156  1  0.35856382  0.88516386  0.37515811  1
  O  O157  1  0.50009102  0.93855775  0.91418220  1
  O  O158  1  0.87185583  0.36829283  0.38616847  1
  O  O159  1  0.87812507  0.36867072  0.87844814  1
  O  O160  1  0.88393043  0.88706798  0.37929111  1
  O  O161  1  0.87773870  0.87614714  0.87931711  1
  O  O162  1  0.26219743  0.01418603  0.38047322  1
  O  O163  1  0.25140989  0.01153316  0.86981889  1
  O  O164  1  0.24786119  0.52974165  0.37026133  1
  O  O165  1  0.25595432  0.49896370  0.87695725  1
  O  O166  1  0.75164133  -0.01593129  0.38177301  1
  O  O167  1  0.74397387  0.01522712  0.86299930  1
  O  O168  1  0.74774717  0.49508899  0.36162955  1
  O  O169  1  0.74730765  0.49079348  0.85911486  1
  O  O170  1  0.25184906  0.50626530  0.14446404  1
  O  O171  1  0.23142156  0.49732828  0.61649597  1
  O  O172  1  0.21713631  1.02877142  0.13181633  1
  O  O173  1  0.25441118  0.99253166  0.64116931  1
  O  O174  1  0.74290781  0.49274629  0.13910773  1
  O  O175  1  0.74864789  0.48438283  0.62895946  1
  O  O176  1  0.74620211  0.94426676  0.04133632  1
  O  O177  1  0.75032693  0.99381453  0.64098137  1
  O  O178  1  0.02051972  0.38786752  0.26552449  1
  O  O179  1  -0.00397598  0.36108924  0.75315745  1
  O  O180  1  -0.00635038  0.86650620  0.26127013  1
  O  O181  1  0.01006014  0.86174042  0.73836451  1
  O  O182  1  0.50524070  0.37647211  0.25762487  1
  O  O183  1  0.50899497  0.36798394  0.75546757  1
  O  O184  1  0.47956288  0.83518449  0.26883824  1
  O  O185  1  0.51478169  0.86538804  0.74933819  1
  O  O186  1  0.49267665  0.12157172  0.23728893  1
  O  O187  1  0.50910530  0.13067623  0.73833865  1
  O  O188  1  0.51596606  0.67032479  0.29176379  1
  O  O189  1  0.50282118  0.63958961  0.74179915  1
  O  O190  1  0.97489493  0.13217891  0.25427310  1
  O  O191  1  0.99346211  0.13279728  0.74585924  1
  O  O192  1  0.99935038  0.64070898  0.24439099  1
  O  O193  1  0.99154213  0.63229740  0.73630104  1
  O  O194  1  0.37007198  0.25669513  0.00654182  1
  O  O195  1  0.37856696  0.24906527  0.51276225  1
  O  O196  1  0.36840518  0.73963132  0.02673631  1
  O  O197  1  0.37835673  0.75623128  0.52050423  1
  O  O198  1  0.86947924  0.26635278  0.00470491  1
  O  O199  1  0.86640090  0.24937401  0.50533949  1
  O  O200  1  0.87624678  0.74476817  0.01378521  1
  O  O201  1  0.86401936  0.77229398  0.48818324  1
  O  O202  1  0.12125002  0.24110388  0.49044284  1
  O  O203  1  0.13300777  0.25628875  0.99232945  1
  O  O204  1  0.12504289  0.75879294  0.48500058  1
  O  O205  1  0.14159558  0.75227803  0.97332965  1
  O  O206  1  0.63178393  0.23854765  0.49692208  1
  O  O207  1  0.61791352  0.24803507  0.98923708  1
  O  O208  1  0.65436453  0.79963250  0.50413751  1
  O  O209  1  0.64161850  0.75792786  0.98394338  1
  O  O210  1  0.48657466  0.24006562  0.12020377  1
  O  O211  1  0.49065758  0.24207403  0.63191771  1
  O  O212  1  0.49964049  0.75129978  0.12435952  1
  O  O213  1  0.49140642  0.74178172  0.62938283  1
  O  O214  1  0.98885680  0.30040647  0.13597976  1
  O  O215  1  0.99053157  0.24198564  0.63194552  1
  O  O216  1  1.00375372  0.74714739  0.12985503  1
  O  O217  1  1.00389283  0.74977460  0.61876944  1
  O  O218  1  0.00937885  0.24426268  0.37380035  1
  O  O219  1  0.00518422  0.25464116  0.86359947  1
  O  O220  1  0.00938456  0.75866351  0.36504963  1
  O  O221  1  0.00586452  0.74516788  0.87654936  1
  O  O222  1  0.51225986  0.25633832  0.37902331  1
  O  O223  1  0.50617393  0.25599597  0.86827036  1
  O  O224  1  0.51425173  0.76386171  0.41688838  1
  O  O225  1  0.49397735  0.74406669  0.86500306  1
  O  O226  1  0.23483380  0.12246238  0.49674097  1
  O  O227  1  0.23479053  0.13759300  0.98981085  1
  O  O228  1  0.25973164  0.63328479  0.48399401  1
  O  O229  1  0.25444282  0.63537133  0.99701271  1
  O  O230  1  0.73890920  0.13003113  0.51224031  1
  O  O231  1  0.72999771  0.11744947  0.99249686  1
  O  O232  1  0.75915813  0.62316913  0.48656690  1
  O  O233  1  0.73362872  0.61983252  1.00189164  1
  O  O234  1  0.26386340  0.36067861  -0.01121688  1
  O  O235  1  0.25291544  0.38069071  0.48098996  1
  O  O236  1  0.28418254  0.81894630  -0.07199603  1
  O  O237  1  0.24659022  0.88694139  0.51802834  1
  O  O238  1  0.75250449  0.37240046  0.00618156  1
  O  O239  1  0.75318535  0.36059465  0.50826384  1
  O  O240  1  0.84215421  0.87725560  -0.05542463  1
  O  O241  1  0.76287126  0.89300685  0.52051253  1
  O  O242  1  0.13170404  0.49541988  0.24661878  1
  O  O243  1  0.13085486  0.48169250  0.74581767  1
  O  O244  1  0.11127115  0.99948832  0.24203337  1
  O  O245  1  0.12729259  0.98627262  0.75760772  1
  O  O246  1  0.62998504  0.50450228  0.24061518  1
  O  O247  1  0.63414109  0.48814888  0.74430375  1
  O  O248  1  0.60895749  0.97940341  0.25336833  1
  O  O249  1  0.62958160  0.98478185  0.76043663  1
  O  O250  1  0.38246703  0.01231170  0.27117573  1
  O  O251  1  0.36250627  -0.00590195  0.75494767  1
  O  O252  1  0.36260747  0.50106418  0.25772363  1
  O  O253  1  0.37304327  0.49644923  0.76581749  1
  O  O254  1  0.87506612  0.00787853  0.26284973  1
  O  O255  1  0.86755794  0.01254440  0.74989767  1
  O  O256  1  0.86337367  0.48806217  0.25118936  1
  O  O257  1  0.86378439  0.50578791  0.74239150  1
  O  O258  1  0.12095166  0.36405604  0.38082079  1
  O  O259  1  0.11095930  0.36650542  0.86135535  1
  O  O260  1  0.11119200  0.87211085  0.37666285  1
  O  O261  1  0.12780865  0.85220094  0.85239405  1
  O  O262  1  0.61645398  0.35688174  0.37851943  1
  O  O263  1  0.62014477  0.36807167  0.86769372  1
  O  O264  1  0.62082619  0.85792617  0.34704044  1
  O  O265  1  0.64218457  0.86300620  0.86517439  1
  O  O266  1  0.38316251  0.13075969  0.13237314  1
  O  O267  1  0.38852317  0.13451335  0.62350482  1
  O  O268  1  0.40086435  0.61176121  0.12487115  1
  O  O269  1  0.37931141  0.63883095  0.62828640  1
  O  O270  1  0.85775885  0.11598962  0.13153296  1
  O  O271  1  0.88086720  0.12979834  0.63024930  1
  O  O272  1  0.88725461  0.63407589  0.12855536  1
  O  O273  1  0.86014440  0.62810642  0.64158427  1
  O  O274  1  0.26882058  0.24166992  0.11462589  1
  O  O275  1  0.26943887  0.24158547  0.63212071  1
  O  O276  1  0.22897841  0.75609526  0.09989557  1
  O  O277  1  0.26362424  0.76246565  0.63861034  1
  O  O278  1  0.73435289  0.26204659  0.12910293  1
  O  O279  1  0.75763345  0.25228322  0.62037323  1
  O  O280  1  0.76316961  0.74547644  0.13109492  1
  O  O281  1  0.75390315  0.76604967  0.63305094  1
  O  O282  1  0.23640071  0.23956518  0.37855854  1
  O  O283  1  0.24214837  0.24231871  0.87930333  1
  O  O284  1  0.23130153  0.75877737  0.36221644  1
  O  O285  1  0.23140063  0.71030988  0.83218892  1
  O  O286  1  0.73725364  0.25200244  0.38670540  1
  O  O287  1  0.73408229  0.23651486  0.86584548  1
  O  O288  1  0.75833803  0.73276265  0.36505860  1
  O  O289  1  0.75103398  0.74364092  0.86392265  1
  O  O290  1  0.00993112  0.14876957  0.00308100  1
  O  O291  1  0.01100318  0.12651634  0.50978358  1
  O  O292  1  -0.00745772  0.62042632  0.00956352  1
  O  O293  1  -0.00410000  0.59513927  0.45492727  1
  O  O294  1  0.50786644  0.12561872  0.01121165  1
  O  O295  1  0.50428825  0.11491084  0.51162282  1
  O  O296  1  0.53207783  0.64052941  0.00212527  1
  O  O297  1  0.49974137  0.62294796  0.51460088  1
  O  O298  1  0.49609178  0.38067511  0.50317772  1
  O  O299  1  0.49040894  0.36784143  0.98854155  1
  O  O300  1  0.49005559  0.89291430  0.51717538  1
  O  O301  1  0.44966675  0.88357295  0.93047342  1
  O  O302  1  0.98289805  0.36325031  0.50552374  1
  O  O303  1  0.98345985  0.37326090  0.97859562  1
  O  O304  1  0.98904730  0.87424182  0.48881829  1
  O  O305  1  1.00632790  0.88442499  0.99634119  1
  O  O306  1  0.50888317  0.48306775  0.38473593  1
  O  O307  1  0.50511010  0.48740590  0.86782644  1
  O  O308  1  0.48330316  1.00322755  0.38980598  1
  O  O309  1  0.47266928  0.99813517  0.86506617  1
  O  O310  1  0.99953747  0.54106678  0.39889124  1
  O  O311  1  0.99633929  0.48309065  0.85922584  1
  O  O312  1  1.00089639  0.98881633  0.37154602  1
  O  O313  1  1.01099892  1.00693212  0.89428128  1
  O  O314  1  0.01333907  -0.00173180  0.11569019  1
  O  O315  1  -0.00175475  0.01312262  0.63363242  1
  O  O316  1  -0.00694067  0.51143584  0.13132288  1
  O  O317  1  0.02213390  0.49399574  0.63667313  1
  O  O318  1  0.48761535  0.00847395  0.12544102  1
  O  O319  1  0.48919027  0.01178321  0.62091992  1
  O  O320  1  0.51395760  0.49213421  0.13293227  1
  O  O321  1  0.49974517  0.51484059  0.62564078  1
  O  O322  1  0.23834004  0.40118342  0.28387286  1
  O  O323  1  0.24005176  0.36686269  0.75566493  1
  O  O324  1  0.27534443  0.89201403  0.21734062  1
  O  O325  1  0.24237852  0.88705603  0.74933944  1
  O  O326  1  0.74758074  0.37965029  0.23800857  1
  O  O327  1  0.74430580  0.37774702  0.74157837  1
  O  O328  1  0.75515201  0.88583732  0.24524755  1
  O  O329  1  0.74985194  0.88271777  0.74265872  1
  O  O330  1  0.26409573  0.13199662  0.26256345  1
  O  O331  1  0.24098814  0.11110820  0.76393194  1
  O  O332  1  0.24297577  0.61804447  0.25762203  1
  O  O333  1  0.24087930  0.65066577  0.77843216  1
  O  O334  1  0.76304196  0.12281669  0.25702836  1
  O  O335  1  0.75380669  0.12025939  0.75303281  1
  O  O336  1  0.75384048  0.60606876  0.25676336  1
  O  O337  1  0.74496090  0.60642865  0.74607566  1
  O  O338  1  0.36790596  0.12705054  0.37253387  1
  O  O339  1  0.35688458  0.13518415  0.88063728  1
  O  O340  1  0.35386738  0.67194394  0.36232943  1
  O  O341  1  0.38391427  0.60327355  0.88748896  1
  O  O342  1  0.86530097  0.10616876  0.38041479  1
  O  O343  1  0.86161954  0.13795785  0.86434176  1
  O  O344  1  0.86319979  0.61430168  0.36572604  1
  O  O345  1  0.87209487  0.62948634  0.84559810  1
  O  O346  1  0.14292999  0.36076964  0.15901177  1
  O  O347  1  0.13640919  0.36570679  0.63677243  1
  O  O348  1  0.13337150  0.88644076  0.12147947  1
  O  O349  1  0.14264035  0.86561678  0.63965499  1
  O  O350  1  0.63490574  0.38916825  0.11432831  1
  O  O351  1  0.63420940  0.36400034  0.63447318  1
  O  O352  1  0.61221339  0.87955261  0.14445136  1
  O  O353  1  0.63773559  0.87389262  0.64689675  1
  O  O354  1  0.12465310  0.25894437  0.27088201  1
  O  O355  1  0.11709875  0.25438856  0.75452204  1
  O  O356  1  0.11158942  0.75485168  0.25179920  1
  O  O357  1  0.10437119  0.74655054  0.75139434  1
  O  O358  1  0.62924551  0.23534043  0.26721991  1
  O  O359  1  0.61605801  0.25702487  0.75691494  1
  O  O360  1  0.63095727  0.76444871  0.24290953  1
  O  O361  1  0.61712471  0.75672212  0.76582963  1
  O  O362  1  0.37526104  0.24332537  0.23566162  1
  O  O363  1  0.38977893  0.25196403  0.74919717  1
  O  O364  1  0.35105650  0.75057876  0.20378313  1
  O  O365  1  0.38942270  0.76430341  0.74427426  1
  O  O366  1  0.87150687  0.23676675  0.23926204  1
  O  O367  1  0.87849639  0.24063092  0.74009726  1
  O  O368  1  0.89123124  0.74893769  0.23955637  1
  O  O369  1  0.89405240  0.74418090  0.74161288  1
  O  O370  1  0.39688756  0.50750985  0.50561932  1
  O  O371  1  0.36779595  0.48385242  0.99383671  1
  O  O372  1  0.37999857  1.00178939  0.49100700  1
  O  O373  1  0.36432320  1.00369433  1.00468018  1
  O  O374  1  0.87057984  0.47769898  0.49903517  1
  O  O375  1  0.86621320  0.48135120  1.00145916  1
  O  O376  1  0.87459031  0.98932586  0.48595027  1
  O  O377  1  0.90221176  1.01327948  1.00395665  1
  O  O378  1  0.11075502  0.03153703  0.01804582  1
  O  O379  1  0.12192655  0.01176171  0.49819296  1
  O  O380  1  0.11470927  0.44451268  0.02545372  1
  O  O381  1  0.11120292  0.50184253  0.50768237  1
  O  O382  1  0.61063806  0.00829685  -0.00791649  1
  O  O383  1  0.60656432  0.00148593  0.49043820  1
  O  O384  1  0.62083923  0.50481400  0.00698188  1
  O  O385  1  0.60710178  0.49451579  0.50798460  1
  O  O386  1  0.38362730  0.36380487  0.11776701  1
  O  O387  1  0.37098389  0.36168064  0.63040183  1
  O  O388  1  0.31710789  0.90257340  0.15878415  1
  O  O389  1  0.36155449  0.86961676  0.62681919  1
  O  O390  1  0.85158201  0.37516040  0.11367992  1
  O  O391  1  0.86696290  0.36155217  0.61797523  1
  O  O392  1  0.87946162  0.86110656  0.12678606  1
  O  O393  1  0.87280564  0.88072822  0.61334565  1
  O  O394  1  0.12870331  0.12991086  0.38608990  1
  O  O395  1  0.12889423  0.14089426  0.88087656  1
  O  O396  1  0.13579184  0.64566802  0.37461390  1
  O  O397  1  0.10909401  0.62702957  0.87071737  1
  O  O398  1  0.61320409  0.13444511  0.39103485  1
  O  O399  1  0.62357359  0.13005982  0.88605519  1
  O  O400  1  0.64546384  0.61761149  0.37569717  1
  O  O401  1  0.62864755  0.63709197  0.88177743  1
