# generated using pymatgen
data_V73Zn73O256
_symmetry_space_group_name_H-M   'P 1'
_cell_length_a   16.89437544
_cell_length_b   16.91347276
_cell_length_c   16.85859735
_cell_angle_alpha   89.96818718
_cell_angle_beta   90.03316830
_cell_angle_gamma   90.10012320
_symmetry_Int_Tables_number   1
_chemical_formula_structural   V73Zn73O256
_chemical_formula_sum   'V73 Zn73 O256'
_cell_volume   4817.20984289
_cell_formula_units_Z   1
loop_
 _symmetry_equiv_pos_site_id
 _symmetry_equiv_pos_as_xyz
  1  'x, y, z'
loop_
 _atom_site_type_symbol
 _atom_site_label
 _atom_site_symmetry_multiplicity
 _atom_site_fract_x
 _atom_site_fract_y
 _atom_site_fract_z
 _atom_site_occupancy
  V  V0  1  0.72966722  0.13326003  0.36854176  1
  V  V1  1  0.00932754  0.48756635  0.01178940  1
  V  V2  1  0.37293675  0.88910013  -0.00434290  1
  V  V3  1  0.74478471  0.87279220  0.64506776  1
  V  V4  1  0.00732246  0.63015420  0.13007881  1
  V  V5  1  0.49700841  0.61813099  0.62099537  1
  V  V6  1  0.51178889  -0.00124353  0.51441506  1
  V  V7  1  0.51119080  0.75007628  0.75504004  1
  V  V8  1  0.75772935  0.75052157  0.49870343  1
  V  V9  1  0.49959018  0.37569663  0.87516679  1
  V  V10  1  0.88593232  0.25292408  0.11403058  1
  V  V11  1  0.00568797  0.37018491  0.87806611  1
  V  V12  1  0.00963545  0.24890761  0.26872038  1
  V  V13  1  0.63604309  0.49410156  0.62895610  1
  V  V14  1  -0.02120356  0.11420054  0.60251474  1
  V  V15  1  0.73693021  0.74646464  -0.01328664  1
  V  V16  1  0.37105988  0.75328483  0.61730375  1
  V  V17  1  0.74343489  0.26036277  0.50123827  1
  V  V18  1  0.62113545  0.12476616  0.52287930  1
  V  V19  1  0.12312408  0.40131243  0.25680663  1
  V  V20  1  0.53244572  0.86889858  0.36878905  1
  V  V21  1  0.72629330  0.41521907  0.10495048  1
  V  V22  1  0.87802531  0.75335155  0.12780639  1
  V  V23  1  0.88059348  0.12356975  0.26040684  1
  V  V24  1  0.88409488  0.62140949  0.25455244  1
  V  V25  1  0.75286306  0.24965855  0.00350762  1
  V  V26  1  0.00328019  0.11340792  0.10198742  1
  V  V27  1  0.61558981  0.01333980  0.11483734  1
  V  V28  1  0.38675710  0.74606684  0.13970515  1
  V  V29  1  0.38023662  -0.00811131  0.35637562  1
  V  V30  1  0.87078454  0.26071384  0.62177859  1
  V  V31  1  0.73355804  -0.00054883  0.75760714  1
  V  V32  1  0.49675794  0.16093346  0.12012422  1
  V  V33  1  0.35487702  0.23600679  0.63169360  1
  V  V34  1  -0.01961854  0.87769682  0.40311397  1
  V  V35  1  0.11810722  0.01005111  0.59933597  1
  V  V36  1  -0.00329759  0.73559801  0.74580384  1
  V  V37  1  0.13172398  0.62079376  0.00767863  1
  V  V38  1  0.74130202  0.00177444  0.24483314  1
  V  V39  1  0.50977924  0.87575134  0.87455824  1
  V  V40  1  0.75100607  0.11951758  0.88427127  1
  V  V41  1  0.12101381  0.50675025  0.60892935  1
  V  V42  1  0.62297535  0.62863153  0.49332689  1
  V  V43  1  0.38029870  0.15374089  0.25431259  1
  V  V44  1  0.50351876  0.22814947  0.74087506  1
  V  V45  1  0.12203669  0.75192777  0.87173337  1
  V  V46  1  0.24496271  0.49515663  0.74043895  1
  V  V47  1  -0.02284946  0.50028944  0.49206125  1
  V  V48  1  0.88868856  0.50560712  0.86459497  1
  V  V49  1  0.37776945  0.87665189  0.50102178  1
  V  V50  1  0.37502814  0.49339409  0.87450331  1
  V  V51  1  0.12538575  -0.00502760  0.11615684  1
  V  V52  1  0.25234146  0.87617613  0.13745209  1
  V  V53  1  0.35985899  0.00162998  0.84610481  1
  V  V54  1  0.88648583  0.87714916  0.00144909  1
  V  V55  1  0.74292825  0.62115599  0.36202803  1
  V  V56  1  -0.00692062  0.23816880  0.75150487  1
  V  V57  1  0.69481655  0.82557371  0.18207042  1
  V  V58  1  0.37018596  0.62667615  0.74746567  1
  V  V59  1  0.12461126  0.36583464  0.73947169  1
  V  V60  1  0.62539149  0.24210808  0.88311909  1
  V  V61  1  0.24573114  0.40956271  0.12425529  1
  V  V62  1  0.11946767  0.88935144  0.75568144  1
  V  V63  1  0.25805620  0.75168195  -0.00054454  1
  V  V64  1  0.25107412  0.62483196  0.87451584  1
  V  V65  1  0.88686390  -0.00574179  0.87322884  1
  V  V66  1  0.60499288  0.37782082  0.27605735  1
  V  V67  1  0.21510518  0.85794201  0.60130942  1
  V  V68  1  0.37089042  0.60650093  0.26977219  1
  V  V69  1  0.10169461  0.86675590  0.25482024  1
  V  V70  1  0.48981310  0.49210587  0.47867798  1
  V  V71  1  0.24648494  0.12258260  0.37913931  1
  V  V72  1  0.23954188  0.63576447  0.39213441  1
  Zn  Zn73  1  0.77901964  0.62399258  0.84304095  1
  Zn  Zn74  1  0.25993615  0.28513989  0.48151405  1
  Zn  Zn75  1  0.63742577  0.36947352  0.74300386  1
  Zn  Zn76  1  0.53408420  0.57948674  0.09505051  1
  Zn  Zn77  1  0.35582145  0.36058583  0.00977114  1
  Zn  Zn78  1  -0.09066109  0.03567434  0.43392914  1
  Zn  Zn79  1  0.86843203  0.47686940  0.35964834  1
  Zn  Zn80  1  0.13126000  0.76355179  0.41627582  1
  Zn  Zn81  1  0.87190493  0.74497053  0.63727073  1
  Zn  Zn82  1  0.18703384  0.17112349  0.19647299  1
  Zn  Zn83  1  0.14514739  0.22362808  0.61686713  1
  Zn  Zn84  1  0.19460480  0.68908947  0.19341526  1
  Zn  Zn85  1  0.18175505  0.68791196  0.67986499  1
  Zn  Zn86  1  0.68152645  0.19847214  0.18272381  1
  Zn  Zn87  1  0.69414957  0.18584252  0.69783800  1
  Zn  Zn88  1  0.70871979  0.62868045  0.13870335  1
  Zn  Zn89  1  0.68268422  0.68559333  0.67835280  1
  Zn  Zn90  1  0.29295614  0.32364949  0.31725567  1
  Zn  Zn91  1  0.32770309  0.31675811  0.77541848  1
  Zn  Zn92  1  0.31122877  0.80273015  0.31937238  1
  Zn  Zn93  1  0.30436110  0.82061428  0.79998104  1
  Zn  Zn94  1  0.77291296  0.32051511  0.28776478  1
  Zn  Zn95  1  0.81891053  0.31693378  0.81307128  1
  Zn  Zn96  1  0.81260600  0.80445418  0.31482043  1
  Zn  Zn97  1  0.81345265  0.81300025  0.82047573  1
  Zn  Zn98  1  0.21273919  0.44785991  0.42550475  1
  Zn  Zn99  1  0.18699509  0.43196338  0.93212908  1
  Zn  Zn100  1  0.19104394  0.94327157  0.42568485  1
  Zn  Zn101  1  0.19004693  0.94037254  0.93737865  1
  Zn  Zn102  1  0.68097811  0.44713851  0.43533638  1
  Zn  Zn103  1  0.70939346  0.42657806  0.90656392  1
  Zn  Zn104  1  0.71606944  0.95026836  0.44659809  1
  Zn  Zn105  1  0.69448873  0.93122834  0.94808354  1
  Zn  Zn106  1  0.31902038  0.06292230  0.08434149  1
  Zn  Zn107  1  0.30952117  0.05257218  0.57727165  1
  Zn  Zn108  1  0.37668489  0.54847508  0.07201487  1
  Zn  Zn109  1  0.31218037  0.55920198  0.55617420  1
  Zn  Zn110  1  0.81467022  0.06182737  0.06430833  1
  Zn  Zn111  1  0.79997878  0.06123721  0.57154566  1
  Zn  Zn112  1  0.83148651  0.56606262  0.03982504  1
  Zn  Zn113  1  0.81030308  0.57045919  0.56948198  1
  Zn  Zn114  1  0.42156807  0.42563679  0.20528077  1
  Zn  Zn115  1  0.44290250  0.42329614  0.68392782  1
  Zn  Zn116  1  0.45048700  0.91935576  0.18551615  1
  Zn  Zn117  1  0.44343637  0.93537765  0.68908134  1
  Zn  Zn118  1  0.94108800  0.43431931  0.19287047  1
  Zn  Zn119  1  0.94610533  0.43653076  0.68189047  1
  Zn  Zn120  1  0.93334408  0.93991368  0.18872220  1
  Zn  Zn121  1  0.93255133  0.93121124  0.68884902  1
  Zn  Zn122  1  0.06430309  0.04596098  0.31069773  1
  Zn  Zn123  1  0.05991276  0.06329261  0.81819019  1
  Zn  Zn124  1  0.06176783  0.57399367  0.33464012  1
  Zn  Zn125  1  0.06574734  0.55927963  0.81312667  1
  Zn  Zn126  1  0.55258601  0.06033231  0.30546729  1
  Zn  Zn127  1  0.55999238  0.05785717  0.82614257  1
  Zn  Zn128  1  0.57244137  0.57467426  0.27474105  1
  Zn  Zn129  1  0.55698680  0.55821053  0.80684003  1
  Zn  Zn130  1  0.40235691  0.15488953  0.48249416  1
  Zn  Zn131  1  0.43396416  0.18078812  0.92541131  1
  Zn  Zn132  1  0.44330629  0.69120114  0.42625014  1
  Zn  Zn133  1  0.44706395  0.68694078  0.94261132  1
  Zn  Zn134  1  0.91324406  0.31901684  0.43191285  1
  Zn  Zn135  1  0.93609911  0.18165706  0.93136488  1
  Zn  Zn136  1  0.94588848  0.68677573  0.44594031  1
  Zn  Zn137  1  0.94352077  0.69055511  0.94512844  1
  Zn  Zn138  1  0.07964157  0.30784595  0.08320871  1
  Zn  Zn139  1  0.08132978  0.32745386  0.45516642  1
  Zn  Zn140  1  0.06685551  0.81018662  0.06097724  1
  Zn  Zn141  1  0.03826019  0.82473461  0.57081382  1
  Zn  Zn142  1  0.52152628  0.37606597  0.07989064  1
  Zn  Zn143  1  0.55908506  0.31517662  0.55822996  1
  Zn  Zn144  1  0.56064678  0.81736786  0.05596936  1
  Zn  Zn145  1  0.56655555  0.81271479  0.56085118  1
  O  O146  1  0.11272951  0.10263006  0.13375810  1
  O  O147  1  0.10087005  0.11510968  0.61549797  1
  O  O148  1  0.12279580  0.63578197  0.11706632  1
  O  O149  1  0.12906855  0.60662727  0.62117393  1
  O  O150  1  0.60577680  0.12561980  0.13035943  1
  O  O151  1  0.63576856  0.11778400  0.62000008  1
  O  O152  1  0.60300422  0.61976779  0.16927452  1
  O  O153  1  0.61429626  0.61601553  0.61456985  1
  O  O154  1  0.45606196  0.30774117  0.38211284  1
  O  O155  1  0.38458201  0.38540705  0.85118801  1
  O  O156  1  0.38152984  0.88330697  0.38364667  1
  O  O157  1  0.37079065  0.88327532  0.87639194  1
  O  O158  1  0.85226097  0.36633781  0.35007534  1
  O  O159  1  0.89802616  0.38488532  0.87615264  1
  O  O160  1  0.88375144  0.86438288  0.37736046  1
  O  O161  1  0.87416073  0.88303426  0.89032600  1
  O  O162  1  0.27570606  0.00067118  0.37273579  1
  O  O163  1  0.26094805  -0.00277092  0.87101560  1
  O  O164  1  0.23278574  0.53792138  0.36238765  1
  O  O165  1  0.25131448  0.50850592  0.86100811  1
  O  O166  1  0.74181962  0.02004845  0.35221178  1
  O  O167  1  0.75225514  0.00084745  0.87295899  1
  O  O168  1  0.76081090  0.51965081  0.38537225  1
  O  O169  1  0.78528417  0.51308352  0.89028378  1
  O  O170  1  0.26585874  0.50644525  0.11792407  1
  O  O171  1  0.24567682  0.50151712  0.63551070  1
  O  O172  1  0.23614346  0.99108683  0.12226992  1
  O  O173  1  0.22152622  0.99156247  0.61690051  1
  O  O174  1  0.74211528  0.51706103  0.09645349  1
  O  O175  1  0.73371649  0.49605423  0.61377241  1
  O  O176  1  0.73615595  1.01780293  0.13684989  1
  O  O177  1  0.75315750  0.98813495  0.65080247  1
  O  O178  1  0.01631534  0.35774397  0.24244064  1
  O  O179  1  0.00942269  0.36621312  0.75622206  1
  O  O180  1  -0.00044702  0.86745200  0.25129254  1
  O  O181  1  0.01632046  0.86616218  0.74998415  1
  O  O182  1  0.50652567  0.36495720  0.25085480  1
  O  O183  1  0.51116319  0.36175788  0.76329355  1
  O  O184  1  0.51744764  0.88098696  0.26878766  1
  O  O185  1  0.49964728  0.85664149  0.75631575  1
  O  O186  1  0.48829781  0.13478080  0.24327017  1
  O  O187  1  0.52123519  0.12987619  0.74659345  1
  O  O188  1  0.47058689  0.62861194  0.27130106  1
  O  O189  1  0.48843626  0.63194268  0.74501597  1
  O  O190  1  0.98975706  0.12804853  0.25891459  1
  O  O191  1  1.00249595  0.13791186  0.75485482  1
  O  O192  1  0.99332495  0.62603601  0.24255959  1
  O  O193  1  1.00644030  0.63629908  0.75299818  1
  O  O194  1  0.33713290  0.25594237  -0.05840888  1
  O  O195  1  0.36370641  0.25661007  0.52593432  1
  O  O196  1  0.36479240  0.75655549  -0.00016640  1
  O  O197  1  0.39046535  0.76462007  0.50866487  1
  O  O198  1  0.87355724  0.24460852  0.00623226  1
  O  O199  1  0.85762651  0.25135905  0.51093978  1
  O  O200  1  0.87114769  0.75591650  0.00960792  1
  O  O201  1  0.85923384  0.72407464  0.51630923  1
  O  O202  1  0.15368794  0.26886955  0.51468194  1
  O  O203  1  0.19526081  0.18991662  1.02015252  1
  O  O204  1  0.14790654  0.80054314  0.53871446  1
  O  O205  1  0.13762445  0.74377383  0.99231588  1
  O  O206  1  0.63244085  0.23618820  0.51217210  1
  O  O207  1  0.64507600  0.25026240  0.99028968  1
  O  O208  1  0.63623314  0.73441638  0.50734901  1
  O  O209  1  0.63708215  0.75332553  0.99811266  1
  O  O210  1  0.50480928  0.25881421  0.12316659  1
  O  O211  1  0.50997236  0.24985619  0.64060545  1
  O  O212  1  0.48328871  0.75492473  0.11240093  1
  O  O213  1  0.49466986  0.74034129  0.63544355  1
  O  O214  1  1.00215740  0.22839418  0.12333084  1
  O  O215  1  0.98184121  0.22954181  0.63009581  1
  O  O216  1  0.99295255  0.73856262  0.11770191  1
  O  O217  1  0.99244395  0.74710465  0.63966922  1
  O  O218  1  -0.00042418  0.25607029  0.36862364  1
  O  O219  1  -0.00636210  0.25343244  0.86043081  1
  O  O220  1  0.01351607  0.77241211  0.41023083  1
  O  O221  1  0.01779862  0.74635179  0.87278472  1
  O  O222  1  0.49195246  0.24765211  0.40141687  1
  O  O223  1  0.50935689  0.24760338  0.86508203  1
  O  O224  1  0.51439450  0.76996798  0.38686167  1
  O  O225  1  0.49178278  0.75518813  0.86218459  1
  O  O226  1  0.27334391  0.11528601  0.48048566  1
  O  O227  1  0.25878871  0.14672784  1.01631227  1
  O  O228  1  0.25007997  0.62884468  0.49389821  1
  O  O229  1  0.24753180  0.63425431  0.98844898  1
  O  O230  1  0.72952278  0.12725407  0.48738926  1
  O  O231  1  0.75531073  0.13257517  0.99354966  1
  O  O232  1  0.73821083  0.62859405  0.49373384  1
  O  O233  1  0.75362396  0.64840759  1.02166382  1
  O  O234  1  0.23721134  0.37900495  0.01908145  1
  O  O235  1  0.29591407  0.37441494  0.41916463  1
  O  O236  1  0.25551255  0.86646578  0.00603770  1
  O  O237  1  0.26812883  0.89010460  0.50627851  1
  O  O238  1  0.75329606  0.36734539  0.00940904  1
  O  O239  1  0.73559779  0.35788268  0.49633992  1
  O  O240  1  0.76283522  0.85285134  -0.00430144  1
  O  O241  1  0.75160581  0.85036158  0.49829028  1
  O  O242  1  0.10692994  0.49878392  0.25550660  1
  O  O243  1  0.12879602  0.49403481  0.74083402  1
  O  O244  1  0.11739893  0.97615338  0.23337125  1
  O  O245  1  0.12486270  0.98974266  0.76377590  1
  O  O246  1  0.63198651  0.47444049  0.25805687  1
  O  O247  1  0.62592009  0.50823895  0.73235510  1
  O  O248  1  0.63533153  1.00675621  0.23753680  1
  O  O249  1  0.63519828  0.99493271  0.76117253  1
  O  O250  1  0.38585287  -0.00970048  0.25685621  1
  O  O251  1  0.36331965  -0.00772994  0.74456307  1
  O  O252  1  0.36372907  0.50676778  0.26191328  1
  O  O253  1  0.36641258  0.51149899  0.75014043  1
  O  O254  1  0.86024719  0.01847521  0.23695093  1
  O  O255  1  0.86679855  -0.01383886  0.77123951  1
  O  O256  1  0.88026276  0.51706083  0.24423097  1
  O  O257  1  0.89445180  0.49721233  0.76444925  1
  O  O258  1  0.12962653  0.37931275  0.35917100  1
  O  O259  1  0.11486510  0.37509402  0.86095304  1
  O  O260  1  0.11516873  0.87903778  0.36399383  1
  O  O261  1  0.13979048  0.86382591  0.86206201  1
  O  O262  1  0.61897595  0.37150247  0.37721003  1
  O  O263  1  0.60413418  0.36559326  0.89223435  1
  O  O264  1  0.62947725  0.88817721  0.38754557  1
  O  O265  1  0.60801623  0.87954631  0.88433155  1
  O  O266  1  0.38431524  0.13527927  0.14347245  1
  O  O267  1  0.38213357  0.13313917  0.61257348  1
  O  O268  1  0.36970198  0.64170739  0.14982999  1
  O  O269  1  0.37978409  0.63238213  0.62930260  1
  O  O270  1  0.89459260  0.12606165  0.12505498  1
  O  O271  1  0.87633325  0.12561995  0.62703231  1
  O  O272  1  0.88699722  0.63222955  0.13078960  1
  O  O273  1  0.83792888  0.62782001  0.66987483  1
  O  O274  1  0.18545399  0.23708766  0.09130694  1
  O  O275  1  0.25726570  0.22670333  0.65273552  1
  O  O276  1  0.26169920  0.75809536  0.11578296  1
  O  O277  1  0.26469721  0.75108980  0.62358021  1
  O  O278  1  0.77351277  0.23823867  0.11504346  1
  O  O279  1  0.76072189  0.24221717  0.61872075  1
  O  O280  1  0.75429713  0.75564701  0.12604874  1
  O  O281  1  0.74904682  0.75886692  0.62057237  1
  O  O282  1  0.24794060  0.22505667  0.37149896  1
  O  O283  1  0.28325480  0.26243214  0.88523329  1
  O  O284  1  0.24468934  0.75287886  0.39178556  1
  O  O285  1  0.24621410  0.74210729  0.87623572  1
  O  O286  1  0.75124489  0.23702978  0.39053716  1
  O  O287  1  0.75173435  0.23794124  0.88342582  1
  O  O288  1  0.75736528  0.73235718  0.38827133  1
  O  O289  1  0.75587713  0.73114455  0.88192016  1
  O  O290  1  0.00741362  0.12193911  0.00310645  1
  O  O291  1  -0.02472024  0.10985350  0.50388705  1
  O  O292  1  0.01431538  0.61780894  0.01092554  1
  O  O293  1  0.00143187  0.60083221  0.49742761  1
  O  O294  1  0.48062901  0.14099254  0.02200062  1
  O  O295  1  0.51239057  0.11224598  0.50040798  1
  O  O296  1  0.46506447  0.60430725  0.01102672  1
  O  O297  1  0.50486279  0.62288239  0.50569325  1
  O  O298  1  0.50405723  0.39309988  0.50026416  1
  O  O299  1  0.46892817  0.35365967  0.97728075  1
  O  O300  1  0.50211083  0.88616423  0.49357553  1
  O  O301  1  0.48495704  0.86578283  0.98091935  1
  O  O302  1  0.99048028  0.38614512  0.48750745  1
  O  O303  1  1.02674892  0.38273899  0.99910272  1
  O  O304  1  0.97882775  0.89437279  0.50316230  1
  O  O305  1  0.98652441  0.86819256  1.00168281  1
  O  O306  1  0.50621624  0.50723671  0.38239445  1
  O  O307  1  0.49160386  0.48458065  0.86894068  1
  O  O308  1  0.49395811  0.99162589  0.38215725  1
  O  O309  1  0.48498760  0.97796078  0.86051280  1
  O  O310  1  0.98362437  0.50194686  0.38315681  1
  O  O311  1  1.00533030  0.49160137  0.88702213  1
  O  O312  1  0.99028271  0.98324860  0.37171405  1
  O  O313  1  0.98608597  1.00308879  0.87924059  1
  O  O314  1  0.00411420  0.00696196  0.12272883  1
  O  O315  1  -0.00032453  0.01157006  0.63363185  1
  O  O316  1  0.00275517  0.50784457  0.11579877  1
  O  O317  1  0.01391397  0.49198436  0.60746016  1
  O  O318  1  0.51568269  -0.00339492  0.12711967  1
  O  O319  1  0.51001302  -0.00984301  0.61352575  1
  O  O320  1  0.47059570  0.47819218  0.11285436  1
  O  O321  1  0.49841912  0.51204798  0.62747201  1
  O  O322  1  0.23205816  0.38286349  0.23917944  1
  O  O323  1  0.23188003  0.38267721  0.75967247  1
  O  O324  1  0.25118860  0.87084455  0.23807048  1
  O  O325  1  0.22374639  0.86089866  0.71998560  1
  O  O326  1  0.77626051  0.38902301  0.18736224  1
  O  O327  1  0.73372232  0.38592652  0.79913847  1
  O  O328  1  0.75655326  0.89093896  0.24646782  1
  O  O329  1  0.74258206  0.87675994  0.75226398  1
  O  O330  1  0.27247518  0.12403356  0.25603887  1
  O  O331  1  0.19831398  0.15241360  0.84335468  1
  O  O332  1  0.26869704  0.65197402  0.26683261  1
  O  O333  1  0.25354913  0.62110413  0.75506455  1
  O  O334  1  0.75522248  0.13056196  0.25583933  1
  O  O335  1  0.74884517  0.10736418  0.76559297  1
  O  O336  1  0.76206692  0.62537234  0.25831294  1
  O  O337  1  0.76989132  0.62331224  0.72353266  1
  O  O338  1  0.38028326  0.11091107  0.36320419  1
  O  O339  1  0.38491196  0.09659098  0.86977384  1
  O  O340  1  0.35984884  0.63431083  0.37634505  1
  O  O341  1  0.36699526  0.61778545  0.86461397  1
  O  O342  1  0.86411404  0.12416883  0.36104174  1
  O  O343  1  0.86449739  0.10442207  0.88391907  1
  O  O344  1  0.87643987  0.63374817  0.35818450  1
  O  O345  1  0.89558149  0.61167037  0.87822428  1
  O  O346  1  0.13358871  0.39008806  0.13965148  1
  O  O347  1  0.12559943  0.38840732  0.64131304  1
  O  O348  1  0.13075042  0.87742289  0.13060355  1
  O  O349  1  0.10912918  0.90100905  0.63651848  1
  O  O350  1  0.62823775  0.39301083  0.11431061  1
  O  O351  1  0.61643288  0.39082163  0.62801207  1
  O  O352  1  0.62956586  0.88469922  0.12368409  1
  O  O353  1  0.64577620  0.87345772  0.61778030  1
  O  O354  1  0.10890075  0.23564301  0.25251601  1
  O  O355  1  0.10623620  0.25916436  0.72871250  1
  O  O356  1  0.12565933  0.76928104  0.24168694  1
  O  O357  1  0.11581408  0.75090569  0.75464412  1
  O  O358  1  0.66693382  0.29055467  0.24872468  1
  O  O359  1  0.62573386  0.25016671  0.76558497  1
  O  O360  1  0.64660028  0.77082436  0.24383272  1
  O  O361  1  0.60960103  0.73412979  0.75332403  1
  O  O362  1  0.37284495  0.25202407  0.26381729  1
  O  O363  1  0.39718797  0.22525128  0.74854254  1
  O  O364  1  0.38606687  0.77268305  0.23678034  1
  O  O365  1  0.37665564  0.74034299  0.74112412  1
  O  O366  1  0.88927607  0.23421807  0.23340906  1
  O  O367  1  0.88434743  0.25354577  0.74049521  1
  O  O368  1  0.87012158  0.73906398  0.23585951  1
  O  O369  1  0.89605262  0.75513545  0.76498203  1
  O  O370  1  0.39055922  0.50550397  0.49845257  1
  O  O371  1  0.35623689  0.48313003  0.97373773  1
  O  O372  1  0.39490641  0.99233501  0.50176915  1
  O  O373  1  0.36773625  0.98940013  1.00605587  1
  O  O374  1  0.87664232  0.50131279  0.50751136  1
  O  O375  1  0.90603874  0.49536207  0.99347401  1
  O  O376  1  0.82043834  0.99290448  0.48638209  1
  O  O377  1  0.86691515  0.98294187  0.99704737  1
  O  O378  1  0.12093208  -0.01298864  0.01499954  1
  O  O379  1  0.11566732  -0.00499660  0.50150552  1
  O  O380  1  0.12116593  0.51392377  -0.00688063  1
  O  O381  1  0.14019091  0.48428978  0.51101972  1
  O  O382  1  0.63412260  0.00193547  0.01643156  1
  O  O383  1  0.62000774  0.01354818  0.49617709  1
  O  O384  1  0.63553106  0.53285159  -0.05333926  1
  O  O385  1  0.61261853  0.51182808  0.50873841  1
  O  O386  1  0.34296116  0.36563857  0.13097301  1
  O  O387  1  0.36657172  0.34391393  0.66074404  1
  O  O388  1  0.36978641  0.86990268  0.11447803  1
  O  O389  1  0.37943102  0.86579618  0.61723840  1
  O  O390  1  0.90557386  0.34964258  0.12047127  1
  O  O391  1  0.87900673  0.35937342  0.62677611  1
  O  O392  1  0.87771692  0.86590982  0.11634668  1
  O  O393  1  0.85435002  0.86681542  0.63437253  1
  O  O394  1  0.14944941  0.09642523  0.36807126  1
  O  O395  1  0.13766215  0.13289899  0.88208876  1
  O  O396  1  0.13074721  0.65071813  0.37815910  1
  O  O397  1  0.13573156  0.63123972  0.88194527  1
  O  O398  1  0.62948086  0.13159609  0.36432060  1
  O  O399  1  0.63532109  0.13081204  0.87993008  1
  O  O400  1  0.63838887  0.62057151  0.37400425  1
  O  O401  1  0.63561210  0.58952863  0.89304683  1
