# generated using pymatgen
data_V73Zn73O256
_symmetry_space_group_name_H-M   'P 1'
_cell_length_a   16.85495368
_cell_length_b   16.88264408
_cell_length_c   16.88925162
_cell_angle_alpha   89.94540965
_cell_angle_beta   90.38316123
_cell_angle_gamma   90.05173387
_symmetry_Int_Tables_number   1
_chemical_formula_structural   V73Zn73O256
_chemical_formula_sum   'V73 Zn73 O256'
_cell_volume   4805.82941128
_cell_formula_units_Z   1
loop_
 _symmetry_equiv_pos_site_id
 _symmetry_equiv_pos_as_xyz
  1  'x, y, z'
loop_
 _atom_site_type_symbol
 _atom_site_label
 _atom_site_symmetry_multiplicity
 _atom_site_fract_x
 _atom_site_fract_y
 _atom_site_fract_z
 _atom_site_occupancy
  V  V0  1  0.36607234  -0.00053974  0.86681586  1
  V  V1  1  0.00857313  0.01400221  0.01000518  1
  V  V2  1  0.75463084  0.24606478  0.50731516  1
  V  V3  1  0.13813880  0.50341166  0.63303579  1
  V  V4  1  0.24509553  -0.00445773  0.22151882  1
  V  V5  1  0.00723525  0.38333753  0.86945065  1
  V  V6  1  0.86429406  0.87025517  0.51591092  1
  V  V7  1  0.72143365  0.85167480  0.63499536  1
  V  V8  1  0.36569170  0.86459254  0.01198779  1
  V  V9  1  0.12802517  0.75022853  0.90393057  1
  V  V10  1  0.37266274  0.49303611  0.89597069  1
  V  V11  1  0.51760245  0.86791761  0.37023797  1
  V  V12  1  0.50930761  0.87995243  0.87175661  1
  V  V13  1  0.86496159  -0.00476453  0.36776319  1
  V  V14  1  0.62649022  0.73179718  0.87242715  1
  V  V15  1  0.75393618  0.12413455  0.36499922  1
  V  V16  1  0.24861401  0.62554712  0.90368748  1
  V  V17  1  0.86541852  0.61841001  0.24205653  1
  V  V18  1  0.64766770  0.24503204  0.86386695  1
  V  V19  1  0.72059327  0.38030210  0.63086061  1
  V  V20  1  0.26285060  0.50003039  0.26403764  1
  V  V21  1  0.50160167  0.75972285  0.75086881  1
  V  V22  1  0.24148977  0.75606460  0.48919281  1
  V  V23  1  0.24637977  0.12274029  0.84534489  1
  V  V24  1  -0.01040993  0.13245745  0.61562824  1
  V  V25  1  0.42050916  0.17603149  0.67630289  1
  V  V26  1  0.36123616  0.61723442  0.74867686  1
  V  V27  1  0.61823180  0.25640985  0.36943779  1
  V  V28  1  -0.00469558  -0.00603456  0.50865917  1
  V  V29  1  -0.00186209  0.63243196  0.64043532  1
  V  V30  1  0.64489628  0.12961442  -0.00459825  1
  V  V31  1  0.14146312  0.37271330  0.74356911  1
  V  V32  1  0.49452474  0.36821757  0.86304746  1
  V  V33  1  0.50197413  0.00058147  0.00014195  1
  V  V34  1  0.86284886  0.49977715  0.37761476  1
  V  V35  1  0.37616946  0.12756935  0.24730663  1
  V  V36  1  0.63571095  -0.00573405  0.13704382  1
  V  V37  1  0.13446950  0.00586542  0.63040296  1
  V  V38  1  0.87594630  0.36525947  -0.01164343  1
  V  V39  1  0.36477844  -0.00008802  0.37013554  1
  V  V40  1  0.76290892  0.37121789  0.12754352  1
  V  V41  1  0.13264347  0.86284041  0.73872154  1
  V  V42  1  0.11607910  0.86019887  0.24888535  1
  V  V43  1  0.87532123  0.87370146  -0.00954584  1
  V  V44  1  -0.07234819  0.18637814  0.20443636  1
  V  V45  1  0.63250417  0.39386071  0.24900920  1
  V  V46  1  0.63534371  0.63472310  0.50760823  1
  V  V47  1  0.87444092  0.74818186  0.64497424  1
  V  V48  1  -0.00250162  0.24363487  0.74517019  1
  V  V49  1  0.29922864  0.38215651  0.08967909  1
  V  V50  1  0.11720121  0.38353179  0.24831687  1
  V  V51  1  0.87479598  0.02059720  0.86912518  1
  V  V52  1  0.50428306  0.13184310  0.12626472  1
  V  V53  1  0.74864737  0.64227657  0.37907913  1
  V  V54  1  0.49892247  0.50433826  0.49771100  1
  V  V55  1  0.01318834  0.49726357  0.00846246  1
  V  V56  1  0.60951446  0.13068425  0.49534340  1
  V  V57  1  -0.00184594  0.50406825  0.50214930  1
  V  V58  1  0.48520223  0.38504232  0.37226682  1
  V  V59  1  0.50072858  0.62115734  0.62743374  1
  V  V60  1  0.62210538  0.02280932  0.64378121  1
  V  V61  1  0.50241797  0.00323288  0.49538878  1
  V  V62  1  0.36758185  0.87726112  0.50098077  1
  V  V63  1  0.87121228  0.74647780  0.12530138  1
  V  V64  1  0.49889548  0.63002108  0.10311156  1
  V  V65  1  0.00131551  0.35822381  0.38121126  1
  V  V66  1  0.36195421  0.37608709  0.51118441  1
  V  V67  1  0.36500927  0.75730118  0.62858967  1
  V  V68  1  0.81853800  0.55963127  0.81700839  1
  V  V69  1  0.74408325  0.73482969  -0.00214571  1
  V  V70  1  0.12715951  0.62929455  0.48787755  1
  V  V71  1  0.87113399  0.37466131  0.51488013  1
  V  V72  1  0.01320539  0.62177484  0.12316841  1
  Zn  Zn73  1  0.74838134  0.87470109  0.12449897  1
  Zn  Zn74  1  0.62222996  0.50460968  0.08750369  1
  Zn  Zn75  1  0.00286748  0.86838310  0.87267370  1
  Zn  Zn76  1  0.18220949  0.18774138  0.44130458  1
  Zn  Zn77  1  0.13266605  0.23487117  0.89724235  1
  Zn  Zn78  1  0.75121447  -0.00032749  0.75899540  1
  Zn  Zn79  1  0.49560520  0.26757788  0.23670697  1
  Zn  Zn80  1  0.51864881  0.75694232  0.24139708  1
  Zn  Zn81  1  0.01449007  0.73754303  0.27706446  1
  Zn  Zn82  1  0.19373847  0.22171948  0.08321096  1
  Zn  Zn83  1  0.18506190  0.20873169  0.63742059  1
  Zn  Zn84  1  0.21731646  0.68225159  0.28711185  1
  Zn  Zn85  1  0.18654084  0.68788218  0.68233750  1
  Zn  Zn86  1  0.69093624  0.19482326  0.18426160  1
  Zn  Zn87  1  0.69218715  0.18481812  0.68615017  1
  Zn  Zn88  1  0.66829094  0.65452825  0.19302519  1
  Zn  Zn89  1  0.67798848  0.55526515  0.69342974  1
  Zn  Zn90  1  0.28584154  0.29335501  0.25578154  1
  Zn  Zn91  1  0.31344098  0.30720506  0.81239126  1
  Zn  Zn92  1  0.29976920  0.83115661  0.31831473  1
  Zn  Zn93  1  0.30915304  0.81390679  0.82098788  1
  Zn  Zn94  1  0.80913605  0.31735711  0.32135752  1
  Zn  Zn95  1  0.81883352  0.31926137  0.80130298  1
  Zn  Zn96  1  0.86022655  0.79705760  0.33654060  1
  Zn  Zn97  1  0.80268870  0.81034607  0.80969288  1
  Zn  Zn98  1  0.18980923  0.44618805  0.42919645  1
  Zn  Zn99  1  0.18921662  0.43505584  0.93772126  1
  Zn  Zn100  1  0.13970136  1.00547669  0.38550051  1
  Zn  Zn101  1  0.18699274  0.93567837  0.94154073  1
  Zn  Zn102  1  0.67903326  0.44122026  0.44782849  1
  Zn  Zn103  1  0.66505738  0.45076720  0.86183147  1
  Zn  Zn104  1  0.69426855  0.93573530  0.44901641  1
  Zn  Zn105  1  0.69267995  0.94115936  0.94020130  1
  Zn  Zn106  1  0.32097803  0.06165569  0.05748902  1
  Zn  Zn107  1  0.29782229  0.09085022  0.57254404  1
  Zn  Zn108  1  0.29158034  0.58584011  0.11013183  1
  Zn  Zn109  1  0.31483644  0.56447964  0.55459253  1
  Zn  Zn110  1  0.82402974  0.06054558  0.06911460  1
  Zn  Zn111  1  0.80317337  0.06186569  0.58299855  1
  Zn  Zn112  1  0.78973577  0.52452519  0.00480344  1
  Zn  Zn113  1  0.81248722  0.56100104  0.57192919  1
  Zn  Zn114  1  0.44301785  0.45638198  0.17991821  1
  Zn  Zn115  1  0.43689937  0.43545457  0.68979038  1
  Zn  Zn116  1  0.44712697  0.93653020  0.18761990  1
  Zn  Zn117  1  0.42104043  0.97100756  0.66690734  1
  Zn  Zn118  1  0.93897558  0.43642294  0.19206751  1
  Zn  Zn119  1  0.94289402  0.44196983  0.69178541  1
  Zn  Zn120  1  0.94367438  0.93173223  0.18669775  1
  Zn  Zn121  1  0.94716318  0.93534276  0.69601184  1
  Zn  Zn122  1  0.10505042  0.13517974  0.25688520  1
  Zn  Zn123  1  0.06285306  0.05429561  0.81340891  1
  Zn  Zn124  1  0.05271726  0.55835234  0.31137161  1
  Zn  Zn125  1  0.07081336  0.56539215  0.81973412  1
  Zn  Zn126  1  0.56288667  0.05954508  0.31496619  1
  Zn  Zn127  1  0.55001244  0.07870450  0.81482403  1
  Zn  Zn128  1  0.56177326  0.56989013  0.31721609  1
  Zn  Zn129  1  0.54416976  0.56519078  0.81703866  1
  Zn  Zn130  1  0.39056851  0.17472866  0.45310973  1
  Zn  Zn131  1  0.42580582  0.18300341  0.93997876  1
  Zn  Zn132  1  0.43713823  0.69129980  0.43773031  1
  Zn  Zn133  1  0.43381341  0.69002010  0.93571570  1
  Zn  Zn134  1  0.99498602  0.13984977  0.38912443  1
  Zn  Zn135  1  0.94773559  0.19220995  0.93188337  1
  Zn  Zn136  1  0.93420608  0.68598112  0.44999649  1
  Zn  Zn137  1  0.94094454  0.68409292  0.93870808  1
  Zn  Zn138  1  0.03072099  0.28788610  0.05984850  1
  Zn  Zn139  1  0.06738125  0.31490362  0.55736995  1
  Zn  Zn140  1  0.06100908  0.81858778  0.07496955  1
  Zn  Zn141  1  0.05874373  0.81626416  0.56318711  1
  Zn  Zn142  1  0.57826561  0.31362624  0.05647045  1
  Zn  Zn143  1  0.54348563  0.30553656  0.56213968  1
  Zn  Zn144  1  0.56134965  0.81162432  0.05883663  1
  Zn  Zn145  1  0.54752185  0.80732273  0.55518046  1
  O  O146  1  0.14998654  0.15172466  0.15624530  1
  O  O147  1  0.11263414  0.10985926  0.62434949  1
  O  O148  1  0.10791363  0.63161828  0.12543640  1
  O  O149  1  0.11384729  0.61923351  0.61948847  1
  O  O150  1  0.62274728  0.11803128  0.11452805  1
  O  O151  1  0.61207917  0.12374294  0.60775213  1
  O  O152  1  0.62576818  0.62042902  0.09633722  1
  O  O153  1  0.61445467  0.62384604  0.61738110  1
  O  O154  1  0.38817084  0.38097223  0.37217892  1
  O  O155  1  0.37483085  0.38752061  0.87129373  1
  O  O156  1  0.38002792  0.88459165  0.38137411  1
  O  O157  1  0.38342755  0.88347455  0.88723965  1
  O  O158  1  0.88106666  0.38222570  0.39005231  1
  O  O159  1  0.89291832  0.36394585  0.87995736  1
  O  O160  1  0.85129386  0.89152613  0.40244811  1
  O  O161  1  0.87681660  0.86585814  0.88549244  1
  O  O162  1  0.26525133  0.00099485  0.37034512  1
  O  O163  1  0.26047534  0.00686230  0.88362326  1
  O  O164  1  0.24599127  0.52048643  0.36235473  1
  O  O165  1  0.25892427  0.51688837  0.88105602  1
  O  O166  1  0.75195453  0.01454031  0.38383631  1
  O  O167  1  0.76768077  -0.00194740  0.87413623  1
  O  O168  1  0.76086752  0.50042863  0.38808389  1
  O  O169  1  0.76127045  0.50417661  0.89000724  1
  O  O170  1  0.26267196  0.47126777  0.12982076  1
  O  O171  1  0.23608237  0.51251935  0.62236602  1
  O  O172  1  0.25131387  1.00253482  0.12231469  1
  O  O173  1  0.23183148  1.00383664  0.60789541  1
  O  O174  1  0.73563676  0.47128279  0.09435308  1
  O  O175  1  0.73888326  0.48573146  0.61860419  1
  O  O176  1  0.74014168  0.99655112  0.12221042  1
  O  O177  1  0.69855304  0.96350313  0.60639506  1
  O  O178  1  0.00109492  0.37848703  0.27479511  1
  O  O179  1  0.00998918  0.36924095  0.75345181  1
  O  O180  1  0.00778052  0.85560249  0.24336113  1
  O  O181  1  0.02352245  0.88155316  0.76094531  1
  O  O182  1  0.51129210  0.38369935  0.26176298  1
  O  O183  1  0.49098292  0.36651891  0.76287090  1
  O  O184  1  0.50329384  0.86939827  0.26325842  1
  O  O185  1  0.49019523  0.86379261  0.75809195  1
  O  O186  1  0.50333631  0.12482041  0.23584061  1
  O  O187  1  0.48004840  0.13589995  0.74881963  1
  O  O188  1  0.56180566  0.65370975  0.24562741  1
  O  O189  1  0.48531298  0.63772408  0.74500192  1
  O  O190  1  0.98755944  0.12839494  0.27055032  1
  O  O191  1  1.01133808  0.13973458  0.74291672  1
  O  O192  1  0.98906605  0.62598749  0.23826410  1
  O  O193  1  1.00716099  0.62101764  0.73819512  1
  O  O194  1  0.34332853  0.21605478  0.01546406  1
  O  O195  1  0.37900259  0.27926318  0.48760567  1
  O  O196  1  0.37727567  0.76536808  -0.00342326  1
  O  O197  1  0.36377328  0.75513779  0.50531720  1
  O  O198  1  0.91331890  0.26896997  0.00988301  1
  O  O199  1  0.85495563  0.25815270  0.50060451  1
  O  O200  1  0.86480707  0.75491973  0.00172130  1
  O  O201  1  0.87802365  0.76551147  0.51701122  1
  O  O202  1  0.15141343  0.24789486  0.53222054  1
  O  O203  1  0.12465416  0.26261317  1.00525678  1
  O  O204  1  0.13223314  0.74281304  0.50692101  1
  O  O205  1  0.13123605  0.75774356  1.00241340  1
  O  O206  1  0.62394637  0.24561412  0.48990644  1
  O  O207  1  0.62636478  0.23529778  0.98653222  1
  O  O208  1  0.61850869  0.73275219  0.50209573  1
  O  O209  1  0.63752975  0.75742874  0.98704071  1
  O  O210  1  0.51203592  0.23551076  0.12090856  1
  O  O211  1  0.48089914  0.22891901  0.61430884  1
  O  O212  1  0.51095421  0.73879486  0.12606884  1
  O  O213  1  0.48454265  0.74157508  0.63080702  1
  O  O214  1  0.99475183  0.24322422  0.15484339  1
  O  O215  1  1.00497216  0.24081257  0.62994498  1
  O  O216  1  0.98335069  0.73118069  0.11253986  1
  O  O217  1  0.99329218  0.73862869  0.62512946  1
  O  O218  1  -0.00494923  0.26061874  0.39369435  1
  O  O219  1  0.01872952  0.25695744  0.85799144  1
  O  O220  1  -0.03732447  0.75892503  0.37262606  1
  O  O221  1  0.02386122  0.74355437  0.88608865  1
  O  O222  1  0.51055649  0.27252556  0.37350541  1
  O  O223  1  0.47751997  0.27266648  0.89639698  1
  O  O224  1  0.50006414  0.76621482  0.37842838  1
  O  O225  1  0.50824601  0.75940486  0.87212054  1
  O  O226  1  0.28193868  0.13745094  0.47222549  1
  O  O227  1  0.27956031  0.16311890  1.01585895  1
  O  O228  1  0.23507181  0.63593750  0.50159333  1
  O  O229  1  0.25782867  0.62445635  1.00214372  1
  O  O230  1  0.73724788  0.13705090  0.49938224  1
  O  O231  1  0.74275428  0.12138455  1.00347782  1
  O  O232  1  0.74239677  0.62486272  0.50019245  1
  O  O233  1  0.75742675  0.63729186  0.99693135  1
  O  O234  1  0.26657402  0.37349886  -0.00677133  1
  O  O235  1  0.26319017  0.39297233  0.49521222  1
  O  O236  1  0.26667970  0.88073528  0.00192558  1
  O  O237  1  0.25759716  0.86063951  0.49476970  1
  O  O238  1  0.77668471  0.35966108  -0.00199841  1
  O  O239  1  0.74989155  0.36655389  0.50979791  1
  O  O240  1  0.76335015  0.86766798  -0.00026941  1
  O  O241  1  0.75526483  0.86621141  0.52255014  1
  O  O242  1  0.11994736  0.48857156  0.25527098  1
  O  O243  1  0.12403066  0.49693419  0.73838442  1
  O  O244  1  0.14943515  1.01811906  0.24473919  1
  O  O245  1  0.12658725  0.99383952  0.73490216  1
  O  O246  1  0.63445861  0.49168669  0.26161801  1
  O  O247  1  0.61815608  0.49699961  0.76824475  1
  O  O248  1  0.62548994  1.00285977  0.23606913  1
  O  O249  1  0.61470129  1.01042787  0.74420598  1
  O  O250  1  0.37138978  -0.00289669  0.25619415  1
  O  O251  1  0.37434434  -0.01556173  0.76926759  1
  O  O252  1  0.36275215  0.49027223  0.25540643  1
  O  O253  1  0.37373221  0.51701093  0.74749760  1
  O  O254  1  0.87355451  -0.02247314  0.27100062  1
  O  O255  1  0.87993692  -0.00264220  0.76739355  1
  O  O256  1  0.87976039  0.50964443  0.26466986  1
  O  O257  1  0.87136609  0.49350148  0.76030681  1
  O  O258  1  0.10220312  0.38308824  0.38758449  1
  O  O259  1  0.12392188  0.37848601  0.85561672  1
  O  O260  1  0.12266314  0.90170157  0.34442052  1
  O  O261  1  0.13173658  0.85541843  0.87322565  1
  O  O262  1  0.63135982  0.37101186  0.36583135  1
  O  O263  1  0.61039540  0.34718634  0.86484878  1
  O  O264  1  0.61627114  0.87824317  0.38609100  1
  O  O265  1  0.61194907  0.88166162  0.87647401  1
  O  O266  1  0.39674252  0.11358359  0.13639761  1
  O  O267  1  0.39736401  0.07909865  0.62845173  1
  O  O268  1  0.39935973  0.62191827  0.12779461  1
  O  O269  1  0.37679321  0.63423781  0.63364454  1
  O  O270  1  0.86806202  0.12934408  0.14349936  1
  O  O271  1  0.89155207  0.12602319  0.62972792  1
  O  O272  1  0.86737406  0.62636952  0.13675878  1
  O  O273  1  0.88654138  0.63598365  0.62320804  1
  O  O274  1  0.26268627  0.29710609  0.14035099  1
  O  O275  1  0.30052698  0.20041072  0.62647045  1
  O  O276  1  0.32869249  0.73794602  0.24794988  1
  O  O277  1  0.26057811  0.74769566  0.61334729  1
  O  O278  1  0.73099375  0.27466547  0.11486056  1
  O  O279  1  0.73742721  0.26087198  0.61116710  1
  O  O280  1  0.75507891  0.75018310  0.10803063  1
  O  O281  1  0.76715070  0.75388809  0.63356193  1
  O  O282  1  0.20203276  0.25309529  0.33122530  1
  O  O283  1  0.24849969  0.22835813  0.86488960  1
  O  O284  1  0.24583595  0.74733312  0.38681836  1
  O  O285  1  0.24429163  0.73392113  0.87963087  1
  O  O286  1  0.74015680  0.24248939  0.38736254  1
  O  O287  1  0.74676992  0.25329901  0.86531436  1
  O  O288  1  0.76033564  0.73990871  0.38183216  1
  O  O289  1  0.73501508  0.75102180  0.88059537  1
  O  O290  1  0.00290791  0.11428345  -0.00304111  1
  O  O291  1  -0.00824161  0.11503811  0.51105258  1
  O  O292  1  -0.00847144  0.60658525  0.01149396  1
  O  O293  1  0.00965693  0.62201522  0.50973246  1
  O  O294  1  0.50103310  0.11733630  0.01078825  1
  O  O295  1  0.49853402  0.11485318  0.48448175  1
  O  O296  1  0.49819045  0.62526073  0.00200934  1
  O  O297  1  0.50190193  0.62374069  0.50742575  1
  O  O298  1  0.49757426  0.38704863  0.48735369  1
  O  O299  1  0.53858994  0.40029418  0.98360165  1
  O  O300  1  0.49010262  0.88164381  0.48868028  1
  O  O301  1  0.49854155  0.88639013  0.99061173  1
  O  O302  1  0.99093731  0.38421955  0.49960673  1
  O  O303  1  1.00677046  0.38472462  0.98756755  1
  O  O304  1  0.98109156  0.88647072  0.51001505  1
  O  O305  1  0.98324317  0.87328556  1.00120369  1
  O  O306  1  0.50511876  0.49382214  0.38066650  1
  O  O307  1  0.47935944  0.48745085  0.87104444  1
  O  O308  1  0.49578566  0.98601947  0.37800072  1
  O  O309  1  0.49112045  0.99889584  0.88180720  1
  O  O310  1  0.98592960  0.50313396  0.39220994  1
  O  O311  1  1.00871792  0.49124824  0.88426470  1
  O  O312  1  0.96845723  1.00861858  0.40209163  1
  O  O313  1  0.98637957  0.99655687  0.88663494  1
  O  O314  1  -0.01452259  0.00077774  0.10899567  1
  O  O315  1  0.00101680  0.01075745  0.62117694  1
  O  O316  1  -0.00023805  0.50722825  0.11936002  1
  O  O317  1  0.00145037  0.51361970  0.61632914  1
  O  O318  1  0.51571251  0.00827760  0.11719026  1
  O  O319  1  0.52682331  -0.01753252  0.60868542  1
  O  O320  1  0.51886194  0.52593353  0.13775028  1
  O  O321  1  0.49291154  0.51625128  0.62090908  1
  O  O322  1  0.22823378  0.39198203  0.26841373  1
  O  O323  1  0.24007348  0.37693915  0.74886114  1
  O  O324  1  0.24132405  0.89038004  0.24176215  1
  O  O325  1  0.23374309  0.87379993  0.75749179  1
  O  O326  1  0.74336071  0.37601953  0.23910013  1
  O  O327  1  0.74459993  0.36653548  0.72873284  1
  O  O328  1  0.72404305  0.84025928  0.24872837  1
  O  O329  1  0.74766021  0.88125197  0.73358239  1
  O  O330  1  0.27677237  0.11198909  0.24215464  1
  O  O331  1  0.24775916  0.11291802  0.75005083  1
  O  O332  1  0.24088954  0.59612874  0.21863364  1
  O  O333  1  0.26070128  0.63004869  0.74996173  1
  O  O334  1  0.74030554  0.13047335  0.26700421  1
  O  O335  1  0.73974407  0.08205655  0.68015111  1
  O  O336  1  0.75292176  0.62563922  0.26926493  1
  O  O337  1  0.75736264  0.61270365  0.75450952  1
  O  O338  1  0.39615064  0.10528617  0.35584398  1
  O  O339  1  0.36406200  0.10848352  0.87542643  1
  O  O340  1  0.37374152  0.64884618  0.34330396  1
  O  O341  1  0.36612392  0.61920314  0.86682233  1
  O  O342  1  0.85783411  0.11335002  0.37781186  1
  O  O343  1  0.87687600  0.11998736  0.87575843  1
  O  O344  1  0.86174623  0.61792999  0.37584204  1
  O  O345  1  0.87895530  0.62326439  0.86737129  1
  O  O346  1  0.10317819  0.36547627  0.15357962  1
  O  O347  1  0.11943888  0.39677024  0.63079874  1
  O  O348  1  0.12174504  0.88085776  0.14630619  1
  O  O349  1  0.12069468  0.88536181  0.63187918  1
  O  O350  1  0.61725940  0.38123594  0.14475125  1
  O  O351  1  0.62125800  0.37162047  0.62020902  1
  O  O352  1  0.62599529  0.89112879  0.11732814  1
  O  O353  1  0.62438605  0.83314894  0.63643917  1
  O  O354  1  0.13398554  0.26607944  0.28431905  1
  O  O355  1  0.12497588  0.26898237  0.72780698  1
  O  O356  1  0.13120034  0.75469439  0.25996050  1
  O  O357  1  0.12428172  0.76025492  0.74110397  1
  O  O358  1  0.62167728  0.26048741  0.25881619  1
  O  O359  1  0.62545512  0.22291561  0.76669468  1
  O  O360  1  0.67100154  0.78632724  0.25004215  1
  O  O361  1  0.61068779  0.74406561  0.76802368  1
  O  O362  1  0.38298066  0.23258084  0.25684532  1
  O  O363  1  0.36474304  0.24367828  0.73414045  1
  O  O364  1  0.39104097  0.69033319  0.27587917  1
  O  O365  1  0.37775108  0.74592073  0.74547746  1
  O  O366  1  0.86800844  0.24795130  0.25861117  1
  O  O367  1  0.89841639  0.25425247  0.74917692  1
  O  O368  1  0.86790865  0.73785155  0.23578700  1
  O  O369  1  0.88100344  0.75459563  0.74392764  1
  O  O370  1  0.38894758  0.49807453  0.49834145  1
  O  O371  1  0.37715333  0.49989684  0.99155623  1
  O  O372  1  0.38446053  0.99302943  0.48466938  1
  O  O373  1  0.38808387  0.99443046  0.99265633  1
  O  O374  1  0.88003767  0.49551956  0.49937270  1
  O  O375  1  0.89453482  0.47357262  1.00276769  1
  O  O376  1  0.86956689  0.98660433  0.52182097  1
  O  O377  1  0.87763783  0.98832881  0.98972397  1
  O  O378  1  0.10568008  -0.01161970  -0.00170413  1
  O  O379  1  0.09889044  -0.00889995  0.50648275  1
  O  O380  1  0.11354265  0.49588762  0.00281742  1
  O  O381  1  0.11818650  0.51464765  0.50848948  1
  O  O382  1  0.61911014  0.01332850  0.00080344  1
  O  O383  1  0.61419368  0.01715456  0.48620226  1
  O  O384  1  0.60129382  0.45553844  -0.02239857  1
  O  O385  1  0.60881679  0.51478111  0.50136708  1
  O  O386  1  0.40101243  0.37803051  0.10713943  1
  O  O387  1  0.37690879  0.38170179  0.61115367  1
  O  O388  1  0.38834782  0.87947181  0.11053626  1
  O  O389  1  0.38239469  0.87127873  0.61080469  1
  O  O390  1  0.86650674  0.37404636  0.12610272  1
  O  O391  1  0.87352256  0.38115341  0.61553299  1
  O  O392  1  0.87094266  0.86151127  0.11693085  1
  O  O393  1  0.87784267  0.86391432  0.62840538  1
  O  O394  1  0.11405952  0.11713780  0.37675583  1
  O  O395  1  0.14271280  0.11541993  0.87173389  1
  O  O396  1  0.11527192  0.62718875  0.38761377  1
  O  O397  1  0.14055533  0.63256182  0.88286323  1
  O  O398  1  0.62848041  0.13613706  0.37922386  1
  O  O399  1  0.62518871  0.13001244  0.88814307  1
  O  O400  1  0.64267101  0.62191502  0.39244221  1
  O  O401  1  0.61547578  0.63454108  0.88279679  1
