# generated using pymatgen
data_V73Zn73O256
_symmetry_space_group_name_H-M   'P 1'
_cell_length_a   16.94435977
_cell_length_b   16.94540613
_cell_length_c   16.89585400
_cell_angle_alpha   90.06387980
_cell_angle_beta   89.99070491
_cell_angle_gamma   90.30904122
_symmetry_Int_Tables_number   1
_chemical_formula_structural   V73Zn73O256
_chemical_formula_sum   'V73 Zn73 O256'
_cell_volume   4851.21699803
_cell_formula_units_Z   1
loop_
 _symmetry_equiv_pos_site_id
 _symmetry_equiv_pos_as_xyz
  1  'x, y, z'
loop_
 _atom_site_type_symbol
 _atom_site_label
 _atom_site_symmetry_multiplicity
 _atom_site_fract_x
 _atom_site_fract_y
 _atom_site_fract_z
 _atom_site_occupancy
  V  V0  1  0.38095440  0.50068398  0.88052505  1
  V  V1  1  0.26259924  0.63362292  0.37686832  1
  V  V2  1  0.75087037  0.00433545  0.24200459  1
  V  V3  1  0.37700321  0.38901486  0.48662356  1
  V  V4  1  0.50306575  0.74952982  0.24714372  1
  V  V5  1  0.38259085  0.00946994  0.86475627  1
  V  V6  1  -0.00472364  0.38049341  0.88442747  1
  V  V7  1  0.92607085  0.82121850  0.55618347  1
  V  V8  1  0.87469564  0.01023318  0.38237667  1
  V  V9  1  -0.01616488  0.85830867  0.86990249  1
  V  V10  1  0.51680407  0.61995863  0.62589359  1
  V  V11  1  0.24324972  0.75728785  -0.00113773  1
  V  V12  1  0.49437134  0.13586584  0.61720351  1
  V  V13  1  0.75845863  0.00767746  0.75351558  1
  V  V14  1  0.00465372  0.23604315  0.23562887  1
  V  V15  1  0.71340454  0.19876947  0.49420146  1
  V  V16  1  0.86718970  0.50026859  0.87809855  1
  V  V17  1  0.10983149  0.38512440  0.25153706  1
  V  V18  1  0.86267820  0.37472189  0.01529666  1
  V  V19  1  0.46614270  0.13704210  0.12190938  1
  V  V20  1  0.50064155  0.87722751  0.37235986  1
  V  V21  1  0.37537748  0.76107898  0.11895599  1
  V  V22  1  0.25194696  0.12309458  0.85949859  1
  V  V23  1  0.24536430  0.01472065  0.24490769  1
  V  V24  1  0.00298739  0.87008728  0.37510561  1
  V  V25  1  0.36095772  0.86834838  0.50100961  1
  V  V26  1  0.88953218  0.63572111  0.74446481  1
  V  V27  1  0.24674912  0.38374740  0.12519890  1
  V  V28  1  0.62557636  0.74598796  0.86159467  1
  V  V29  1  0.37919338  0.37493831  0.00452136  1
  V  V30  1  -0.01306231  0.13102885  0.62751284  1
  V  V31  1  0.61721076  0.88347665  0.74014775  1
  V  V32  1  0.25840741  0.37377926  0.62430258  1
  V  V33  1  0.13078949  0.63629794  0.50346235  1
  V  V34  1  0.87357917  0.36589302  0.51820262  1
  V  V35  1  0.73155538  0.74198024  0.49030983  1
  V  V36  1  0.12033072  0.50624896  0.62673712  1
  V  V37  1  0.59990614  0.24507315  0.34607559  1
  V  V38  1  0.25779043  0.24652596  0.49845628  1
  V  V39  1  0.67709781  0.68661128  0.04778923  1
  V  V40  1  0.86592167  0.50457607  0.37939975  1
  V  V41  1  0.12596020  0.87018539  0.23479739  1
  V  V42  1  0.12194468  0.60865496  0.01396259  1
  V  V43  1  0.51409620  0.50332630  0.48376295  1
  V  V44  1  0.00712612  0.49914779  0.49144630  1
  V  V45  1  0.25757992  0.49975329  0.75073323  1
  V  V46  1  0.63733698  0.38035776  0.73614469  1
  V  V47  1  0.12649651  0.25237267  0.87759884  1
  V  V48  1  0.36242951  0.01197596  0.37523635  1
  V  V49  1  0.12404664  0.12866008  0.49712087  1
  V  V50  1  0.26160651  0.50251831  0.25535594  1
  V  V51  1  -0.00350256  0.00652427  0.50546006  1
  V  V52  1  0.49640894  0.62431221  0.09396497  1
  V  V53  1  0.59371143  -0.00270675  0.08873988  1
  V  V54  1  0.63261332  0.87691783  0.25222044  1
  V  V55  1  0.12211060  0.11725108  0.01323205  1
  V  V56  1  0.75102807  0.22889872  0.00917589  1
  V  V57  1  0.74428110  0.62247507  0.86473124  1
  V  V58  1  0.24556886  0.62542852  0.87801625  1
  V  V59  1  0.49276643  0.86573210  0.87210160  1
  V  V60  1  0.25540247  0.25261890  0.00560218  1
  V  V61  1  0.74485345  0.87513950  0.61337168  1
  V  V62  1  0.61505653  0.46486184  0.11172878  1
  V  V63  1  0.13544619  0.87743457  0.75662042  1
  V  V64  1  0.63536025  0.23511340  0.87161615  1
  V  V65  1  0.87939368  0.12661197  0.23227574  1
  V  V66  1  0.12052821  0.37668947  0.75015056  1
  V  V67  1  0.48389299  0.24825000  0.74653656  1
  V  V68  1  0.13798813  0.00380784  0.63351232  1
  V  V69  1  0.11107105  0.25372777  0.37897520  1
  V  V70  1  0.50709703  0.00274828  0.50417018  1
  V  V71  1  0.50525765  0.37571748  0.87605403  1
  V  V72  1  -0.01324902  0.24870187  0.74877789  1
  Zn  Zn73  1  0.75288361  0.50383266  0.25117160  1
  Zn  Zn74  1  0.38255685  0.74042579  0.60348712  1
  Zn  Zn75  1  0.41620467  0.92435075  0.02873546  1
  Zn  Zn76  1  0.13323846  0.75633823  0.37686621  1
  Zn  Zn77  1  0.88911164  0.63376889  0.24954759  1
  Zn  Zn78  1  0.69534960  0.32824582  0.19483485  1
  Zn  Zn79  1  0.38557876  0.62510092  0.24976600  1
  Zn  Zn80  1  0.25146619  0.88446092  0.11973902  1
  Zn  Zn81  1  0.38255500  0.63403606  0.74609624  1
  Zn  Zn82  1  0.19332287  0.19589139  0.18883240  1
  Zn  Zn83  1  0.18242333  0.19197079  0.68121657  1
  Zn  Zn84  1  0.18515524  0.69035139  0.18744772  1
  Zn  Zn85  1  0.19540262  0.68897381  0.69530606  1
  Zn  Zn86  1  0.68051849  0.16255397  0.18427841  1
  Zn  Zn87  1  0.67135565  0.18847005  0.68189131  1
  Zn  Zn88  1  0.70554682  0.66676536  0.21320792  1
  Zn  Zn89  1  0.69628466  0.68823217  0.68062616  1
  Zn  Zn90  1  0.29498506  0.31706275  0.32098443  1
  Zn  Zn91  1  0.31062634  0.31683833  0.81666491  1
  Zn  Zn92  1  0.31635359  0.81919462  0.30740458  1
  Zn  Zn93  1  0.30024374  0.82352253  0.81655155  1
  Zn  Zn94  1  0.75723938  0.35288922  0.38067350  1
  Zn  Zn95  1  0.80918928  0.31088791  0.82003861  1
  Zn  Zn96  1  0.81069241  0.82348211  0.32859998  1
  Zn  Zn97  1  0.80558142  0.81177599  0.80966379  1
  Zn  Zn98  1  0.18745536  0.43848507  0.43500744  1
  Zn  Zn99  1  0.18937505  0.43921721  0.93799399  1
  Zn  Zn100  1  0.18441041  0.94202368  0.44152220  1
  Zn  Zn101  1  0.18544328  0.94360044  0.93220812  1
  Zn  Zn102  1  0.69275019  0.44315374  0.55894823  1
  Zn  Zn103  1  0.68552186  0.43204402  0.93986517  1
  Zn  Zn104  1  0.69058918  0.95074225  0.43589235  1
  Zn  Zn105  1  0.69356611  0.92834189  0.92137196  1
  Zn  Zn106  1  0.30364824  0.06366016  0.05237834  1
  Zn  Zn107  1  0.32114259  0.06429585  0.56395996  1
  Zn  Zn108  1  0.31185191  0.56541149  0.06521866  1
  Zn  Zn109  1  0.31548556  0.56231834  0.56299103  1
  Zn  Zn110  1  0.78546535  0.02190582  0.02893094  1
  Zn  Zn111  1  0.78024927  0.08822020  0.60077676  1
  Zn  Zn112  1  0.80354522  0.55269463  0.07712889  1
  Zn  Zn113  1  0.82107032  0.57665325  0.56350167  1
  Zn  Zn114  1  0.44766510  0.44380349  0.18648392  1
  Zn  Zn115  1  0.44723164  0.43993329  0.68119017  1
  Zn  Zn116  1  0.44964326  0.97063834  0.20487276  1
  Zn  Zn117  1  0.42797777  0.93847411  0.68420516  1
  Zn  Zn118  1  0.88284234  0.37683900  0.23423441  1
  Zn  Zn119  1  0.81670965  0.44827163  0.69086047  1
  Zn  Zn120  1  0.92244939  0.91696226  0.20724303  1
  Zn  Zn121  1  0.94041600  0.94151033  0.69714486  1
  Zn  Zn122  1  0.06585805  0.05887534  0.31366622  1
  Zn  Zn123  1  0.06412272  0.06979020  0.81158429  1
  Zn  Zn124  1  0.06838188  0.57098402  0.31612429  1
  Zn  Zn125  1  0.06293243  0.55762554  0.81829288  1
  Zn  Zn126  1  0.55852027  0.07153410  0.30949425  1
  Zn  Zn127  1  0.55770985  0.06149251  0.80117885  1
  Zn  Zn128  1  0.57257003  0.54463706  0.29619308  1
  Zn  Zn129  1  0.56401810  0.55960170  0.80705797  1
  Zn  Zn130  1  0.43940340  0.19009122  0.43306481  1
  Zn  Zn131  1  0.44014116  0.18659854  0.93731586  1
  Zn  Zn132  1  0.45021715  0.68600822  0.43613198  1
  Zn  Zn133  1  0.42400142  0.69914848  0.92681086  1
  Zn  Zn134  1  0.89614720  0.21487252  0.41108183  1
  Zn  Zn135  1  0.94201031  0.19438515  0.95266044  1
  Zn  Zn136  1  0.93867227  0.68112088  0.44100786  1
  Zn  Zn137  1  0.95352304  0.67037832  0.91715157  1
  Zn  Zn138  1  0.06368002  0.31849971  0.06346982  1
  Zn  Zn139  1  0.05886631  0.31602079  0.56582574  1
  Zn  Zn140  1  0.06900342  0.82597244  0.03186092  1
  Zn  Zn141  1  0.10045562  0.79258503  0.60305332  1
  Zn  Zn142  1  0.55577500  0.28353856  0.05369246  1
  Zn  Zn143  1  0.56080390  0.31323105  0.55247918  1
  Zn  Zn144  1  0.56750200  0.82097376  0.06396904  1
  Zn  Zn145  1  0.55781807  0.80766240  0.55776919  1
  O  O146  1  0.13965474  0.13223929  0.11122972  1
  O  O147  1  0.11458153  0.12015455  0.61891018  1
  O  O148  1  0.13022225  0.62530444  0.11374884  1
  O  O149  1  0.14867203  0.61994331  0.61093170  1
  O  O150  1  0.62623531  0.08856336  0.11757030  1
  O  O151  1  0.59216661  0.11461897  0.63667537  1
  O  O152  1  0.60761913  0.63070495  0.10698221  1
  O  O153  1  0.61666272  0.62312288  0.63014861  1
  O  O154  1  0.36759936  0.37460093  0.38829568  1
  O  O155  1  0.38232588  0.38288302  0.88226520  1
  O  O156  1  0.38235559  0.88394379  0.38117662  1
  O  O157  1  0.38889972  0.87932753  0.86731148  1
  O  O158  1  0.87997406  0.39644941  0.40502392  1
  O  O159  1  0.87770124  0.38310005  0.88189134  1
  O  O160  1  0.89546653  0.89510622  0.36180512  1
  O  O161  1  0.88359521  0.86944132  0.86850544  1
  O  O162  1  0.25689817  -0.00004156  0.37145349  1
  O  O163  1  0.24644138  0.02134575  0.86536439  1
  O  O164  1  0.24605688  0.50905686  0.36057522  1
  O  O165  1  0.26040742  0.50308198  0.86843980  1
  O  O166  1  0.77144998  -0.00689270  0.36585934  1
  O  O167  1  0.73713609  0.01174276  0.85149150  1
  O  O168  1  0.76891753  0.50634630  0.39167532  1
  O  O169  1  0.75010143  0.51367432  0.88346603  1
  O  O170  1  0.25220454  0.49376578  0.13885537  1
  O  O171  1  0.24504387  0.49209133  0.63460896  1
  O  O172  1  0.25689837  0.99929406  0.14018296  1
  O  O173  1  0.23582505  1.01337263  0.62123812  1
  O  O174  1  0.71278028  0.48799637  0.13340628  1
  O  O175  1  0.75274576  0.51108815  0.62374621  1
  O  O176  1  0.76235415  0.99547296  0.14366766  1
  O  O177  1  0.74927381  0.97734693  0.62937503  1
  O  O178  1  0.00812625  0.36257479  0.24625299  1
  O  O179  1  0.01205913  0.36362354  0.76218897  1
  O  O180  1  0.01849476  0.88688010  0.26505136  1
  O  O181  1  0.01409233  0.89587235  0.77008364  1
  O  O182  1  0.44200256  0.33267444  0.24684488  1
  O  O183  1  0.50895461  0.36506578  0.75258080  1
  O  O184  1  0.50732679  0.87877608  0.25509488  1
  O  O185  1  0.50986120  0.88016874  0.75441172  1
  O  O186  1  0.49332036  0.08458669  0.21583907  1
  O  O187  1  0.49500258  0.14466878  0.74698583  1
  O  O188  1  0.50508223  0.64287701  0.24352332  1
  O  O189  1  0.49743385  0.61487251  0.73365726  1
  O  O190  1  0.99943105  0.12909454  0.24734286  1
  O  O191  1  1.00368272  0.14228790  0.74506047  1
  O  O192  1  1.00397431  0.61432129  0.22975226  1
  O  O193  1  0.98652486  0.62819308  0.77844319  1
  O  O194  1  0.36282989  0.26256184  -0.01122127  1
  O  O195  1  0.36017870  0.25653197  0.49555299  1
  O  O196  1  0.36140977  0.75160303  0.00844949  1
  O  O197  1  0.37892130  0.76507725  0.48740955  1
  O  O198  1  0.85817937  0.25733579  -0.00747661  1
  O  O199  1  0.90394176  0.26992720  0.51113110  1
  O  O200  1  0.90938308  0.74006570  0.03387946  1
  O  O201  1  0.87062463  0.75829962  0.49798820  1
  O  O202  1  0.12440915  0.24729655  0.49625300  1
  O  O203  1  0.13572562  0.25542029  0.99088524  1
  O  O204  1  0.13640372  0.73917192  0.50760223  1
  O  O205  1  0.14090020  0.73775758  1.00489147  1
  O  O206  1  0.61530399  0.23589506  0.48825496  1
  O  O207  1  0.63846415  0.24526780  0.98208844  1
  O  O208  1  0.63102163  0.74872324  0.49415469  1
  O  O209  1  0.62618194  0.75413826  0.98546422  1
  O  O210  1  0.49424366  0.23390662  0.13438500  1
  O  O211  1  0.49823805  0.24507355  0.63223955  1
  O  O212  1  0.49444491  0.74920270  0.12530697  1
  O  O213  1  0.49824137  0.72773589  0.61320787  1
  O  O214  1  1.00962374  0.24711639  0.13733361  1
  O  O215  1  1.00840939  0.24723864  0.64304361  1
  O  O216  1  0.96706487  0.75876633  0.07737851  1
  O  O217  1  0.98852886  0.76670697  0.60954595  1
  O  O218  1  0.00885986  0.24731312  0.36646825  1
  O  O219  1  0.00832664  0.25513005  0.86710805  1
  O  O220  1  -0.00177281  0.76879233  0.38376553  1
  O  O221  1  0.00341989  0.76050598  0.87622806  1
  O  O222  1  0.49892837  0.24981368  0.36085141  1
  O  O223  1  0.50575061  0.25624635  0.86288409  1
  O  O224  1  0.49557387  0.76501999  0.35961892  1
  O  O225  1  0.50275350  0.76006382  0.86489284  1
  O  O226  1  0.24178737  0.14178928  0.51140731  1
  O  O227  1  0.24154273  0.13997560  0.98667835  1
  O  O228  1  0.24619365  0.61617201  0.48245898  1
  O  O229  1  0.24561379  0.63106546  0.99553213  1
  O  O230  1  0.72905388  0.09783936  0.49776989  1
  O  O231  1  0.76451709  0.12993627  1.00266238  1
  O  O232  1  0.75411433  0.64563880  0.50452971  1
  O  O233  1  0.74405940  0.62532616  0.99973108  1
  O  O234  1  0.25684092  0.37204125  0.00622546  1
  O  O235  1  0.25640812  0.37091540  0.50499448  1
  O  O236  1  0.23700645  0.86186528  0.00074329  1
  O  O237  1  0.26128646  0.87577070  0.49544481  1
  O  O238  1  0.75936668  0.36095916  -0.00241985  1
  O  O239  1  0.76889703  0.37230569  0.50513223  1
  O  O240  1  0.77752475  0.91872402  -0.00778391  1
  O  O241  1  0.73934632  0.87311389  0.50932379  1
  O  O242  1  0.12636556  0.48622126  0.25530264  1
  O  O243  1  0.13362870  0.49309967  0.74834710  1
  O  O244  1  0.13915735  0.98847510  0.25861129  1
  O  O245  1  0.12322590  1.00271787  0.73968858  1
  O  O246  1  0.56059142  0.46544396  0.21014322  1
  O  O247  1  0.62338881  0.47739859  0.75319000  1
  O  O248  1  0.64509303  0.99938420  0.25706878  1
  O  O249  1  0.62583869  0.98568411  0.74651295  1
  O  O250  1  0.35576452  -0.00819976  0.26637178  1
  O  O251  1  0.37045670  -0.00552419  0.76527570  1
  O  O252  1  0.36454231  0.50361807  0.24868380  1
  O  O253  1  0.36542276  0.49172422  0.75828395  1
  O  O254  1  0.87386149  0.00955091  0.25488168  1
  O  O255  1  0.85851810  -0.00155313  0.74835247  1
  O  O256  1  0.87903075  0.48890809  0.27524989  1
  O  O257  1  0.87012147  0.51231879  0.77284707  1
  O  O258  1  0.12985422  0.36671256  0.36063675  1
  O  O259  1  0.11842052  0.37191637  0.87187446  1
  O  O260  1  0.11326928  0.87419121  0.38079069  1
  O  O261  1  0.13189751  0.87146178  0.85937361  1
  O  O262  1  0.64315067  0.33413148  0.37233188  1
  O  O263  1  0.61810230  0.36458125  0.86710505  1
  O  O264  1  0.61433448  0.88819697  0.36034515  1
  O  O265  1  0.61528157  0.86689914  0.86005439  1
  O  O266  1  0.36485757  0.13291922  0.12149646  1
  O  O267  1  0.39438670  0.11262499  0.63388370  1
  O  O268  1  0.38637195  0.63744082  0.12488418  1
  O  O269  1  0.37984618  0.62514361  0.62846409  1
  O  O270  1  0.88218789  0.12435355  0.13656321  1
  O  O271  1  0.88918013  0.12477251  0.61786398  1
  O  O272  1  0.95798832  0.55244604  0.11150044  1
  O  O273  1  0.89028050  0.62060069  0.64587879  1
  O  O274  1  0.24967766  0.26876677  0.11640111  1
  O  O275  1  0.23790726  0.26431223  0.60979917  1
  O  O276  1  0.25974230  0.75172769  0.11598464  1
  O  O277  1  0.28992192  0.75590293  0.67314330  1
  O  O278  1  0.73641200  0.24199481  0.11070482  1
  O  O279  1  0.73912666  0.22323501  0.59120354  1
  O  O280  1  0.72165786  0.73895959  0.12026421  1
  O  O281  1  0.74880459  0.76518332  0.61266454  1
  O  O282  1  0.23370230  0.25269664  0.39265015  1
  O  O283  1  0.24268455  0.24979249  0.88283937  1
  O  O284  1  0.25219825  0.73674063  0.36401222  1
  O  O285  1  0.25976426  0.74052669  0.89031296  1
  O  O286  1  0.77696176  0.23519496  0.41760488  1
  O  O287  1  0.73970802  0.24060705  0.87727101  1
  O  O288  1  0.74985403  0.75669755  0.38993072  1
  O  O289  1  0.73894739  0.73478546  0.87571040  1
  O  O290  1  0.02382233  0.13835472  0.00219774  1
  O  O291  1  0.00969036  0.11897563  0.51007268  1
  O  O292  1  0.02448835  0.62212200  -0.01048235  1
  O  O293  1  0.02616820  0.62089199  0.49783360  1
  O  O294  1  0.49062688  0.12813896  0.01937191  1
  O  O295  1  0.49030832  0.11550261  0.50748461  1
  O  O296  1  0.49374209  0.63937651  -0.00377256  1
  O  O297  1  0.50067413  0.61076717  0.50495630  1
  O  O298  1  0.48348139  0.38602698  0.50385754  1
  O  O299  1  0.49067036  0.35839436  0.98546841  1
  O  O300  1  0.49590565  0.88523531  0.48812267  1
  O  O301  1  0.50305170  0.86857977  0.97704948  1
  O  O302  1  1.00088968  0.39727030  0.50996909  1
  O  O303  1  0.98278660  0.35924522  0.99106256  1
  O  O304  1  0.98987713  0.88610885  0.49528934  1
  O  O305  1  1.01643095  0.89495450  0.96222345  1
  O  O306  1  0.50424581  0.51333465  0.38241453  1
  O  O307  1  0.49143384  0.48716352  0.86659786  1
  O  O308  1  0.48656780  0.99667614  0.37849604  1
  O  O309  1  0.48691660  0.99692513  0.87124836  1
  O  O310  1  1.01298226  0.50055789  0.39020139  1
  O  O311  1  0.98951203  0.48626861  0.87815228  1
  O  O312  1  1.00008997  0.99497155  0.38892822  1
  O  O313  1  0.96527206  1.03614947  0.87749600  1
  O  O314  1  -0.03883071  -0.03276294  0.09998762  1
  O  O315  1  0.00242453  0.01066825  0.61913267  1
  O  O316  1  0.00533209  0.54469044  0.16748063  1
  O  O317  1  0.02203785  0.51189657  0.61978031  1
  O  O318  1  0.48789228  -0.00974581  0.09550588  1
  O  O319  1  0.49470498  -0.00250677  0.60615450  1
  O  O320  1  0.48993051  0.52352637  0.10048096  1
  O  O321  1  0.49781768  0.51073722  0.60830353  1
  O  O322  1  0.24274739  0.38767839  0.24511388  1
  O  O323  1  0.24111195  0.38106417  0.74631094  1
  O  O324  1  0.23613018  0.87945613  0.24524006  1
  O  O325  1  0.23541689  0.88990831  0.75078096  1
  O  O326  1  0.76813442  0.38027484  0.26265554  1
  O  O327  1  0.74241825  0.37217292  0.74824702  1
  O  O328  1  0.73835774  0.88449464  0.25609696  1
  O  O329  1  0.73623403  0.88192419  0.74384010  1
  O  O330  1  0.24137556  0.11385281  0.25277744  1
  O  O331  1  0.24729339  0.14328174  0.76197287  1
  O  O332  1  0.24788722  0.61365173  0.25641269  1
  O  O333  1  0.24826128  0.61037698  0.76029359  1
  O  O334  1  0.76756239  0.11427217  0.24798002  1
  O  O335  1  0.74387723  0.10524152  0.71670791  1
  O  O336  1  0.80552018  0.60571594  0.17986951  1
  O  O337  1  0.75767919  0.62415245  0.76258150  1
  O  O338  1  0.37329980  0.11049986  0.38060330  1
  O  O339  1  0.36464441  0.11885510  0.87452191  1
  O  O340  1  0.36530309  0.62989177  0.36990887  1
  O  O341  1  0.36725513  0.61635461  0.86752390  1
  O  O342  1  0.88837008  0.11130336  0.36178871  1
  O  O343  1  0.90902235  0.08489065  0.89266597  1
  O  O344  1  0.89243077  0.61368610  0.36442122  1
  O  O345  1  0.85806702  0.61850962  0.88276670  1
  O  O346  1  0.13363681  0.37291089  0.14074964  1
  O  O347  1  0.13223081  0.38507015  0.63498133  1
  O  O348  1  0.11701013  0.87007709  0.13308893  1
  O  O349  1  0.12046870  0.90182510  0.62831845  1
  O  O350  1  0.61991593  0.36157967  0.11172985  1
  O  O351  1  0.62657236  0.37051860  0.63208489  1
  O  O352  1  0.61619059  0.90056643  0.13776765  1
  O  O353  1  0.62949997  0.86726749  0.63410650  1
  O  O354  1  0.11828726  0.25459388  0.25859535  1
  O  O355  1  0.12559901  0.26146941  0.76115524  1
  O  O356  1  0.12644713  0.76644983  0.25398203  1
  O  O357  1  0.12562460  0.77609424  0.71894519  1
  O  O358  1  0.62692994  0.24512315  0.24096650  1
  O  O359  1  0.62091663  0.26101484  0.75767263  1
  O  O360  1  0.61750836  0.77346413  0.24177307  1
  O  O361  1  0.63113349  0.75878756  0.75716528  1
  O  O362  1  0.38405802  0.28435799  0.24282094  1
  O  O363  1  0.38577987  0.26093724  0.75235947  1
  O  O364  1  0.38569671  0.75277563  0.23689899  1
  O  O365  1  0.34668301  0.74951840  0.74055766  1
  O  O366  1  0.89609373  0.23818212  0.25455417  1
  O  O367  1  0.88903566  0.25559439  0.75726252  1
  O  O368  1  0.87297299  0.76282853  0.24729429  1
  O  O369  1  0.86816174  0.73374614  0.75437643  1
  O  O370  1  0.37425695  0.49065939  0.49312730  1
  O  O371  1  0.36818258  0.49342681  0.98668361  1
  O  O372  1  0.37740659  0.99013984  0.48832492  1
  O  O373  1  0.34930471  0.99217663  0.97191874  1
  O  O374  1  0.90107934  0.52037231  0.49555543  1
  O  O375  1  0.86064756  0.48459930  0.99706836  1
  O  O376  1  0.88488025  1.00928036  0.48637713  1
  O  O377  1  0.91991680  0.99662025  1.04528467  1
  O  O378  1  0.13323911  0.01777021  -0.00096112  1
  O  O379  1  0.11723731  0.01066504  0.50938444  1
  O  O380  1  0.13401379  0.50738420  0.00626846  1
  O  O381  1  0.12479915  0.50665201  0.50687586  1
  O  O382  1  0.62033238  -0.01345098  -0.00580349  1
  O  O383  1  0.60472587  -0.00050183  0.49050309  1
  O  O384  1  0.61149699  0.48404005  0.01122384  1
  O  O385  1  0.61095305  0.48548475  0.49259753  1
  O  O386  1  0.36978597  0.38900005  0.10963302  1
  O  O387  1  0.36180554  0.38079323  0.61711759  1
  O  O388  1  0.37482373  0.86813814  0.12274733  1
  O  O389  1  0.38252271  0.87242951  0.60297332  1
  O  O390  1  0.87531974  0.37471873  0.11395618  1
  O  O391  1  0.88276539  0.39053518  0.61641409  1
  O  O392  1  0.87813710  0.81116495  0.18198836  1
  O  O393  1  0.86613802  0.87566417  0.62253486  1
  O  O394  1  0.11984378  0.13273952  0.39109850  1
  O  O395  1  0.13464348  0.13706480  0.87937097  1
  O  O396  1  0.13700047  0.63444559  0.38508929  1
  O  O397  1  0.14262736  0.61517766  0.88301156  1
  O  O398  1  0.62643880  0.14494113  0.36297128  1
  O  O399  1  0.61644839  0.13829485  0.86345885  1
  O  O400  1  0.67541302  0.58481220  0.28134411  1
  O  O401  1  0.63400847  0.62972022  0.86750296  1
