# generated using pymatgen
data_V73Zn73O256
_symmetry_space_group_name_H-M   'P 1'
_cell_length_a   16.87282490
_cell_length_b   16.87065996
_cell_length_c   16.87494119
_cell_angle_alpha   90.23993004
_cell_angle_beta   89.78008571
_cell_angle_gamma   90.05407904
_symmetry_Int_Tables_number   1
_chemical_formula_structural   V73Zn73O256
_chemical_formula_sum   'V73 Zn73 O256'
_cell_volume   4803.46848902
_cell_formula_units_Z   1
loop_
 _symmetry_equiv_pos_site_id
 _symmetry_equiv_pos_as_xyz
  1  'x, y, z'
loop_
 _atom_site_type_symbol
 _atom_site_label
 _atom_site_symmetry_multiplicity
 _atom_site_fract_x
 _atom_site_fract_y
 _atom_site_fract_z
 _atom_site_occupancy
  V  V0  1  0.87344383  0.13101034  0.25218756  1
  V  V1  1  0.76954690  0.37643697  0.64494433  1
  V  V2  1  0.12978829  0.62097233  0.00003939  1
  V  V3  1  0.13485494  0.88319271  0.74719129  1
  V  V4  1  0.01678137  0.26407451  0.25414882  1
  V  V5  1  0.86971260  0.09585278  0.76194585  1
  V  V6  1  0.75343151  0.61762778  0.87159044  1
  V  V7  1  0.37202592  0.73621087  0.61461976  1
  V  V8  1  0.87480031  0.87836822  -0.00501776  1
  V  V9  1  0.51326250  0.37147669  0.87969671  1
  V  V10  1  0.49987651  0.60758343  0.64250462  1
  V  V11  1  0.62276070  0.61883848  0.50176891  1
  V  V12  1  0.24587275  0.49841693  0.24643582  1
  V  V13  1  0.86925692  0.37351904  0.00278085  1
  V  V14  1  0.62000737  0.62905573  0.00341772  1
  V  V15  1  0.25218166  0.87651849  0.12361082  1
  V  V16  1  0.37532538  0.26458183  0.62951075  1
  V  V17  1  0.01687264  0.00188036  0.49628164  1
  V  V18  1  0.25801699  0.64101178  0.36245574  1
  V  V19  1  0.87516554  0.37961457  0.46889399  1
  V  V20  1  0.49381468  0.75818564  0.74794829  1
  V  V21  1  0.13054759  0.74292177  0.87458073  1
  V  V22  1  0.52460545  0.25341580  0.75709733  1
  V  V23  1  0.49490636  0.50918362  -0.00170851  1
  V  V24  1  0.62571268  0.75644801  0.86758596  1
  V  V25  1  0.87299606  0.60384109  0.24779360  1
  V  V26  1  0.49161532  0.63294700  0.13789256  1
  V  V27  1  0.25384118  0.88038755  0.60983191  1
  V  V28  1  0.00380591  0.13025384  0.12202935  1
  V  V29  1  0.35904378  0.50884241  0.86344873  1
  V  V30  1  0.10913630  0.87194066  0.24819605  1
  V  V31  1  0.64168685  0.49348205  0.64488652  1
  V  V32  1  0.75154911  0.26248854  0.49993850  1
  V  V33  1  0.13026485  0.25215069  0.39126967  1
  V  V34  1  0.00232341  0.49993023  0.00106010  1
  V  V35  1  0.60764409  0.27057122  0.37068846  1
  V  V36  1  0.74812196  0.87533311  0.13212268  1
  V  V37  1  0.75152454  0.13644158  0.37300393  1
  V  V38  1  0.25800098  0.74996641  -0.00080152  1
  V  V39  1  0.86419940  0.25365337  0.12507022  1
  V  V40  1  0.73213627  0.24372123  -0.00432910  1
  V  V41  1  0.23946587  0.37713766  0.12895829  1
  V  V42  1  0.12783904  0.62486902  0.49111701  1
  V  V43  1  -0.00003031  0.00394114  -0.00240612  1
  V  V44  1  0.37564972  0.75568753  0.14913021  1
  V  V45  1  0.12433176  0.00606737  0.12091916  1
  V  V46  1  -0.00473445  0.49853099  0.47410357  1
  V  V47  1  -0.01374853  0.23379098  0.72359839  1
  V  V48  1  0.00153840  0.61918433  0.61842741  1
  V  V49  1  0.86515177  0.75366318  0.61334987  1
  V  V50  1  0.10640328  0.75526814  0.37005913  1
  V  V51  1  0.36868376  0.11729180  0.74065949  1
  V  V52  1  0.37144964  0.37295769  0.00917505  1
  V  V53  1  0.25628770  0.27908055  0.50763085  1
  V  V54  1  0.37592942  0.48229467  0.37845463  1
  V  V55  1  -0.00301512  0.74626152  0.74750488  1
  V  V56  1  0.87429078  0.49753856  0.86533045  1
  V  V57  1  0.60868810  0.00660532  0.12442461  1
  V  V58  1  0.73277485  0.10719410  0.88151749  1
  V  V59  1  -0.00119319  0.88226580  0.87175041  1
  V  V60  1  0.00255411  0.62883789  0.12492203  1
  V  V61  1  0.63479693  0.11473172  0.50140490  1
  V  V62  1  0.00655982  0.35862659  0.87241385  1
  V  V63  1  0.76652615  0.61558547  0.38912742  1
  V  V64  1  0.40894490  -0.00590118  0.41825700  1
  V  V65  1  0.37861959  0.23407804  0.14383692  1
  V  V66  1  0.75107229  0.75034755  0.00130311  1
  V  V67  1  0.65968784  0.44961422  0.18841120  1
  V  V68  1  0.24901806  0.01868867  0.25529414  1
  V  V69  1  0.49228199  0.87884659  0.89167131  1
  V  V70  1  0.60995262  0.86299116  0.25898080  1
  V  V71  1  0.87736824  0.75168365  0.13751726  1
  V  V72  1  0.52216836  0.12531370  0.62816062  1
  Zn  Zn73  1  0.88107216  0.87975380  0.50088380  1
  Zn  Zn74  1  0.74766876  0.00469292  0.24844554  1
  Zn  Zn75  1  0.37119866  -0.01290197  0.84965458  1
  Zn  Zn76  1  0.87122161  0.61469255  0.74232207  1
  Zn  Zn77  1  0.12451939  0.22087389  0.89275791  1
  Zn  Zn78  1  0.87984830  -0.00753794  0.37740617  1
  Zn  Zn79  1  0.24973126  0.11724223  0.88354971  1
  Zn  Zn80  1  0.63432572  0.75173309  0.38749335  1
  Zn  Zn81  1  0.39291505  0.12224210  0.27381842  1
  Zn  Zn82  1  0.20553393  0.19881431  0.05913654  1
  Zn  Zn83  1  0.19634990  0.25319497  0.72341585  1
  Zn  Zn84  1  0.18652971  0.68903580  0.18648444  1
  Zn  Zn85  1  0.16563744  0.72103447  0.66022497  1
  Zn  Zn86  1  0.67411454  0.19317108  0.19036886  1
  Zn  Zn87  1  0.73039894  0.16628586  0.67126594  1
  Zn  Zn88  1  0.66793254  0.65956173  0.21058994  1
  Zn  Zn89  1  0.68673376  0.68794247  0.68918582  1
  Zn  Zn90  1  0.30529468  0.30905416  0.31587514  1
  Zn  Zn91  1  0.31918855  0.31657970  0.82124810  1
  Zn  Zn92  1  0.30536492  0.83107422  0.32194349  1
  Zn  Zn93  1  0.31463202  0.80333790  0.80735508  1
  Zn  Zn94  1  0.79330246  0.32293969  0.29751800  1
  Zn  Zn95  1  0.81570856  0.29839481  0.82283098  1
  Zn  Zn96  1  0.80411379  0.80474784  0.32187399  1
  Zn  Zn97  1  0.81341961  0.81496754  0.80890699  1
  Zn  Zn98  1  0.18513379  0.44062050  0.42551876  1
  Zn  Zn99  1  0.18772216  0.43160394  0.93472920  1
  Zn  Zn100  1  0.19274542  0.93544437  0.43334548  1
  Zn  Zn101  1  0.18984825  0.93887638  0.93379659  1
  Zn  Zn102  1  0.68414117  0.44539049  0.43962083  1
  Zn  Zn103  1  0.68193857  0.43527952  1.01410321  1
  Zn  Zn104  1  0.70906781  0.93645294  0.42595926  1
  Zn  Zn105  1  0.67678529  0.93661518  0.94298969  1
  Zn  Zn106  1  0.30885993  0.05179664  0.03872466  1
  Zn  Zn107  1  0.32505211  0.06243982  0.58044794  1
  Zn  Zn108  1  0.31553387  0.56533349  0.06422490  1
  Zn  Zn109  1  0.30458505  0.56027226  0.56984336  1
  Zn  Zn110  1  0.80843641  0.06275818  0.06337068  1
  Zn  Zn111  1  0.90095858  0.08152122  0.57395511  1
  Zn  Zn112  1  0.80958907  0.55987520  0.06680310  1
  Zn  Zn113  1  0.81898084  0.55569220  0.56599869  1
  Zn  Zn114  1  0.44561008  0.44518248  0.19456010  1
  Zn  Zn115  1  0.44439866  0.43480639  0.69709884  1
  Zn  Zn116  1  0.43270233  0.93879253  0.20050605  1
  Zn  Zn117  1  0.44957104  0.92973918  0.65102456  1
  Zn  Zn118  1  0.94295673  0.43599885  0.18302603  1
  Zn  Zn119  1  0.96470419  0.42323361  0.67812312  1
  Zn  Zn120  1  0.93091030  0.94410325  0.18563352  1
  Zn  Zn121  1  0.94578647  0.93579108  0.67953312  1
  Zn  Zn122  1  0.06780702  0.07128895  0.31817524  1
  Zn  Zn123  1  0.08338804  0.08783810  0.77695022  1
  Zn  Zn124  1  0.06531286  0.56437412  0.30220178  1
  Zn  Zn125  1  0.06289089  0.55971918  0.81204903  1
  Zn  Zn126  1  0.56669588  0.05141747  0.31841257  1
  Zn  Zn127  1  0.56403159  0.05496389  0.80917417  1
  Zn  Zn128  1  0.55900534  0.52964341  0.30697577  1
  Zn  Zn129  1  0.56588171  0.55833057  0.82074472  1
  Zn  Zn130  1  0.43751006  0.18338720  0.44613546  1
  Zn  Zn131  1  0.41222239  0.19247923  0.93070552  1
  Zn  Zn132  1  0.43197333  0.61871841  0.45269205  1
  Zn  Zn133  1  0.43287231  0.68749979  0.92657465  1
  Zn  Zn134  1  0.94537751  0.19154209  0.43561688  1
  Zn  Zn135  1  0.92507874  0.18088621  0.93581147  1
  Zn  Zn136  1  0.93726544  0.68955620  0.43302835  1
  Zn  Zn137  1  0.93861352  0.68890644  0.93689269  1
  Zn  Zn138  1  0.05792427  0.31369805  0.06295276  1
  Zn  Zn139  1  0.05670980  0.31681338  0.56179342  1
  Zn  Zn140  1  0.06335110  0.81203102  0.06058678  1
  Zn  Zn141  1  0.05795033  0.81821670  0.55601885  1
  Zn  Zn142  1  0.55166317  0.30984747  0.07400362  1
  Zn  Zn143  1  0.56945395  0.31932031  0.56564868  1
  Zn  Zn144  1  0.56062414  0.81579395  0.06696705  1
  Zn  Zn145  1  0.56266166  0.79679626  0.55818552  1
  O  O146  1  0.11392735  0.11659379  0.12050984  1
  O  O147  1  0.16557501  0.12079052  0.57469080  1
  O  O148  1  0.11323422  0.63380906  0.11412549  1
  O  O149  1  0.11618998  0.63719530  0.59834153  1
  O  O150  1  0.62926164  0.10568076  0.13526982  1
  O  O151  1  0.63317025  0.13962936  0.61262921  1
  O  O152  1  0.60339673  0.64678332  0.10976303  1
  O  O153  1  0.62322720  0.61334104  0.62803894  1
  O  O154  1  0.37220456  0.38265686  0.38055067  1
  O  O155  1  0.37997472  0.38216882  0.89337703  1
  O  O156  1  0.36180880  0.91000761  0.37872324  1
  O  O157  1  0.38937470  0.86909206  0.86586425  1
  O  O158  1  0.86686090  0.38178991  0.37071150  1
  O  O159  1  0.88359857  0.37805337  0.88569975  1
  O  O160  1  0.81576573  0.88483137  0.40292346  1
  O  O161  1  0.88495172  0.86654552  0.88492173  1
  O  O162  1  0.23241053  0.00604742  0.35482074  1
  O  O163  1  0.28175098  0.00309672  0.92113146  1
  O  O164  1  0.25834798  0.51234691  0.36421879  1
  O  O165  1  0.25929887  0.49811769  0.87893457  1
  O  O166  1  0.75169311  0.02959724  0.36819331  1
  O  O167  1  0.74739180  0.00662630  0.88959260  1
  O  O168  1  0.74243699  0.51945543  0.36986263  1
  O  O169  1  0.76271856  0.51254085  0.88469047  1
  O  O170  1  0.25839293  0.49560149  0.13836354  1
  O  O171  1  0.23034036  0.50429639  0.64103383  1
  O  O172  1  0.24145171  0.99379874  0.11886824  1
  O  O173  1  0.25588020  0.97843390  0.62213818  1
  O  O174  1  0.72606132  0.49771334  0.11064515  1
  O  O175  1  0.75207376  0.49221023  0.63605125  1
  O  O176  1  0.74661054  0.98665104  0.12610043  1
  O  O177  1  0.74919137  0.91198756  0.68459510  1
  O  O178  1  -0.00014771  0.36353690  0.24453615  1
  O  O179  1  -0.01114561  0.34661781  0.76785836  1
  O  O180  1  0.01026534  0.88283009  0.24390033  1
  O  O181  1  0.01163746  0.86527223  0.75304923  1
  O  O182  1  0.55343864  0.43404172  0.23272230  1
  O  O183  1  0.50586368  0.36574700  0.76839841  1
  O  O184  1  0.51037948  0.87178087  0.25665742  1
  O  O185  1  0.49930270  0.85804594  0.74215417  1
  O  O186  1  0.50410168  0.11922539  0.25817617  1
  O  O187  1  0.50288699  0.14205549  0.74649959  1
  O  O188  1  0.50162006  0.62601769  0.23429113  1
  O  O189  1  0.50792842  0.62813485  0.74540967  1
  O  O190  1  0.99148819  0.13810357  0.24109711  1
  O  O191  1  0.97726946  0.11987830  0.74162647  1
  O  O192  1  0.98947436  0.61890288  0.23492498  1
  O  O193  1  1.00277035  0.63129519  0.73906398  1
  O  O194  1  0.38149274  0.27057818  0.01070850  1
  O  O195  1  0.36417751  0.24584505  0.51602580  1
  O  O196  1  0.35902077  0.74662252  -0.00607615  1
  O  O197  1  0.38577420  0.72606138  0.51743545  1
  O  O198  1  0.87180920  0.25610166  0.00875190  1
  O  O199  1  0.86888980  0.27165840  0.48540822  1
  O  O200  1  0.86800761  0.75761559  0.00493345  1
  O  O201  1  0.87920855  0.75170733  0.50955050  1
  O  O202  1  0.13658349  0.26013584  0.50012907  1
  O  O203  1  0.12480500  0.24864306  1.00296162  1
  O  O204  1  0.11372260  0.74083431  0.47944916  1
  O  O205  1  0.12944196  0.74214711  0.99206261  1
  O  O206  1  0.63864958  0.25673881  0.49245583  1
  O  O207  1  0.63425099  0.24981034  1.01163772  1
  O  O208  1  0.63396493  0.73021263  0.50691155  1
  O  O209  1  0.63236063  0.74844364  0.99163488  1
  O  O210  1  0.47861652  0.25253565  0.13372056  1
  O  O211  1  0.50377203  0.25180535  0.64202949  1
  O  O212  1  0.48181959  0.74841202  0.12283326  1
  O  O213  1  0.49514105  0.73285448  0.63786606  1
  O  O214  1  0.98920290  0.24505765  0.13254536  1
  O  O215  1  0.98245994  0.24405701  0.62478612  1
  O  O216  1  0.98862233  0.73992342  0.11376253  1
  O  O217  1  0.99638428  0.74194999  0.62988035  1
  O  O218  1  0.01599255  0.25387791  0.36576056  1
  O  O219  1  0.00261684  0.25590343  0.89032451  1
  O  O220  1  0.00695906  0.75020804  0.36331247  1
  O  O221  1  0.00863348  0.75860501  0.86855877  1
  O  O222  1  0.50977820  0.25131840  0.38968053  1
  O  O223  1  0.49416560  0.26068257  0.87025606  1
  O  O224  1  0.50093382  0.74726211  0.38613075  1
  O  O225  1  0.50447417  0.75771177  0.86510967  1
  O  O226  1  0.22746095  0.12471520  0.53306166  1
  O  O227  1  0.28185521  0.14997520  0.99128831  1
  O  O228  1  0.23157784  0.62297060  0.48090660  1
  O  O229  1  0.23720002  0.63381040  1.01050386  1
  O  O230  1  0.74582325  0.14663081  0.49189282  1
  O  O231  1  0.75441654  0.13465019  0.99350025  1
  O  O232  1  0.75412844  0.62058194  0.49278504  1
  O  O233  1  0.74303694  0.63521066  0.99564376  1
  O  O234  1  0.26324354  0.38874442  0.01483359  1
  O  O235  1  0.25087880  0.37789173  0.50532280  1
  O  O236  1  0.23623147  0.86144739  0.01575957  1
  O  O237  1  0.24169513  0.86630408  0.51081779  1
  O  O238  1  0.76114433  0.35667765  -0.00755171  1
  O  O239  1  0.76595088  0.37997714  0.49773724  1
  O  O240  1  0.75629565  0.86722745  0.00594487  1
  O  O241  1  0.70433508  0.90657006  0.62525520  1
  O  O242  1  0.14475242  0.49718297  0.25690127  1
  O  O243  1  0.14290289  0.50202018  0.74115632  1
  O  O244  1  0.12706390  0.99288500  0.23657470  1
  O  O245  1  0.12078577  0.98070976  0.73951523  1
  O  O246  1  0.64723997  0.54727459  0.23690353  1
  O  O247  1  0.63305903  0.50191411  0.74479026  1
  O  O248  1  0.63135285  0.98061908  0.24564501  1
  O  O249  1  0.62621074  1.00957478  0.72792139  1
  O  O250  1  0.35552403  0.01011877  0.24375386  1
  O  O251  1  0.38883571  0.01218084  0.73179358  1
  O  O252  1  0.36471144  0.49610749  0.26622523  1
  O  O253  1  0.37103972  0.48728205  0.76453682  1
  O  O254  1  0.87204280  0.01665171  0.25425884  1
  O  O255  1  0.87915496  -0.00472511  0.75563112  1
  O  O256  1  0.87228983  0.50487339  0.24209077  1
  O  O257  1  0.89242053  0.49569975  0.76296354  1
  O  O258  1  0.14355762  0.35251412  0.36538514  1
  O  O259  1  0.10619143  0.37524656  0.87798329  1
  O  O260  1  0.12801890  0.86435291  0.35883691  1
  O  O261  1  0.12106297  0.86901248  0.86274763  1
  O  O262  1  0.61909164  0.37161220  0.38363796  1
  O  O263  1  0.60865226  0.37823811  0.89577440  1
  O  O264  1  0.63757686  0.86887477  0.36403689  1
  O  O265  1  0.61038265  0.86370301  0.88049264  1
  O  O266  1  0.36730715  0.13708671  0.12512967  1
  O  O267  1  0.40194881  0.13855490  0.62832655  1
  O  O268  1  0.37949309  0.64477572  0.12579050  1
  O  O269  1  0.39397464  0.61613499  0.62849813  1
  O  O270  1  0.88141237  0.13278398  0.13244921  1
  O  O271  1  0.83676558  0.11616019  0.65699841  1
  O  O272  1  0.88132357  0.63070447  0.13043263  1
  O  O273  1  0.88364725  0.63537347  0.62527087  1
  O  O274  1  0.26742624  0.27315401  0.12768070  1
  O  O275  1  0.26352945  0.25737689  0.62061542  1
  O  O276  1  0.26115115  0.75498425  0.12207392  1
  O  O277  1  0.27197371  0.71921573  0.63066506  1
  O  O278  1  0.75798139  0.24194560  0.11444740  1
  O  O279  1  0.75175335  0.26986047  0.61148272  1
  O  O280  1  0.75865434  0.75684743  0.11362738  1
  O  O281  1  0.76652607  0.74402544  0.63001785  1
  O  O282  1  0.25105924  0.24952602  0.40366422  1
  O  O283  1  0.23355270  0.23703169  0.84390216  1
  O  O284  1  0.23496960  0.74418784  0.36180085  1
  O  O285  1  0.23763852  0.75509517  0.88219357  1
  O  O286  1  0.74029254  0.25257698  0.37911816  1
  O  O287  1  0.74569375  0.23838942  0.89129790  1
  O  O288  1  0.74196698  0.71699973  0.36371568  1
  O  O289  1  0.74544271  0.74762461  0.88385586  1
  O  O290  1  -0.01228368  0.11381719  0.01015599  1
  O  O291  1  -0.01118721  0.11505922  0.50407901  1
  O  O292  1  0.00583613  0.61918613  0.00399701  1
  O  O293  1  0.00293600  0.61573657  0.49612246  1
  O  O294  1  0.47594052  0.10539855  -0.00378898  1
  O  O295  1  0.52389680  0.13297078  0.51697395  1
  O  O296  1  0.50427758  0.62606221  -0.00552310  1
  O  O297  1  0.51773033  0.62161634  0.52577161  1
  O  O298  1  0.49643038  0.39025461  0.52057796  1
  O  O299  1  0.48973143  0.38845504  0.99699035  1
  O  O300  1  0.47969832  0.80910406  0.42228947  1
  O  O301  1  0.49229373  0.86940111  0.99104002  1
  O  O302  1  0.98798558  0.38877840  0.48898464  1
  O  O303  1  0.99093077  0.38262905  0.99450694  1
  O  O304  1  0.99956582  0.88974532  0.49361186  1
  O  O305  1  0.99341469  0.87920997  0.99268591  1
  O  O306  1  0.47379837  0.52219014  0.37762401  1
  O  O307  1  0.49108337  0.48945542  0.88023855  1
  O  O308  1  0.50769626  0.98818847  0.39597165  1
  O  O309  1  0.49713773  0.98103463  0.86907591  1
  O  O310  1  0.99703302  0.50495429  0.37554399  1
  O  O311  1  0.99422189  0.49084440  0.88236068  1
  O  O312  1  0.99764627  1.00904755  0.38392540  1
  O  O313  1  1.00630507  0.98529618  0.88356736  1
  O  O314  1  0.00469402  0.00965901  0.11919090  1
  O  O315  1  -0.00388803  0.00308682  0.60518339  1
  O  O316  1  -0.00566683  0.51072828  0.10924200  1
  O  O317  1  -0.00719034  0.51771650  0.61085764  1
  O  O318  1  0.50889463  -0.00511656  0.13795440  1
  O  O319  1  0.52098054  0.02797722  0.64229975  1
  O  O320  1  0.48395375  0.52680567  0.10959035  1
  O  O321  1  0.51779892  0.50359803  0.63906371  1
  O  O322  1  0.25574874  0.38533695  0.23865688  1
  O  O323  1  0.23235975  0.35420087  0.76174622  1
  O  O324  1  0.23792568  0.88507111  0.23541310  1
  O  O325  1  0.23828308  0.86900132  0.74772241  1
  O  O326  1  0.72377265  0.39289764  0.24159785  1
  O  O327  1  0.76665292  0.36447668  0.74291099  1
  O  O328  1  0.75218663  0.87171204  0.23748642  1
  O  O329  1  0.72712806  0.86682320  0.75061094  1
  O  O330  1  0.23791111  0.11410027  0.23996302  1
  O  O331  1  0.27137919  0.12274308  0.72275552  1
  O  O332  1  0.24589905  0.61722704  0.25548099  1
  O  O333  1  0.20073876  0.54375557  0.70553979  1
  O  O334  1  0.75839186  0.13486542  0.25532567  1
  O  O335  1  0.75466647  0.12261511  0.77562562  1
  O  O336  1  0.77510449  0.62817662  0.24287197  1
  O  O337  1  0.75532597  0.63314057  0.76717895  1
  O  O338  1  0.38314629  0.09594093  0.39143908  1
  O  O339  1  0.37226437  0.12234805  0.84898660  1
  O  O340  1  0.35670264  0.64687955  0.36924124  1
  O  O341  1  0.37458776  0.60940038  0.87008945  1
  O  O342  1  0.86694014  0.14186618  0.36255781  1
  O  O343  1  0.86578379  0.11281837  0.86901185  1
  O  O344  1  0.87335678  0.62328648  0.36109805  1
  O  O345  1  0.87164717  0.61681595  0.87449462  1
  O  O346  1  0.14098550  0.37739066  0.11878380  1
  O  O347  1  0.07029302  0.38772851  0.64541776  1
  O  O348  1  0.12714807  0.87995588  0.13318577  1
  O  O349  1  0.14327489  0.84546360  0.63610096  1
  O  O350  1  0.62321815  0.38941419  0.10635265  1
  O  O351  1  0.64622243  0.38868192  0.62692889  1
  O  O352  1  0.63110086  0.87328167  0.13908447  1
  O  O353  1  0.51682126  0.89252329  0.56587866  1
  O  O354  1  0.11268310  0.25357324  0.24199636  1
  O  O355  1  0.09112262  0.21374668  0.74477979  1
  O  O356  1  0.12133823  0.76364928  0.25034568  1
  O  O357  1  0.11568945  0.75084335  0.75899604  1
  O  O358  1  0.62271787  0.25371624  0.27052647  1
  O  O359  1  0.62072788  0.24919915  0.75513071  1
  O  O360  1  0.62519154  0.75858589  0.25350068  1
  O  O361  1  0.61325826  0.74352001  0.76111798  1
  O  O362  1  0.36449188  0.23593757  0.24972056  1
  O  O363  1  0.38006991  0.24301455  0.73762859  1
  O  O364  1  0.37064994  0.75976389  0.24730609  1
  O  O365  1  0.38989175  0.73987362  0.74605019  1
  O  O366  1  0.87173248  0.24987997  0.23962543  1
  O  O367  1  0.88619997  0.23127199  0.76086713  1
  O  O368  1  0.87536380  0.75419603  0.23887960  1
  O  O369  1  0.88795568  0.74923282  0.74358548  1
  O  O370  1  0.36130778  0.52237085  0.47904422  1
  O  O371  1  0.38126140  0.49994870  0.99104090  1
  O  O372  1  0.39356432  0.99481383  0.52004913  1
  O  O373  1  0.43770358  1.04131041  1.00715563  1
  O  O374  1  0.88549894  0.49425389  0.49122217  1
  O  O375  1  0.88116954  0.49266441  0.99320944  1
  O  O376  1  0.87900614  0.99775083  0.49514522  1
  O  O377  1  0.88566456  0.98651413  1.00975218  1
  O  O378  1  0.11061830  -0.01193491  0.01110349  1
  O  O379  1  0.11739267  -0.00129942  0.49236342  1
  O  O380  1  0.11456304  0.51023852  -0.00863397  1
  O  O381  1  0.11092775  0.51448208  0.48335400  1
  O  O382  1  0.61850333  -0.01247539  0.02447414  1
  O  O383  1  0.65053661  0.01678474  0.49820723  1
  O  O384  1  0.60797629  0.51947831  -0.01035298  1
  O  O385  1  0.63869009  0.51310211  0.52272208  1
  O  O386  1  0.37822888  0.38431241  0.11624859  1
  O  O387  1  0.38784508  0.36319954  0.62731374  1
  O  O388  1  0.36526614  0.86508687  0.13015101  1
  O  O389  1  0.35779338  0.84896518  0.62880813  1
  O  O390  1  0.87780040  0.36691023  0.11323865  1
  O  O391  1  0.86887608  0.38526158  0.61959674  1
  O  O392  1  0.86997753  0.86887271  0.11664668  1
  O  O393  1  0.87948552  0.85729125  0.62340988  1
  O  O394  1  0.13258899  0.15208973  0.36675308  1
  O  O395  1  0.13627109  0.10557201  0.87345357  1
  O  O396  1  0.12535763  0.63917836  0.37243320  1
  O  O397  1  0.11825484  0.63424994  0.88439918  1
  O  O398  1  0.63214675  0.13644921  0.39029203  1
  O  O399  1  0.63220072  0.11557482  0.88130761  1
  O  O400  1  0.62083786  0.61636957  0.39845495  1
  O  O401  1  0.63300515  0.63571947  0.88387335  1
