# generated using pymatgen
data_V73Zn73O256
_symmetry_space_group_name_H-M   'P 1'
_cell_length_a   16.89214326
_cell_length_b   16.94532981
_cell_length_c   16.88024894
_cell_angle_alpha   90.02561470
_cell_angle_beta   90.01958231
_cell_angle_gamma   89.88025798
_symmetry_Int_Tables_number   1
_chemical_formula_structural   V73Zn73O256
_chemical_formula_sum   'V73 Zn73 O256'
_cell_volume   4831.84074880
_cell_formula_units_Z   1
loop_
 _symmetry_equiv_pos_site_id
 _symmetry_equiv_pos_as_xyz
  1  'x, y, z'
loop_
 _atom_site_type_symbol
 _atom_site_label
 _atom_site_symmetry_multiplicity
 _atom_site_fract_x
 _atom_site_fract_y
 _atom_site_fract_z
 _atom_site_occupancy
  V  V0  1  0.25108751  0.75118317  0.00691835  1
  V  V1  1  0.50508277  0.62580553  0.62880899  1
  V  V2  1  0.50087350  0.75050710  0.75330140  1
  V  V3  1  0.50581711  0.50053995  0.48128108  1
  V  V4  1  0.92783046  0.07925605  0.19349254  1
  V  V5  1  0.87177268  0.62829060  0.73735288  1
  V  V6  1  -0.00062426  0.47403481  0.50045727  1
  V  V7  1  0.11777420  0.25262213  0.38086438  1
  V  V8  1  0.35880282  0.00044655  0.87184445  1
  V  V9  1  0.87372930  0.61856272  0.24723640  1
  V  V10  1  0.25046293  -0.02490137  0.23475657  1
  V  V11  1  0.37848056  0.38081350  0.48611882  1
  V  V12  1  0.13171347  0.37688433  0.25094884  1
  V  V13  1  -0.00367853  0.75600085  0.74700442  1
  V  V14  1  0.25292629  0.25507229  0.49671101  1
  V  V15  1  0.13648692  0.49956534  0.12844440  1
  V  V16  1  0.01855422  0.13317156  0.63564987  1
  V  V17  1  0.62664990  0.00499186  0.62332351  1
  V  V18  1  0.41241317  0.64683194  0.20260823  1
  V  V19  1  0.75039162  0.00492125  0.25851817  1
  V  V20  1  0.75892790  0.87031775  0.62063835  1
  V  V21  1  0.24531916  0.88635676  0.63064114  1
  V  V22  1  0.37838253  0.25525704  0.62294336  1
  V  V23  1  0.87176936  0.48815903  0.37906883  1
  V  V24  1  0.74526098  0.00739528  0.76894989  1
  V  V25  1  0.25296686  0.34996580  0.12488396  1
  V  V26  1  0.75229578  0.87362707  0.11871273  1
  V  V27  1  0.74136989  0.64114136  0.87705606  1
  V  V28  1  0.63162061  0.24625038  0.88488105  1
  V  V29  1  0.37753750  0.88013055  0.50287084  1
  V  V30  1  0.36867661  0.13381440  0.25066802  1
  V  V31  1  0.86390080  0.36961136  0.00778405  1
  V  V32  1  0.13282669  0.73843569  0.86797032  1
  V  V33  1  0.50462965  0.24449379  0.75490329  1
  V  V34  1  0.00507736  0.62213593  0.61736636  1
  V  V35  1  -0.00165048  0.50108163  0.00036359  1
  V  V36  1  0.00933567  0.36590155  0.86494596  1
  V  V37  1  0.49831656  0.37482212  0.87716743  1
  V  V38  1  0.89336175  0.87119374  -0.00597687  1
  V  V39  1  0.11657706  0.74579265  0.35267378  1
  V  V40  1  0.87142339  0.50462880  0.87290541  1
  V  V41  1  0.50000971  0.12119618  0.62371036  1
  V  V42  1  0.63580526  0.64095951  0.49392619  1
  V  V43  1  0.63106065  0.48485835  0.62406666  1
  V  V44  1  0.01027036  0.62823409  0.13081325  1
  V  V45  1  0.23843247  0.74992630  0.50034269  1
  V  V46  1  0.37763934  0.37573990  0.00050185  1
  V  V47  1  0.62906102  0.12635895  0.00241328  1
  V  V48  1  0.75316464  0.64479836  0.37317369  1
  V  V49  1  0.62181863  0.86291486  0.25682428  1
  V  V50  1  0.24657492  0.11775435  0.38354128  1
  V  V51  1  0.61868965  -0.00400491  0.12817371  1
  V  V52  1  0.74786883  0.14516171  0.36726479  1
  V  V53  1  0.74894722  0.25924285  0.51489520  1
  V  V54  1  0.47969961  0.12939947  0.12552612  1
  V  V55  1  0.50773856  0.86687786  0.38546250  1
  V  V56  1  0.10974748  0.12091438  -0.00946557  1
  V  V57  1  0.87272929  0.13638049  0.75039681  1
  V  V58  1  0.24659236  0.23949699  -0.02945825  1
  V  V59  1  0.49700598  0.87515544  0.87515598  1
  V  V60  1  0.36219082  0.12138204  0.75350372  1
  V  V61  1  -0.00108777  0.25505342  0.23264860  1
  V  V62  1  0.61816754  0.13009702  0.48976745  1
  V  V63  1  0.89210596  0.00309860  0.88306409  1
  V  V64  1  0.62717105  0.50338403  0.12246550  1
  V  V65  1  0.74261579  0.49131186  0.74825007  1
  V  V66  1  0.48831075  -0.00881065  0.00134859  1
  V  V67  1  0.37599697  0.74703142  0.62936578  1
  V  V68  1  0.87395515  0.74312062  0.11717891  1
  V  V69  1  0.62841929  0.65569745  0.00974363  1
  V  V70  1  0.12895033  0.88557131  0.75395754  1
  V  V71  1  0.62569173  0.87143339  0.75430985  1
  V  V72  1  0.25815784  0.60798706  0.37148500  1
  Zn  Zn73  1  0.13206278  0.61872665  -0.00992514  1
  Zn  Zn74  1  0.12852065  0.60727523  0.50248947  1
  Zn  Zn75  1  0.10700642  -0.00742222  0.11922763  1
  Zn  Zn76  1  0.32461733  0.89735072  0.04808834  1
  Zn  Zn77  1  0.00432771  0.88838118  0.36541835  1
  Zn  Zn78  1  0.48294144  0.54763683  0.00394163  1
  Zn  Zn79  1  0.55098039  0.32654209  0.28368966  1
  Zn  Zn80  1  0.37865095  -0.00270120  0.38024412  1
  Zn  Zn81  1  -0.00323817  -0.00127033  0.50488825  1
  Zn  Zn82  1  0.17665076  0.17874177  0.19070056  1
  Zn  Zn83  1  0.19042355  0.19330975  0.68262583  1
  Zn  Zn84  1  0.23314251  0.69880568  0.20370517  1
  Zn  Zn85  1  0.18081706  0.69050092  0.67911940  1
  Zn  Zn86  1  0.65625683  0.18509285  0.20344708  1
  Zn  Zn87  1  0.68841278  0.18953103  0.69158842  1
  Zn  Zn88  1  0.69589533  0.68583698  0.18943212  1
  Zn  Zn89  1  0.68975919  0.68687850  0.68368353  1
  Zn  Zn90  1  0.35748944  0.34793636  0.27539327  1
  Zn  Zn91  1  0.32106923  0.31282517  0.81068624  1
  Zn  Zn92  1  0.32335524  0.79996340  0.31970578  1
  Zn  Zn93  1  0.31287071  0.81390339  0.81516917  1
  Zn  Zn94  1  0.86141283  0.27587646  0.36579810  1
  Zn  Zn95  1  0.81180550  0.31779087  0.82743074  1
  Zn  Zn96  1  0.83117406  0.81626923  0.29834587  1
  Zn  Zn97  1  0.81627042  0.81954578  0.80873404  1
  Zn  Zn98  1  0.18647372  0.42868352  0.44538055  1
  Zn  Zn99  1  0.18367180  0.42978960  0.94493129  1
  Zn  Zn100  1  0.15221240  0.94540757  0.43151857  1
  Zn  Zn101  1  0.16847577  0.93635266  0.93543689  1
  Zn  Zn102  1  0.69098868  0.43931121  0.41398085  1
  Zn  Zn103  1  0.66425930  0.43575354  0.96938835  1
  Zn  Zn104  1  0.68899943  0.94149186  0.44099256  1
  Zn  Zn105  1  0.67914255  0.93262034  0.94254501  1
  Zn  Zn106  1  0.27050245  0.07956489  0.07969358  1
  Zn  Zn107  1  0.31073874  0.06408146  0.56574246  1
  Zn  Zn108  1  0.31235195  0.56855914  0.05282862  1
  Zn  Zn109  1  0.32437765  0.56923419  0.54950253  1
  Zn  Zn110  1  0.81126563  0.05585392  0.05902906  1
  Zn  Zn111  1  0.83785172  0.02613928  0.58784829  1
  Zn  Zn112  1  0.80774106  0.55948417  0.05857575  1
  Zn  Zn113  1  0.81416197  0.42831483  0.56268981  1
  Zn  Zn114  1  0.46141322  0.47544052  0.19406136  1
  Zn  Zn115  1  0.45895999  0.42719356  0.68112202  1
  Zn  Zn116  1  0.43958203  0.94105268  0.20582303  1
  Zn  Zn117  1  0.43490202  0.93933442  0.68966202  1
  Zn  Zn118  1  0.94075788  0.43664392  0.18983553  1
  Zn  Zn119  1  0.93939500  0.43312061  0.68767420  1
  Zn  Zn120  1  0.97556490  0.88976451  0.18820960  1
  Zn  Zn121  1  0.94376333  0.94681620  0.69468031  1
  Zn  Zn122  1  0.07201630  0.06406697  0.30859050  1
  Zn  Zn123  1  0.06227643  0.06962011  0.81072838  1
  Zn  Zn124  1  0.06605160  0.56116303  0.31915601  1
  Zn  Zn125  1  0.05736797  0.55964336  0.80755338  1
  Zn  Zn126  1  0.55343613  0.05447028  0.31385932  1
  Zn  Zn127  1  0.55662336  0.06240062  0.81659771  1
  Zn  Zn128  1  0.56613050  0.58406883  0.29888220  1
  Zn  Zn129  1  0.53779780  0.58435978  0.84163489  1
  Zn  Zn130  1  0.43657054  0.19316764  0.42614026  1
  Zn  Zn131  1  0.43094607  0.18540785  0.94181734  1
  Zn  Zn132  1  0.43940598  0.68953955  0.43977513  1
  Zn  Zn133  1  0.42860724  0.69759605  0.94844350  1
  Zn  Zn134  1  0.89699596  0.13839470  0.47563433  1
  Zn  Zn135  1  0.93417312  0.19201332  0.93692674  1
  Zn  Zn136  1  0.94056888  0.68075623  0.43154353  1
  Zn  Zn137  1  0.94136023  0.68722904  0.93223311  1
  Zn  Zn138  1  0.06433550  0.31072805  0.05027065  1
  Zn  Zn139  1  0.01946445  0.27024838  0.54289335  1
  Zn  Zn140  1  0.07866463  0.80994195  0.06119613  1
  Zn  Zn141  1  0.05505841  0.82470098  0.56157373  1
  Zn  Zn142  1  0.56552948  0.30951193  0.09012897  1
  Zn  Zn143  1  0.56861463  0.31247943  0.44409945  1
  Zn  Zn144  1  0.55589080  0.80204830  0.06197679  1
  Zn  Zn145  1  0.56765991  0.81657036  0.56748990  1
  O  O146  1  0.15505284  0.10632708  0.10637773  1
  O  O147  1  0.11864458  0.11675559  0.64607810  1
  O  O148  1  0.11394343  0.61757543  0.12500512  1
  O  O149  1  0.10983343  0.61730373  0.62571855  1
  O  O150  1  0.60345871  0.11411632  0.11959371  1
  O  O151  1  0.61852629  0.12153551  0.62230234  1
  O  O152  1  0.63867878  0.62807912  0.11230325  1
  O  O153  1  0.62158428  0.62451748  0.61030414  1
  O  O154  1  0.37054305  0.37709071  0.38837349  1
  O  O155  1  0.38820614  0.37180289  0.88465282  1
  O  O156  1  0.38471460  0.87053614  0.38723279  1
  O  O157  1  0.38562783  0.88955183  0.86399935  1
  O  O158  1  0.86684173  0.39073693  0.36404335  1
  O  O159  1  0.88510522  0.39166702  0.88037386  1
  O  O160  1  0.88446162  0.82774440  0.47334375  1
  O  O161  1  0.86894770  0.88442197  0.88819815  1
  O  O162  1  0.23818746  0.01255247  0.38251568  1
  O  O163  1  0.26139917  -0.00800107  0.87946046  1
  O  O164  1  0.24948492  0.51190896  0.40032958  1
  O  O165  1  0.21414716  0.50013832  0.84770016  1
  O  O166  1  0.74348887  0.00496186  0.36083441  1
  O  O167  1  0.74400832  -0.00300917  0.87028206  1
  O  O168  1  0.76804332  0.51521954  0.38345298  1
  O  O169  1  0.75669996  0.51673353  0.86106940  1
  O  O170  1  0.23693435  0.50327792  0.11711218  1
  O  O171  1  0.25428583  0.53767897  0.64912684  1
  O  O172  1  0.26921167  0.97235464  0.13004460  1
  O  O173  1  0.24854112  0.98475072  0.62172649  1
  O  O174  1  0.73143339  0.51045200  0.12292521  1
  O  O175  1  0.74168094  0.49411877  0.63209240  1
  O  O176  1  0.73715699  0.99521339  0.13387277  1
  O  O177  1  0.73913962  0.99605359  0.64363958  1
  O  O178  1  0.01911080  0.36494735  0.24323378  1
  O  O179  1  0.00975740  0.40180415  0.76845723  1
  O  O180  1  -0.07500818  0.87738841  0.28785736  1
  O  O181  1  0.01268093  0.86235199  0.73740189  1
  O  O182  1  0.45930728  0.37743222  0.24047405  1
  O  O183  1  0.49690571  0.35571831  0.76444902  1
  O  O184  1  0.51686000  0.87064142  0.25972331  1
  O  O185  1  0.50716897  0.87147968  0.75387324  1
  O  O186  1  0.48268884  0.11352202  0.23742206  1
  O  O187  1  0.49118206  0.12873230  0.74567994  1
  O  O188  1  0.50964295  0.66009064  0.23342921  1
  O  O189  1  0.51274105  0.63891155  0.74008564  1
  O  O190  1  1.00079893  0.13695425  0.24851680  1
  O  O191  1  0.98118537  0.12124197  0.74797651  1
  O  O192  1  0.99579009  0.61666875  0.23450393  1
  O  O193  1  0.99364606  0.62832032  0.73843889  1
  O  O194  1  0.35530207  0.25914208  -0.00994287  1
  O  O195  1  0.37567736  0.26097690  0.50219398  1
  O  O196  1  0.35170089  0.76743949  -0.01160295  1
  O  O197  1  0.37001531  0.76007674  0.51275086  1
  O  O198  1  0.87314434  0.27004877  -0.00669590  1
  O  O199  1  0.85110343  0.24735074  0.48159084  1
  O  O200  1  0.87958475  0.76013030  0.00255761  1
  O  O201  1  0.87672069  0.75518623  0.50149875  1
  O  O202  1  0.13438243  0.26209957  0.48721831  1
  O  O203  1  0.14050754  0.23555745  1.00426192  1
  O  O204  1  0.13716818  0.75136395  0.50885258  1
  O  O205  1  0.12563683  0.74662258  0.97965822  1
  O  O206  1  0.63364628  0.23735425  0.50371489  1
  O  O207  1  0.61352969  0.23173686  1.00137079  1
  O  O208  1  0.61871659  0.73866791  0.49980946  1
  O  O209  1  0.65260215  0.75513653  1.01385942  1
  O  O210  1  0.48153557  0.22623563  0.11333666  1
  O  O211  1  0.49373939  0.23346318  0.63823633  1
  O  O212  1  0.45389341  0.79359303  0.12269399  1
  O  O213  1  0.49593829  0.74736302  0.63202989  1
  O  O214  1  1.00654975  0.25239392  0.13302589  1
  O  O215  1  1.01389196  0.23618474  0.65230576  1
  O  O216  1  0.99329508  0.73169348  0.11538678  1
  O  O217  1  1.00833917  0.73892128  0.63673275  1
  O  O218  1  0.01880333  0.24923551  0.37349467  1
  O  O219  1  -0.01125683  0.26793264  0.86663694  1
  O  O220  1  0.01544930  0.73256423  0.36392523  1
  O  O221  1  0.01091855  0.74446275  0.85547293  1
  O  O222  1  0.50995847  0.25025538  0.36722934  1
  O  O223  1  0.50147013  0.24951386  0.87101128  1
  O  O224  1  0.49765691  0.76617926  0.37729117  1
  O  O225  1  0.48831813  0.76345076  0.86181969  1
  O  O226  1  0.25628051  0.13135223  0.48934820  1
  O  O227  1  0.25759354  0.13779382  0.98187475  1
  O  O228  1  0.24589085  0.63902441  0.50497139  1
  O  O229  1  0.24603160  0.64231654  0.99408576  1
  O  O230  1  0.73608402  0.14060592  0.48079123  1
  O  O231  1  0.72741662  0.11802742  1.01082578  1
  O  O232  1  0.73903245  0.63494410  0.48739680  1
  O  O233  1  0.75168168  0.62969574  0.98135768  1
  O  O234  1  0.24990755  0.35909569  0.00608692  1
  O  O235  1  0.26758898  0.36876296  0.50467580  1
  O  O236  1  0.23076059  0.86044907  -0.00567395  1
  O  O237  1  0.25673082  0.86133045  0.51528130  1
  O  O238  1  0.76642240  0.38912438  -0.01303937  1
  O  O239  1  0.73957672  0.36298226  0.49587929  1
  O  O240  1  0.75348306  0.88583483  0.01637856  1
  O  O241  1  0.74072853  0.88275845  0.52132856  1
  O  O242  1  0.11847940  0.48634225  0.24233114  1
  O  O243  1  0.16309299  0.49589169  0.79069654  1
  O  O244  1  0.14986396  1.00524712  0.23886168  1
  O  O245  1  0.11873528  0.98341854  0.75677178  1
  O  O246  1  0.60460229  0.50427586  0.22443049  1
  O  O247  1  0.63816865  0.50822884  0.73581130  1
  O  O248  1  0.62836660  0.99189693  0.24220944  1
  O  O249  1  0.63149048  0.99742438  0.74879702  1
  O  O250  1  0.35864020  0.00328050  0.25997980  1
  O  O251  1  0.37555699  0.00728882  0.76123525  1
  O  O252  1  0.39093816  0.55492640  0.23913482  1
  O  O253  1  0.35879656  0.46649870  0.74784536  1
  O  O254  1  0.85335758  0.02141691  0.24464000  1
  O  O255  1  0.86008647  0.00092091  0.76864071  1
  O  O256  1  0.88677038  0.51024263  0.26273338  1
  O  O257  1  0.86468966  0.51045974  0.75301030  1
  O  O258  1  0.14138810  0.36089109  0.36161574  1
  O  O259  1  0.10808629  0.37002728  0.88745391  1
  O  O260  1  0.11918882  0.84858507  0.37134151  1
  O  O261  1  0.12580182  0.86071733  0.85723158  1
  O  O262  1  0.61351677  0.38102931  0.36516645  1
  O  O263  1  0.60893419  0.35152246  0.89962451  1
  O  O264  1  0.61937704  0.87876647  0.36921208  1
  O  O265  1  0.61240643  0.88116657  0.86384500  1
  O  O266  1  0.37190456  0.11320751  0.13726759  1
  O  O267  1  0.38307591  0.12698677  0.63123715  1
  O  O268  1  0.39196430  0.63457669  0.10046654  1
  O  O269  1  0.39443758  0.63586720  0.61641425  1
  O  O270  1  0.87561813  0.12707749  0.12285642  1
  O  O271  1  0.86232317  0.12570792  0.64947555  1
  O  O272  1  0.88183440  0.62464789  0.12571462  1
  O  O273  1  0.88565873  0.62865129  0.63705996  1
  O  O274  1  0.24875083  0.25082954  0.12388349  1
  O  O275  1  0.26657272  0.23983026  0.60869303  1
  O  O276  1  0.23590497  0.75390893  0.10662298  1
  O  O277  1  0.26004648  0.75123060  0.62037788  1
  O  O278  1  0.76158470  0.31163904  0.18364029  1
  O  O279  1  0.74874533  0.24702279  0.61368632  1
  O  O280  1  0.76562118  0.76189846  0.13212207  1
  O  O281  1  0.75112041  0.77139789  0.63771174  1
  O  O282  1  0.24982687  0.23806691  0.38853991  1
  O  O283  1  0.24220779  0.25830327  0.87162853  1
  O  O284  1  0.24104885  0.74451585  0.39123589  1
  O  O285  1  0.23679099  0.74661939  0.86839689  1
  O  O286  1  0.73563209  0.24426619  0.36094328  1
  O  O287  1  0.72966563  0.25177364  0.88000611  1
  O  O288  1  0.76627047  0.74402378  0.36659220  1
  O  O289  1  0.75766399  0.73855917  0.86291081  1
  O  O290  1  0.01188776  0.13773887  0.00468671  1
  O  O291  1  0.00032447  0.15146569  0.52757224  1
  O  O292  1  0.00155414  0.61546864  0.00769370  1
  O  O293  1  0.00186608  0.63035867  0.51356184  1
  O  O294  1  0.49223860  0.10847470  0.01226190  1
  O  O295  1  0.51053131  0.13209543  0.50869683  1
  O  O296  1  0.52705321  0.67903721  0.01327274  1
  O  O297  1  0.50928248  0.61683240  0.50621967  1
  O  O298  1  0.49347274  0.39122702  0.49341227  1
  O  O299  1  0.48234334  0.36340903  0.99702003  1
  O  O300  1  0.49612712  0.87305120  0.49451160  1
  O  O301  1  0.50859290  0.88171134  0.98748118  1
  O  O302  1  0.99978759  0.37500247  0.50344151  1
  O  O303  1  0.99225381  0.38608516  0.99153752  1
  O  O304  1  0.96484515  0.85760636  0.47942187  1
  O  O305  1  0.99087905  0.87129186  0.99448385  1
  O  O306  1  0.50629303  0.51834881  0.38495896  1
  O  O307  1  0.51991564  0.46990709  0.86434276  1
  O  O308  1  0.49317712  0.97749451  0.37001398  1
  O  O309  1  0.49289319  0.99265131  0.88433922  1
  O  O310  1  0.98789095  0.50768327  0.39227483  1
  O  O311  1  0.99096143  0.50475809  0.88536925  1
  O  O312  1  1.04377590  0.99531560  0.39153922  1
  O  O313  1  0.98888622  0.99313836  0.86932756  1
  O  O314  1  -0.01631420  0.00873066  0.14900118  1
  O  O315  1  -0.01479304  0.02529774  0.62415405  1
  O  O316  1  0.00795719  0.50764408  0.11684941  1
  O  O317  1  -0.00938589  0.51060312  0.60850625  1
  O  O318  1  0.50246790  -0.00224573  0.12037376  1
  O  O319  1  0.51149647  0.01100928  0.63465078  1
  O  O320  1  0.51249710  0.51609930  0.10478311  1
  O  O321  1  0.51390093  0.51106764  0.62695968  1
  O  O322  1  0.24795681  0.36939097  0.23216877  1
  O  O323  1  0.30199075  0.41580956  0.74541757  1
  O  O324  1  0.25682611  0.88102124  0.26425245  1
  O  O325  1  0.24364101  0.87431732  0.74105680  1
  O  O326  1  0.74645270  0.37325327  0.21803444  1
  O  O327  1  0.75050291  0.39373469  0.76319643  1
  O  O328  1  0.74478333  0.88994645  0.24483683  1
  O  O329  1  0.74087340  0.88707133  0.74902887  1
  O  O330  1  0.25891601  0.11652068  0.25962634  1
  O  O331  1  0.26323695  0.13309030  0.74819216  1
  O  O332  1  0.24148708  0.60678284  0.27180427  1
  O  O333  1  0.25546948  0.58977654  0.70448164  1
  O  O334  1  0.72429049  0.11577168  0.25814145  1
  O  O335  1  0.75136430  0.11124688  0.75704094  1
  O  O336  1  0.75866082  0.62350957  0.26356941  1
  O  O337  1  0.75525587  0.62233580  0.75444070  1
  O  O338  1  0.36507432  0.11921395  0.36800404  1
  O  O339  1  0.37970163  0.10850263  0.86843923  1
  O  O340  1  0.35669209  0.63157824  0.38924999  1
  O  O341  1  0.44430211  0.59479471  0.90927908  1
  O  O342  1  0.84895369  0.13872320  0.36352214  1
  O  O343  1  0.87862586  0.10856018  0.87454419  1
  O  O344  1  0.86684109  0.62163253  0.36744284  1
  O  O345  1  0.87051918  0.62032761  0.86405604  1
  O  O346  1  0.13857800  0.37882568  0.12742096  1
  O  O347  1  0.15478201  0.36448001  0.68697614  1
  O  O348  1  0.07918567  0.88290771  0.14280434  1
  O  O349  1  0.14119771  0.86223802  0.64184410  1
  O  O350  1  0.62489856  0.40497717  0.08201562  1
  O  O351  1  0.61629547  0.39051793  0.62388611  1
  O  O352  1  0.62988021  0.87943334  0.13633847  1
  O  O353  1  0.62929504  0.88737068  0.63624280  1
  O  O354  1  0.11996749  0.25504468  0.25677962  1
  O  O355  1  0.16793559  0.30803061  0.73346677  1
  O  O356  1  0.13519109  0.73783723  0.25509161  1
  O  O357  1  0.11952305  0.75118952  0.75532034  1
  O  O358  1  0.60675022  0.27969219  0.19547867  1
  O  O359  1  0.61618554  0.23485695  0.77134291  1
  O  O360  1  0.63910334  0.76635606  0.25019059  1
  O  O361  1  0.61451980  0.76335359  0.74210874  1
  O  O362  1  0.36647132  0.23112415  0.25356214  1
  O  O363  1  0.38257662  0.24108063  0.74273384  1
  O  O364  1  0.34752095  0.72412207  0.23952407  1
  O  O365  1  0.38511519  0.75610624  0.73872927  1
  O  O366  1  0.90139050  0.26169370  0.25736697  1
  O  O367  1  0.85767669  0.23287158  0.76728615  1
  O  O368  1  0.87843021  0.72850403  0.23165085  1
  O  O369  1  0.89087268  0.74729269  0.75286360  1
  O  O370  1  0.39229002  0.48941223  0.50797569  1
  O  O371  1  0.36201893  0.47693244  0.99829773  1
  O  O372  1  0.36841093  0.98420609  0.50161997  1
  O  O373  1  0.37859451  0.98938307  0.98918378  1
  O  O374  1  0.88450833  0.49015399  0.48937600  1
  O  O375  1  0.88198244  0.50121621  0.98957777  1
  O  O376  1  0.88553294  1.02652443  0.48807409  1
  O  O377  1  0.87573487  0.98830847  0.99126277  1
  O  O378  1  0.11749393  0.01155587  0.00086936  1
  O  O379  1  0.08772414  -0.06958221  0.52435834  1
  O  O380  1  0.11694524  0.50122832  0.00919278  1
  O  O381  1  0.10534153  0.49212127  0.49719635  1
  O  O382  1  0.61172676  0.00555411  0.01018653  1
  O  O383  1  0.63410578  0.01861605  0.51381267  1
  O  O384  1  0.61498684  0.53681670  -0.00149685  1
  O  O385  1  0.61668156  0.50701010  0.50752903  1
  O  O386  1  0.35542611  0.37027996  0.11102367  1
  O  O387  1  0.39149625  0.35851479  0.61551566  1
  O  O388  1  0.40392691  0.85837400  0.12841963  1
  O  O389  1  0.36665186  0.86944322  0.62396015  1
  O  O390  1  0.87948598  0.38838156  0.10704383  1
  O  O391  1  0.87930949  0.36592033  0.62652858  1
  O  O392  1  0.87474310  0.86475023  0.11142802  1
  O  O393  1  0.85821042  0.89626920  0.63207759  1
  O  O394  1  0.14151904  0.14240573  0.36669593  1
  O  O395  1  0.12190926  0.12182082  0.88904494  1
  O  O396  1  0.13582927  0.63221398  0.38484524  1
  O  O397  1  0.12221497  0.63493958  0.86849621  1
  O  O398  1  0.62095485  0.11641631  0.38657923  1
  O  O399  1  0.61357332  0.12934629  0.89482590  1
  O  O400  1  0.64066119  0.62589155  0.38053006  1
  O  O401  1  0.63561489  0.63722211  0.88305540  1
