# generated using pymatgen
data_V73Zn73O256
_symmetry_space_group_name_H-M   'P 1'
_cell_length_a   16.84248745
_cell_length_b   16.82422649
_cell_length_c   16.86040194
_cell_angle_alpha   89.88957951
_cell_angle_beta   90.18460893
_cell_angle_gamma   89.89065903
_symmetry_Int_Tables_number   1
_chemical_formula_structural   V73Zn73O256
_chemical_formula_sum   'V73 Zn73 O256'
_cell_volume   4777.55181198
_cell_formula_units_Z   1
loop_
 _symmetry_equiv_pos_site_id
 _symmetry_equiv_pos_as_xyz
  1  'x, y, z'
loop_
 _atom_site_type_symbol
 _atom_site_label
 _atom_site_symmetry_multiplicity
 _atom_site_fract_x
 _atom_site_fract_y
 _atom_site_fract_z
 _atom_site_occupancy
  V  V0  1  0.37531645  0.25048982  0.62112666  1
  V  V1  1  0.36805879  0.62908123  0.23898774  1
  V  V2  1  0.87864463  0.23888859  0.63344059  1
  V  V3  1  0.87941736  0.37753234  0.49322073  1
  V  V4  1  0.11471752  0.13229188  -0.01026790  1
  V  V5  1  0.25980897  0.25655055  -0.01105232  1
  V  V6  1  0.87515793  0.63646959  0.74186840  1
  V  V7  1  0.25147828  0.01758459  0.24685242  1
  V  V8  1  0.01609359  0.35688005  0.36580660  1
  V  V9  1  0.37256886  0.01866130  0.37094955  1
  V  V10  1  0.46456125  0.35976154  0.37005674  1
  V  V11  1  0.50419364  0.12139189  0.62556652  1
  V  V12  1  0.50046935  0.00239788  0.49836725  1
  V  V13  1  0.00203659  0.12553254  0.14434639  1
  V  V14  1  0.88104043  0.86971238  0.00621375  1
  V  V15  1  0.01830074  0.24284531  0.74829584  1
  V  V16  1  0.01094096  0.86067999  0.87463616  1
  V  V17  1  0.36637590  0.86784420  0.50469304  1
  V  V18  1  0.62629329  0.37574215  0.74226385  1
  V  V19  1  0.48902221  -0.00065068  0.00015172  1
  V  V20  1  0.24961754  0.64978549  0.39210987  1
  V  V21  1  0.49060466  0.87915519  0.88161211  1
  V  V22  1  0.88539842  0.00052120  0.87273996  1
  V  V23  1  0.13383089  0.86199118  0.24824587  1
  V  V24  1  0.36996542  0.62175198  0.75941685  1
  V  V25  1  0.62541766  0.25625130  0.35656858  1
  V  V26  1  0.11892605  0.09965304  0.50200068  1
  V  V27  1  0.75239012  0.25421986  0.00290362  1
  V  V28  1  0.26285822  0.37975912  0.11134918  1
  V  V29  1  0.75186454  0.62921962  0.88292150  1
  V  V30  1  0.46979915  0.24441434  0.23816776  1
  V  V31  1  0.00461027  0.88887920  0.37472513  1
  V  V32  1  0.86511348  0.60701447  0.27501130  1
  V  V33  1  0.62800904  0.89006336  0.74415757  1
  V  V34  1  0.25565243  0.37309889  0.61792059  1
  V  V35  1  0.75356505  0.25100651  0.49748488  1
  V  V36  1  0.12678278  0.49068744  0.62566522  1
  V  V37  1  0.48838406  0.38231945  0.88057781  1
  V  V38  1  0.88298712  0.38108573  -0.00009179  1
  V  V39  1  0.50036417  0.24889153  0.74781747  1
  V  V40  1  0.23986482  0.23441728  0.49550524  1
  V  V41  1  0.88428692  0.25180412  0.13152147  1
  V  V42  1  0.74711773  0.88140660  0.62395373  1
  V  V43  1  -0.00898929  0.74303726  0.25674917  1
  V  V44  1  0.49944702  0.52049647  0.46611523  1
  V  V45  1  0.00936187  0.37225557  0.86260364  1
  V  V46  1  0.86908109  0.88015823  0.48760914  1
  V  V47  1  0.64158834  0.86209394  0.26496558  1
  V  V48  1  0.11749222  0.49858119  0.11255906  1
  V  V49  1  0.26622017  0.86576124  0.11483018  1
  V  V50  1  0.62506604  0.12482010  0.49981474  1
  V  V51  1  0.24970430  0.49698243  0.26142107  1
  V  V52  1  0.00479156  0.50204442  0.49068809  1
  V  V53  1  0.25295403  0.49471878  0.76206341  1
  V  V54  1  0.62979429  0.25351369  0.87401337  1
  V  V55  1  0.75160488  0.38076762  0.62159845  1
  V  V56  1  0.88199325  0.49928839  0.87152247  1
  V  V57  1  0.76271736  0.11932805  0.37024680  1
  V  V58  1  0.51527380  0.54169110  0.04402611  1
  V  V59  1  0.63461070  0.75134583  0.88169246  1
  V  V60  1  0.49250621  0.74832748  0.22724868  1
  V  V61  1  0.49166181  0.12530059  0.12771892  1
  V  V62  1  0.50044685  0.86442573  0.37629019  1
  V  V63  1  0.74744995  0.50161058  0.74716281  1
  V  V64  1  0.00813346  0.63421755  0.62248228  1
  V  V65  1  0.75503650  0.11710903  0.86166331  1
  V  V66  1  0.76551564  0.01103552  0.23829263  1
  V  V67  1  0.37321257  0.11467130  0.76058527  1
  V  V68  1  0.22440392  -0.03128392  0.75167868  1
  V  V69  1  0.51094076  0.61252639  0.63190471  1
  V  V70  1  0.49886283  0.75311454  0.74711471  1
  V  V71  1  -0.00794662  0.62442682  0.12076568  1
  V  V72  1  0.75389620  0.85190251  0.12081288  1
  Zn  Zn73  1  0.84856210  0.73842257  0.60133486  1
  Zn  Zn74  1  0.12145817  0.00003349  0.12015994  1
  Zn  Zn75  1  0.65376041  0.48241394  0.13957526  1
  Zn  Zn76  1  0.12955539  0.70291284  0.91094340  1
  Zn  Zn77  1  0.24729486  0.12011921  0.87452944  1
  Zn  Zn78  1  0.63223692  0.11643429  0.00218653  1
  Zn  Zn79  1  0.62740701  -0.00260802  0.12696344  1
  Zn  Zn80  1  0.00286278  0.09875668  0.62930097  1
  Zn  Zn81  1  0.36802805  0.74710392  0.62007790  1
  Zn  Zn82  1  0.18328878  0.20045277  0.17799422  1
  Zn  Zn83  1  0.18878801  0.17394946  0.67912085  1
  Zn  Zn84  1  0.18694401  0.68222963  0.17560624  1
  Zn  Zn85  1  0.17555623  0.68227037  0.70548105  1
  Zn  Zn86  1  0.68562208  0.18677238  0.17829140  1
  Zn  Zn87  1  0.68923066  0.18670404  0.68381147  1
  Zn  Zn88  1  0.68331516  0.67791254  0.20780664  1
  Zn  Zn89  1  0.68544126  0.69517148  0.69119845  1
  Zn  Zn90  1  0.27579754  0.29706822  0.29868786  1
  Zn  Zn91  1  0.30708228  0.30925064  0.80751478  1
  Zn  Zn92  1  0.31578148  0.81462355  0.31658230  1
  Zn  Zn93  1  0.30955122  0.80765168  0.81851701  1
  Zn  Zn94  1  0.81173008  0.32087332  0.31573169  1
  Zn  Zn95  1  0.81436458  0.31251513  0.81314519  1
  Zn  Zn96  1  0.81728573  0.81736149  0.30733883  1
  Zn  Zn97  1  0.81481317  0.82068089  0.81251580  1
  Zn  Zn98  1  0.19020740  0.43423426  0.44130683  1
  Zn  Zn99  1  0.17891555  0.44996619  0.93843067  1
  Zn  Zn100  1  0.19050451  0.93719074  0.42768282  1
  Zn  Zn101  1  0.19167107  0.94735636  0.93799449  1
  Zn  Zn102  1  0.64428438  0.65126292  0.46696799  1
  Zn  Zn103  1  0.70356651  0.46573938  0.97118405  1
  Zn  Zn104  1  0.68907149  0.93773634  0.43609854  1
  Zn  Zn105  1  0.68455811  0.93666566  0.94156800  1
  Zn  Zn106  1  0.30451796  0.06252775  0.06053230  1
  Zn  Zn107  1  0.30824967  0.05321612  0.57394418  1
  Zn  Zn108  1  0.32448698  0.55999954  0.05941867  1
  Zn  Zn109  1  0.32640414  0.56084416  0.56183387  1
  Zn  Zn110  1  0.82436673  0.06787591  0.05290210  1
  Zn  Zn111  1  0.81589703  0.05696811  0.56034938  1
  Zn  Zn112  1  0.78713473  0.59315311  0.09556341  1
  Zn  Zn113  1  0.80973200  0.56452381  0.54683193  1
  Zn  Zn114  1  0.43818225  0.43989465  0.18475414  1
  Zn  Zn115  1  0.43272538  0.43403650  0.69241926  1
  Zn  Zn116  1  0.43746487  0.93797931  0.18991009  1
  Zn  Zn117  1  0.43412141  0.93651405  0.68543466  1
  Zn  Zn118  1  0.93466454  0.44086622  0.19454987  1
  Zn  Zn119  1  0.93749106  0.43557652  0.68511337  1
  Zn  Zn120  1  0.94077709  0.93734086  0.18723994  1
  Zn  Zn121  1  0.92394536  0.91562841  0.70262858  1
  Zn  Zn122  1  0.07201108  0.06880616  0.31525431  1
  Zn  Zn123  1  0.06007696  0.06062005  0.81296124  1
  Zn  Zn124  1  0.07666317  0.56575010  0.31174872  1
  Zn  Zn125  1  0.06621517  0.57559072  0.80652630  1
  Zn  Zn126  1  0.57036495  0.05868776  0.31002473  1
  Zn  Zn127  1  0.56341370  0.06510814  0.81949415  1
  Zn  Zn128  1  0.54634447  0.55229767  0.29700304  1
  Zn  Zn129  1  0.56573494  0.56244712  0.81482442  1
  Zn  Zn130  1  0.43995580  0.20139091  0.44134412  1
  Zn  Zn131  1  0.44073420  0.19286388  0.94222646  1
  Zn  Zn132  1  0.43641521  0.67936326  0.43277462  1
  Zn  Zn133  1  0.46198816  0.67152227  0.93171211  1
  Zn  Zn134  1  0.94891634  0.17958851  0.44157696  1
  Zn  Zn135  1  0.93776445  0.19065950  0.93360444  1
  Zn  Zn136  1  0.94592496  0.69548875  0.43727484  1
  Zn  Zn137  1  0.92733777  0.68937245  0.93921750  1
  Zn  Zn138  1  0.06793953  0.31417986  0.06079292  1
  Zn  Zn139  1  0.06408889  0.31111138  0.56193115  1
  Zn  Zn140  1  0.06292465  0.80803646  0.06671333  1
  Zn  Zn141  1  0.06183450  0.82763655  0.56890921  1
  Zn  Zn142  1  0.56300502  0.32263242  0.06561108  1
  Zn  Zn143  1  0.57658874  0.34611806  0.53009769  1
  Zn  Zn144  1  0.56958421  0.81426813  0.06419748  1
  Zn  Zn145  1  0.56574609  0.80655179  0.56220367  1
  O  O146  1  0.11042504  0.13231758  0.12134959  1
  O  O147  1  0.11825060  0.11675041  0.61499222  1
  O  O148  1  0.10874996  0.61351267  0.12874699  1
  O  O149  1  0.11239857  0.61372841  0.62738758  1
  O  O150  1  0.61237357  0.12197736  0.11925650  1
  O  O151  1  0.61651586  0.13193674  0.61287099  1
  O  O152  1  0.67341138  0.59770795  0.12930301  1
  O  O153  1  0.61172169  0.62645024  0.63597828  1
  O  O154  1  0.36632571  0.35157395  0.36154677  1
  O  O155  1  0.39063195  0.36837727  0.86052372  1
  O  O156  1  0.38779780  0.88430896  0.38354537  1
  O  O157  1  0.39247758  0.86911583  0.87419754  1
  O  O158  1  0.88558444  0.37044131  0.38910399  1
  O  O159  1  0.88191426  0.38113189  0.87624370  1
  O  O160  1  0.88479645  0.87713202  0.38038800  1
  O  O161  1  0.88169730  0.88100857  0.88592081  1
  O  O162  1  0.26393285  0.00126142  0.36188459  1
  O  O163  1  0.24999229  0.00176776  0.85282696  1
  O  O164  1  0.25420196  0.48863471  0.36161490  1
  O  O165  1  0.25231156  0.48947699  0.86032803  1
  O  O166  1  0.74977631  0.01389209  0.36645172  1
  O  O167  1  0.74608806  0.01521486  0.87833816  1
  O  O168  1  0.69877707  0.45412228  0.31013253  1
  O  O169  1  0.75880890  0.50871098  0.86827814  1
  O  O170  1  0.23890613  0.49729639  0.11121185  1
  O  O171  1  0.24355479  0.49196242  0.61765612  1
  O  O172  1  0.25516905  0.98988973  0.13968844  1
  O  O173  1  0.26418120  0.99320992  0.65929432  1
  O  O174  1  0.75208758  0.48445750  0.07606182  1
  O  O175  1  0.75828274  0.48770272  0.63184009  1
  O  O176  1  0.75109993  1.02290537  0.13488274  1
  O  O177  1  0.74633511  0.98346718  0.61646265  1
  O  O178  1  -0.00414139  0.37859542  0.26877505  1
  O  O179  1  -0.00367213  0.36148496  0.75436410  1
  O  O180  1  0.00601188  0.86496833  0.25341906  1
  O  O181  1  -0.00378627  0.86257835  0.77390564  1
  O  O182  1  0.48288436  0.35194682  0.25170566  1
  O  O183  1  0.50934806  0.36395339  0.74954841  1
  O  O184  1  0.50627954  0.86610050  0.26050622  1
  O  O185  1  0.50627696  0.87269800  0.75921514  1
  O  O186  1  0.50406828  0.12886184  0.23614518  1
  O  O187  1  0.50052615  0.13171899  0.74451751  1
  O  O188  1  0.48448630  0.63878825  0.24611035  1
  O  O189  1  0.49451727  0.63485541  0.74981175  1
  O  O190  1  1.00620870  0.13353724  0.24352183  1
  O  O191  1  1.00088265  0.13778920  0.74489837  1
  O  O192  1  0.99714891  0.63337202  0.25688851  1
  O  O193  1  0.98466569  0.61085191  0.72845560  1
  O  O194  1  0.36018547  0.25041205  -0.00153068  1
  O  O195  1  0.35868778  0.23068254  0.51876596  1
  O  O196  1  0.29867647  0.70420242  -0.03901736  1
  O  O197  1  0.38124490  0.76385998  0.49992130  1
  O  O198  1  0.86886847  0.25768354  0.00314349  1
  O  O199  1  0.86922849  0.25425112  0.50784124  1
  O  O200  1  0.86524824  0.77032259  -0.00595587  1
  O  O201  1  0.88626942  0.77028247  0.49881057  1
  O  O202  1  0.13687211  0.24232241  0.50922191  1
  O  O203  1  0.13644111  0.23917642  1.00468272  1
  O  O204  1  0.17150473  0.77415755  0.56104288  1
  O  O205  1  0.13352054  0.74044742  1.01465376  1
  O  O206  1  0.63875656  0.24377801  0.49401093  1
  O  O207  1  0.64121837  0.25695985  0.99023782  1
  O  O208  1  0.62220479  0.75718353  0.48281543  1
  O  O209  1  0.62779199  0.76089693  0.98044273  1
  O  O210  1  0.49874489  0.23855135  0.13069746  1
  O  O211  1  0.49425493  0.24007760  0.63300129  1
  O  O212  1  0.48945374  0.76436354  0.12927738  1
  O  O213  1  0.49909974  0.74676264  0.63932857  1
  O  O214  1  0.99072339  0.24766446  0.12470852  1
  O  O215  1  0.98816761  0.25654992  0.63492116  1
  O  O216  1  1.00413636  0.73525481  0.14368045  1
  O  O217  1  1.00967611  0.73522760  0.61837014  1
  O  O218  1  0.00165625  0.25738228  0.37882529  1
  O  O219  1  -0.00586077  0.25766584  0.85602166  1
  O  O220  1  0.00754274  0.76059766  0.36100303  1
  O  O221  1  0.00776865  0.75812271  0.89508820  1
  O  O222  1  0.50440207  0.24117968  0.34815023  1
  O  O223  1  0.51100705  0.25147143  0.86336496  1
  O  O224  1  0.49873118  0.76407391  0.37623415  1
  O  O225  1  0.51097998  0.76107144  0.86983962  1
  O  O226  1  0.23819331  0.12703686  0.51710348  1
  O  O227  1  0.24636071  0.14015195  0.99701164  1
  O  O228  1  0.26754163  0.62903546  0.49115247  1
  O  O229  1  0.26168467  0.64002953  0.98814457  1
  O  O230  1  0.74594984  0.12917694  0.49037866  1
  O  O231  1  0.75269714  0.14033138  0.98745631  1
  O  O232  1  0.73221394  0.58790366  0.47405435  1
  O  O233  1  0.76694183  0.62855157  0.98061806  1
  O  O234  1  0.24237173  0.37024843  0.00055920  1
  O  O235  1  0.24740351  0.35828795  0.51236439  1
  O  O236  1  0.24883608  0.88673704  0.01702951  1
  O  O237  1  0.26836604  0.88194468  0.49192672  1
  O  O238  1  0.76773322  0.36105916  -0.01609818  1
  O  O239  1  0.75909738  0.36451696  0.50663518  1
  O  O240  1  0.75073743  0.87664455  0.01821676  1
  O  O241  1  0.76084839  0.87677660  0.50181518  1
  O  O242  1  0.14669535  0.50549797  0.23971102  1
  O  O243  1  0.14390032  0.50726306  0.73526194  1
  O  O244  1  0.14249760  0.99807764  0.24984550  1
  O  O245  1  0.12635770  0.99610383  0.74899464  1
  O  O246  1  0.64948909  0.50205890  0.26289851  1
  O  O247  1  0.63939942  0.48986513  0.75525754  1
  O  O248  1  0.63963100  0.98386958  0.25049537  1
  O  O249  1  0.61667425  0.98900654  0.75133962  1
  O  O250  1  0.36972056  -0.00018689  0.26308579  1
  O  O251  1  0.39046098  0.01496544  0.75537549  1
  O  O252  1  0.36531040  0.51846021  0.23977154  1
  O  O253  1  0.36445931  0.51080984  0.74681449  1
  O  O254  1  0.86428333  0.00391674  0.24750315  1
  O  O255  1  0.86743198  -0.01184086  0.77272000  1
  O  O256  1  0.86785979  0.50566034  0.26128296  1
  O  O257  1  0.86306583  0.50288664  0.75280712  1
  O  O258  1  0.11528387  0.37346743  0.38049667  1
  O  O259  1  0.10710241  0.38142881  0.87452409  1
  O  O260  1  0.11663164  0.88109860  0.35729257  1
  O  O261  1  0.10804900  0.88199911  0.89198333  1
  O  O262  1  0.61018118  0.35149840  0.37899356  1
  O  O263  1  0.62201170  0.36291726  0.85814234  1
  O  O264  1  0.60153922  0.89431761  0.37411412  1
  O  O265  1  0.62428229  0.86840095  0.86262728  1
  O  O266  1  0.39242928  0.11768663  0.11848640  1
  O  O267  1  0.38653259  0.12927196  0.63809738  1
  O  O268  1  0.35862987  0.64006977  0.13910673  1
  O  O269  1  0.38454643  0.63074222  0.64112435  1
  O  O270  1  0.88950121  0.14115813  0.11971849  1
  O  O271  1  0.88022520  0.13526808  0.61793969  1
  O  O272  1  0.88691423  0.61710423  0.15100703  1
  O  O273  1  0.87908084  0.62649336  0.62424623  1
  O  O274  1  0.24926474  0.27321090  0.11255641  1
  O  O275  1  0.25851743  0.25695546  0.62916232  1
  O  O276  1  0.24590312  0.76616220  0.12685982  1
  O  O277  1  0.21536412  0.76139083  0.62577956  1
  O  O278  1  0.76155278  0.24464408  0.10767438  1
  O  O279  1  0.76075190  0.25332876  0.61666940  1
  O  O280  1  0.75423118  0.75419378  0.13563808  1
  O  O281  1  0.73900591  0.76683607  0.62169406  1
  O  O282  1  0.25669479  0.23782756  0.39884633  1
  O  O283  1  0.24700458  0.25124800  0.88434213  1
  O  O284  1  0.24603721  0.75132219  0.38072431  1
  O  O285  1  0.25382755  0.74156017  0.90109963  1
  O  O286  1  0.74244262  0.24419215  0.37812862  1
  O  O287  1  0.74792845  0.24118430  0.87736437  1
  O  O288  1  0.70652855  0.80834798  0.32721192  1
  O  O289  1  0.74029518  0.74652541  0.86366280  1
  O  O290  1  0.01109371  0.13454847  0.00283643  1
  O  O291  1  0.00958692  0.11435638  0.51042635  1
  O  O292  1  -0.02060322  0.62806281  0.02235383  1
  O  O293  1  -0.00516300  0.61046607  0.51240240  1
  O  O294  1  0.50418718  0.11478953  0.00440196  1
  O  O295  1  0.50620952  0.12402781  0.50571519  1
  O  O296  1  0.51552404  0.64413429  0.02403575  1
  O  O297  1  0.49176381  0.62288170  0.52745584  1
  O  O298  1  0.47992295  0.32571522  0.46894605  1
  O  O299  1  0.49993672  0.35926408  0.97884220  1
  O  O300  1  0.49517606  0.88602533  0.49240999  1
  O  O301  1  0.50411082  0.88276060  0.98972546  1
  O  O302  1  0.99795628  0.38200463  0.49400972  1
  O  O303  1  0.98834098  0.36102502  0.97885864  1
  O  O304  1  1.00391339  0.87230130  0.47849920  1
  O  O305  1  0.98566005  0.87561632  1.00485314  1
  O  O306  1  0.48790541  0.46472512  0.36560996  1
  O  O307  1  0.50281413  0.48196923  0.86296063  1
  O  O308  1  0.48852871  1.00118786  0.38045355  1
  O  O309  1  0.50473579  0.98918734  0.88634602  1
  O  O310  1  1.01196076  0.49824763  0.39029191  1
  O  O311  1  0.98824756  0.48631213  0.85290536  1
  O  O312  1  0.99933174  0.98762164  0.36029408  1
  O  O313  1  0.98852348  0.99377933  0.87757702  1
  O  O314  1  -0.00064586  0.02015954  0.13186937  1
  O  O315  1  0.00051112  -0.02779740  0.63067014  1
  O  O316  1  0.00919157  0.50984561  0.13744409  1
  O  O317  1  0.01462491  0.49638270  0.62062728  1
  O  O318  1  0.50221190  0.00385412  0.11671233  1
  O  O319  1  0.49419985  0.01128554  0.61181337  1
  O  O320  1  0.52188896  0.51174822  0.14705428  1
  O  O321  1  0.50153614  0.51359762  0.64880563  1
  O  O322  1  0.26225851  0.39505786  0.22825176  1
  O  O323  1  0.25844897  0.38911733  0.73626420  1
  O  O324  1  0.24118723  0.87670590  0.24603441  1
  O  O325  1  0.23279849  0.86554040  0.75993732  1
  O  O326  1  0.73758934  0.40258800  0.26516491  1
  O  O327  1  0.74582056  0.37966516  0.74196742  1
  O  O328  1  0.75907732  0.89475102  0.22717199  1
  O  O329  1  0.73745670  0.87648040  0.73988000  1
  O  O330  1  0.25164467  0.11519330  0.23533381  1
  O  O331  1  0.26848439  0.13028625  0.75256020  1
  O  O332  1  0.25563303  0.62088941  0.25601173  1
  O  O333  1  0.26377834  0.61535900  0.74831699  1
  O  O334  1  0.74579500  0.12145115  0.26141236  1
  O  O335  1  0.74818179  0.12767513  0.76183367  1
  O  O336  1  0.76763481  0.63568662  0.27223919  1
  O  O337  1  0.75641099  0.61773391  0.75230683  1
  O  O338  1  0.37965670  0.11686733  0.38074765  1
  O  O339  1  0.38176302  0.13258655  0.86185571  1
  O  O340  1  0.35978065  0.63207207  0.36011242  1
  O  O341  1  0.38683616  0.62844012  0.86002538  1
  O  O342  1  0.86060988  0.13327821  0.37959062  1
  O  O343  1  0.86629118  0.11338069  0.87916416  1
  O  O344  1  0.88938020  0.62116044  0.37330987  1
  O  O345  1  0.87318993  0.61881848  0.86144092  1
  O  O346  1  0.12843330  0.39135757  0.12307839  1
  O  O347  1  0.13446425  0.38460788  0.62727573  1
  O  O348  1  0.12335884  0.88239010  0.14058968  1
  O  O349  1  0.06904106  0.93082272  0.62627136  1
  O  O350  1  0.62787376  0.37313524  0.13795351  1
  O  O351  1  0.63748282  0.36368016  0.63236773  1
  O  O352  1  0.64268010  0.87106761  0.13850693  1
  O  O353  1  0.62701255  0.87635871  0.63641301  1
  O  O354  1  0.17212728  0.26503167  0.26644877  1
  O  O355  1  0.11689808  0.24795091  0.74205920  1
  O  O356  1  0.12189685  0.76020998  0.24722872  1
  O  O357  1  0.11491390  0.68634337  0.79826327  1
  O  O358  1  0.63318019  0.25237799  0.25633109  1
  O  O359  1  0.62074241  0.25456494  0.75259203  1
  O  O360  1  0.60118633  0.74994496  0.24163173  1
  O  O361  1  0.61375746  0.76240543  0.75830721  1
  O  O362  1  0.37271751  0.23600036  0.24425424  1
  O  O363  1  0.38602284  0.24196223  0.74246208  1
  O  O364  1  0.38599387  0.74825102  0.25291392  1
  O  O365  1  0.37904320  0.74221284  0.74808708  1
  O  O366  1  0.86050591  0.26670486  0.22759488  1
  O  O367  1  0.87153175  0.24867039  0.73446714  1
  O  O368  1  0.88791807  0.74495049  0.25506297  1
  O  O369  1  0.86905877  0.73794997  0.74745547  1
  O  O370  1  0.40399812  0.50082417  0.49826578  1
  O  O371  1  0.42034260  0.51542810  1.01391065  1
  O  O372  1  0.38149551  0.99591817  0.49124044  1
  O  O373  1  0.38958947  1.00289463  1.00065278  1
  O  O374  1  0.89390174  0.48750071  0.50998070  1
  O  O375  1  0.88020302  0.48520858  0.98331484  1
  O  O376  1  0.88419957  0.97908925  0.50911255  1
  O  O377  1  0.86409463  0.98581690  0.98452770  1
  O  O378  1  0.13957188  0.02750029  0.00897257  1
  O  O379  1  0.13215237  -0.00133125  0.50244178  1
  O  O380  1  0.10895254  0.50053043  0.01199954  1
  O  O381  1  0.11596450  0.49599149  0.51296743  1
  O  O382  1  0.61300949  -0.00185243  0.00639008  1
  O  O383  1  0.61404319  0.01418836  0.49053751  1
  O  O384  1  0.59532506  0.49806587  -0.00478213  1
  O  O385  1  0.56716641  0.46287343  0.51172821  1
  O  O386  1  0.36267426  0.38964028  0.11101787  1
  O  O387  1  0.37065722  0.36234862  0.62741449  1
  O  O388  1  0.36638687  0.87438073  0.12841120  1
  O  O389  1  0.37929459  0.87085480  0.61062470  1
  O  O390  1  0.88883503  0.36879461  0.10648804  1
  O  O391  1  0.86828332  0.36405594  0.61713459  1
  O  O392  1  0.86548165  0.88032254  0.11621019  1
  O  O393  1  0.85792952  0.86612102  0.62170689  1
  O  O394  1  0.12338606  0.12054343  0.40068268  1
  O  O395  1  0.12353562  0.12630656  0.88551892  1
  O  O396  1  0.15188998  0.61943403  0.37772287  1
  O  O397  1  0.12027704  0.58705663  0.90432462  1
  O  O398  1  0.63014385  0.13581759  0.38230560  1
  O  O399  1  0.63527117  0.13701418  0.87747314  1
  O  O400  1  0.55285487  0.59751655  0.40353932  1
  O  O401  1  0.63435646  0.64082706  0.86771749  1
