# generated using pymatgen
data_V73Zn73O256
_symmetry_space_group_name_H-M   'P 1'
_cell_length_a   16.93019526
_cell_length_b   16.89004478
_cell_length_c   16.92893861
_cell_angle_alpha   90.33255861
_cell_angle_beta   89.93094716
_cell_angle_gamma   89.97155563
_symmetry_Int_Tables_number   1
_chemical_formula_structural   V73Zn73O256
_chemical_formula_sum   'V73 Zn73 O256'
_cell_volume   4840.77405579
_cell_formula_units_Z   1
loop_
 _symmetry_equiv_pos_site_id
 _symmetry_equiv_pos_as_xyz
  1  'x, y, z'
loop_
 _atom_site_type_symbol
 _atom_site_label
 _atom_site_symmetry_multiplicity
 _atom_site_fract_x
 _atom_site_fract_y
 _atom_site_fract_z
 _atom_site_occupancy
  V  V0  1  0.87140617  -0.00019408  0.36821400  1
  V  V1  1  0.38918886  0.24159468  0.13739444  1
  V  V2  1  0.13587171  0.86601697  0.25809015  1
  V  V3  1  0.25416197  0.37957667  0.64511408  1
  V  V4  1  0.12779574  0.12576297  0.49772512  1
  V  V5  1  0.74847249  0.00736782  0.75579851  1
  V  V6  1  0.11320538  0.62135041  0.50000548  1
  V  V7  1  0.49710749  0.73343637  0.73473502  1
  V  V8  1  0.49332636  0.87349849  0.37647918  1
  V  V9  1  0.10951949  0.87150389  0.75625961  1
  V  V10  1  -0.00123368  0.75073966  0.25808004  1
  V  V11  1  0.62742027  0.88669196  0.24954526  1
  V  V12  1  0.89439780  0.23668918  0.62629686  1
  V  V13  1  0.37181737  0.50054889  0.37336359  1
  V  V14  1  0.50695503  0.61794422  0.12624317  1
  V  V15  1  0.37585485  0.37815160  0.49666124  1
  V  V16  1  0.75520304  0.36678958  0.12004106  1
  V  V17  1  0.11532645  0.49496798  0.63235702  1
  V  V18  1  0.13384029  0.62308106  -0.00064013  1
  V  V19  1  0.25814609  0.62986644  0.39962089  1
  V  V20  1  -0.01150570  0.61686768  0.10745764  1
  V  V21  1  0.37385743  0.85566734  0.50778512  1
  V  V22  1  0.86880258  0.62131665  0.26024188  1
  V  V23  1  0.36906989  0.75198119  0.11953021  1
  V  V24  1  0.11502726  0.74971945  0.88626973  1
  V  V25  1  0.42178701  0.40838779  -0.00009211  1
  V  V26  1  0.88566393  0.89163358  -0.01077764  1
  V  V27  1  0.74601794  0.37377439  0.63079088  1
  V  V28  1  0.87365861  0.75915669  0.12317594  1
  V  V29  1  0.48986264  -0.01116758  0.00602712  1
  V  V30  1  0.87754686  0.87350034  0.50257809  1
  V  V31  1  0.50836234  0.25758533  0.76137308  1
  V  V32  1  0.75046226  0.87103581  0.62482379  1
  V  V33  1  0.25542116  0.23416851  0.02317144  1
  V  V34  1  0.74760394  0.12745686  0.88358289  1
  V  V35  1  0.11360725  0.24990624  0.36220041  1
  V  V36  1  0.49787542  0.37907842  0.37136196  1
  V  V37  1  0.24714911  0.86046594  0.62139385  1
  V  V38  1  0.63766411  0.37908169  0.25993233  1
  V  V39  1  0.74912799  0.12276311  0.37202470  1
  V  V40  1  0.61562623  0.87720422  0.75454635  1
  V  V41  1  0.63719991  0.50185212  0.13672316  1
  V  V42  1  0.25784979  0.87850545  0.11149267  1
  V  V43  1  0.88391903  0.38212076  0.50099258  1
  V  V44  1  0.49805296  0.74456506  0.24879455  1
  V  V45  1  0.25433084  0.24729031  0.47976347  1
  V  V46  1  0.00049392  0.00881129  0.50401357  1
  V  V47  1  0.75111944  0.74626799  0.50041732  1
  V  V48  1  0.61959182  0.75640166  0.87697943  1
  V  V49  1  0.32200966  0.56697103  0.19074697  1
  V  V50  1  0.37848617  0.24585982  0.63566175  1
  V  V51  1  0.74434230  0.89427873  0.13032563  1
  V  V52  1  0.62921561  0.26615312  0.88419484  1
  V  V53  1  0.87846969  0.24779525  0.11756526  1
  V  V54  1  0.74451635  0.24301565  0.50333386  1
  V  V55  1  0.61736307  0.24602842  0.37571738  1
  V  V56  1  0.35089447  0.61404398  0.75785637  1
  V  V57  1  0.48992255  0.00552407  0.50119580  1
  V  V58  1  0.26393872  0.00389734  0.75132099  1
  V  V59  1  0.11759158  -0.00229833  0.13035607  1
  V  V60  1  -0.00583943  0.37496468  0.87794818  1
  V  V61  1  0.62406454  0.00783093  0.61735999  1
  V  V62  1  0.61488370  0.12177358  0.01154179  1
  V  V63  1  0.62924553  0.74669362  0.37359226  1
  V  V64  1  0.61321721  0.61797010  0.50243162  1
  V  V65  1  0.75779430  0.50843949  0.75060913  1
  V  V66  1  0.87693072  0.64977027  0.75205203  1
  V  V67  1  0.88948773  0.13506739  0.25208548  1
  V  V68  1  -0.00031241  0.38281600  0.36748884  1
  V  V69  1  0.60834461  0.49726287  0.62237969  1
  V  V70  1  0.74741350  0.75778744  -0.00381467  1
  V  V71  1  0.63064550  0.62087011  -0.00090499  1
  V  V72  1  0.11706039  0.11293189  -0.00665935  1
  Zn  Zn73  1  0.37977389  0.96173050  -0.11866206  1
  Zn  Zn74  1  0.89905252  0.12462235  0.75674737  1
  Zn  Zn75  1  0.45173046  0.56973019  0.91208124  1
  Zn  Zn76  1  -0.00813694  0.65241425  0.63321094  1
  Zn  Zn77  1  0.00506981  0.87525470  0.37512712  1
  Zn  Zn78  1  0.16622646  0.44425522  0.17788293  1
  Zn  Zn79  1  0.48951862  0.12020406  0.63845397  1
  Zn  Zn80  1  0.75763501  0.59651083  0.37500593  1
  Zn  Zn81  1  0.12878303  0.00181309  0.62617764  1
  Zn  Zn82  1  0.16188556  0.20563817  0.16353234  1
  Zn  Zn83  1  0.20611590  0.17969155  0.67157713  1
  Zn  Zn84  1  0.15442551  0.64711482  0.20460857  1
  Zn  Zn85  1  0.17736241  0.68383384  0.68388733  1
  Zn  Zn86  1  0.69022127  0.18671714  0.19452785  1
  Zn  Zn87  1  0.67908412  0.19040377  0.69164206  1
  Zn  Zn88  1  0.69222474  0.69582584  0.18737195  1
  Zn  Zn89  1  0.68519128  0.68588617  0.68535443  1
  Zn  Zn90  1  0.29470101  0.33034890  0.29368093  1
  Zn  Zn91  1  0.30515069  0.42528208  0.84014046  1
  Zn  Zn92  1  0.31414194  0.80331546  0.31288232  1
  Zn  Zn93  1  0.29605850  0.80261016  0.80008323  1
  Zn  Zn94  1  0.81307338  0.31546002  0.31902082  1
  Zn  Zn95  1  0.81026073  0.30177593  0.80445472  1
  Zn  Zn96  1  0.81125398  0.81459310  0.31292261  1
  Zn  Zn97  1  0.81147103  0.81880013  0.81279997  1
  Zn  Zn98  1  0.18658067  0.43839940  0.43896611  1
  Zn  Zn99  1  0.17330561  0.41322155  0.98597188  1
  Zn  Zn100  1  0.18529217  0.92537662  0.44366065  1
  Zn  Zn101  1  0.19130257  0.93832372  0.93424393  1
  Zn  Zn102  1  0.69119326  0.43276313  0.44647334  1
  Zn  Zn103  1  0.72450284  0.44987119  0.94588329  1
  Zn  Zn104  1  0.68633112  0.93550832  0.43774191  1
  Zn  Zn105  1  0.68137950  0.94238734  0.94236362  1
  Zn  Zn106  1  0.31950156  0.06419660  0.07389489  1
  Zn  Zn107  1  0.30948904  0.05958553  0.56093780  1
  Zn  Zn108  1  0.29166082  0.53923903  -0.00116723  1
  Zn  Zn109  1  0.32580755  0.55847651  0.57338421  1
  Zn  Zn110  1  0.81482052  0.07005929  0.06441360  1
  Zn  Zn111  1  0.81298433  0.06274776  0.56241245  1
  Zn  Zn112  1  0.81453032  0.56598266  0.06192710  1
  Zn  Zn113  1  0.81436258  0.56712569  0.56552008  1
  Zn  Zn114  1  0.44049574  0.41773047  0.18669332  1
  Zn  Zn115  1  0.46800554  0.46601773  0.75418597  1
  Zn  Zn116  1  0.44519006  0.93928896  0.18529029  1
  Zn  Zn117  1  0.43597688  0.92981786  0.68522907  1
  Zn  Zn118  1  0.93468891  0.43900007  0.18897216  1
  Zn  Zn119  1  0.92917483  0.43734590  0.68413950  1
  Zn  Zn120  1  0.93737338  0.93788442  0.18805847  1
  Zn  Zn121  1  0.93457301  0.94727836  0.68795719  1
  Zn  Zn122  1  0.06652974  0.05769779  0.31408288  1
  Zn  Zn123  1  0.08831039  0.06869350  0.80451883  1
  Zn  Zn124  1  0.07965200  0.54202382  0.32411219  1
  Zn  Zn125  1  0.05945681  0.56830688  0.81085416  1
  Zn  Zn126  1  0.56932494  0.05491794  0.33013009  1
  Zn  Zn127  1  0.54593216  0.07679266  0.82908017  1
  Zn  Zn128  1  0.56317539  0.55986958  0.31621602  1
  Zn  Zn129  1  0.60029105  0.56007133  0.81608002  1
  Zn  Zn130  1  0.43532518  0.18314104  0.42813118  1
  Zn  Zn131  1  0.44782616  0.20509083  0.95141258  1
  Zn  Zn132  1  0.43917144  0.68450253  0.43530562  1
  Zn  Zn133  1  0.40440749  0.75136342  0.90896741  1
  Zn  Zn134  1  0.93508839  0.19123590  0.43929547  1
  Zn  Zn135  1  0.93948353  0.06277485  0.91924158  1
  Zn  Zn136  1  0.94549864  0.69201318  0.45425629  1
  Zn  Zn137  1  0.93386441  0.70216450  0.92445497  1
  Zn  Zn138  1  0.05814544  0.30514384  0.07000274  1
  Zn  Zn139  1  0.07208628  0.31560099  0.56077488  1
  Zn  Zn140  1  0.06259665  0.81653712  0.06645910  1
  Zn  Zn141  1  0.06459969  0.80739855  0.56096910  1
  Zn  Zn142  1  0.57131355  0.31075330  0.06960837  1
  Zn  Zn143  1  0.55800864  0.31262406  0.56083049  1
  Zn  Zn144  1  0.55906928  0.81501326  0.06529846  1
  Zn  Zn145  1  0.56554596  0.81304354  0.56184959  1
  O  O146  1  0.13771099  0.09426812  0.15225876  1
  O  O147  1  0.13198595  0.11995676  0.60324945  1
  O  O148  1  0.09479716  0.64654904  0.10390668  1
  O  O149  1  0.11019077  0.61403201  0.61781115  1
  O  O150  1  0.63477004  0.13591644  0.10946358  1
  O  O151  1  0.62118491  0.10952458  0.62639227  1
  O  O152  1  0.62607617  0.62137469  0.12442463  1
  O  O153  1  0.63090266  0.61400012  0.60855086  1
  O  O154  1  0.37960129  0.38187826  0.37593788  1
  O  O155  1  0.38088072  0.37104061  0.91453387  1
  O  O156  1  0.38665232  0.86426286  0.38594310  1
  O  O157  1  0.37212136  0.84982872  0.86613088  1
  O  O158  1  0.88778994  0.36412187  0.39177374  1
  O  O159  1  0.89028097  0.36338716  0.87013535  1
  O  O160  1  0.87040650  0.88552461  0.38547562  1
  O  O161  1  0.86969960  0.87923370  0.89039374  1
  O  O162  1  0.26575870  -0.00379719  0.37432207  1
  O  O163  1  0.26022416  -0.01350286  0.85630193  1
  O  O164  1  0.26521569  0.50886498  0.37943172  1
  O  O165  1  0.24306403  0.47096622  0.92195150  1
  O  O166  1  0.75860895  0.01018676  0.38854194  1
  O  O167  1  0.73885346  0.00852164  0.86127994  1
  O  O168  1  0.75217936  0.48679393  0.37445495  1
  O  O169  1  0.72265496  0.50157494  0.84514442  1
  O  O170  1  0.26737667  0.51566732  0.12308357  1
  O  O171  1  0.25692432  0.48029213  0.62776481  1
  O  O172  1  0.25458794  0.98003793  0.13205053  1
  O  O173  1  0.25125102  0.98880588  0.62956452  1
  O  O174  1  0.74247788  0.48879514  0.12785822  1
  O  O175  1  0.75291672  0.48245139  0.62622554  1
  O  O176  1  0.75053173  0.99271985  0.12591816  1
  O  O177  1  0.73623499  0.99559534  0.62677956  1
  O  O178  1  -0.00683135  0.37914249  0.26717661  1
  O  O179  1  -0.00752055  0.37772185  0.77238373  1
  O  O180  1  0.00469660  0.86260534  0.25030079  1
  O  O181  1  0.01221670  0.88816304  0.74061699  1
  O  O182  1  0.51642850  0.37621372  0.26418053  1
  O  O183  1  0.49151636  0.35496109  0.74430400  1
  O  O184  1  0.50758520  0.86718108  0.25860860  1
  O  O185  1  0.51412563  0.86518326  0.74162614  1
  O  O186  1  0.43242026  0.08030962  0.28815341  1
  O  O187  1  0.50140878  0.14496871  0.75008653  1
  O  O188  1  0.51365115  0.63586199  0.24298405  1
  O  O189  1  0.52698116  0.63885242  0.74971014  1
  O  O190  1  0.98809853  0.12206111  0.25543923  1
  O  O191  1  1.06923301  0.19259166  0.75719648  1
  O  O192  1  0.98478514  0.64458861  0.23312891  1
  O  O193  1  0.98405583  0.62943482  0.74901302  1
  O  O194  1  0.36433885  0.23908126  0.01940344  1
  O  O195  1  0.36393963  0.25346410  0.48733097  1
  O  O196  1  0.38972087  0.74613166  0.02286061  1
  O  O197  1  0.38194618  0.75694860  0.50373438  1
  O  O198  1  0.86733439  0.23519606  0.02286615  1
  O  O199  1  0.86540431  0.25065309  0.51420805  1
  O  O200  1  0.86404841  0.76760140  0.00468122  1
  O  O201  1  0.85591112  0.76366327  0.48283367  1
  O  O202  1  0.13871689  0.24405493  0.49408130  1
  O  O203  1  0.12681551  0.21282956  1.04443446  1
  O  O204  1  0.12817459  0.72172646  0.50542758  1
  O  O205  1  0.11943194  0.75301322  0.98992920  1
  O  O206  1  0.63323481  0.25668571  0.48781924  1
  O  O207  1  0.62066443  0.23985493  0.98886350  1
  O  O208  1  0.63068108  0.74071984  0.49274175  1
  O  O209  1  0.62992542  0.75337434  0.99525742  1
  O  O210  1  0.48988430  0.25139181  0.12367553  1
  O  O211  1  0.49165383  0.24641115  0.62673080  1
  O  O212  1  0.50023340  0.74163645  0.13429477  1
  O  O213  1  0.51222910  0.74780461  0.63580659  1
  O  O214  1  0.97848967  0.26164113  0.13174083  1
  O  O215  1  0.99234458  0.24945597  0.61707881  1
  O  O216  1  0.98190039  0.75682837  0.12842324  1
  O  O217  1  0.97723263  0.74043861  0.56539368  1
  O  O218  1  0.00961851  0.25583242  0.37923738  1
  O  O219  1  0.00999510  0.27347253  0.87622536  1
  O  O220  1  -0.00596968  0.75107212  0.36028407  1
  O  O221  1  0.01364338  0.75860094  0.86591059  1
  O  O222  1  0.51343737  0.25359072  0.37763424  1
  O  O223  1  0.51251672  0.25427709  0.86984626  1
  O  O224  1  0.51033909  0.75388663  0.36967764  1
  O  O225  1  0.51848775  0.75317822  0.86048244  1
  O  O226  1  0.24735288  0.13854688  0.49444580  1
  O  O227  1  0.24375718  0.12861153  1.01063715  1
  O  O228  1  0.26240136  0.62589402  0.50087037  1
  O  O229  1  0.23295803  0.63577544  1.00732085  1
  O  O230  1  0.75388591  0.13479517  0.49176244  1
  O  O231  1  0.73856501  0.11556863  0.98747638  1
  O  O232  1  0.74723683  0.63393648  0.49499389  1
  O  O233  1  0.73808369  0.64805602  1.01544165  1
  O  O234  1  0.22380439  0.30473155  -0.04001799  1
  O  O235  1  0.25893670  0.36079428  0.49540704  1
  O  O236  1  0.24977971  0.87385632  0.01296125  1
  O  O237  1  0.26559996  0.87520472  0.50530576  1
  O  O238  1  0.74224669  0.36445604  0.02212496  1
  O  O239  1  0.76194909  0.36099073  0.50952634  1
  O  O240  1  0.75030554  0.87727313  0.01316576  1
  O  O241  1  0.75345965  0.86996090  0.50754086  1
  O  O242  1  0.11678884  0.53839236  0.22246011  1
  O  O243  1  0.12695350  0.51286268  0.73259444  1
  O  O244  1  0.11929393  0.97355512  0.24637749  1
  O  O245  1  0.13915493  0.98555240  0.74404414  1
  O  O246  1  0.62741338  0.49314805  0.24674997  1
  O  O247  1  0.64213807  0.50776116  0.72071725  1
  O  O248  1  0.61624213  0.98722742  0.25490348  1
  O  O249  1  0.62711770  0.98858194  0.73723491  1
  O  O250  1  0.39365083  0.01331796  0.26519008  1
  O  O251  1  0.36738871  -0.00478072  0.74613486  1
  O  O252  1  0.37628073  0.49967087  0.25099051  1
  O  O253  1  0.36283989  0.50892872  0.78092309  1
  O  O254  1  0.87807903  0.00793966  0.26258949  1
  O  O255  1  0.84913156  0.00485893  0.73825872  1
  O  O256  1  0.87794945  0.52336202  0.24554107  1
  O  O257  1  0.85899428  0.49483509  0.75317469  1
  O  O258  1  0.11000375  0.36138261  0.38808782  1
  O  O259  1  0.09851792  0.38273597  0.88171993  1
  O  O260  1  0.12628265  0.86919497  0.36262183  1
  O  O261  1  0.12181753  0.87326265  0.86176794  1
  O  O262  1  0.61761137  0.36766891  0.37668619  1
  O  O263  1  0.64781151  0.36185140  0.89003372  1
  O  O264  1  0.61662610  0.86653415  0.37159594  1
  O  O265  1  0.62796955  0.87565736  0.85936542  1
  O  O266  1  0.37092037  0.14177901  0.14506901  1
  O  O267  1  0.37398156  0.14187065  0.61263730  1
  O  O268  1  0.38729722  0.63251110  0.13670004  1
  O  O269  1  0.38097615  0.60563437  0.65938994  1
  O  O270  1  0.86588041  0.13478731  0.14507465  1
  O  O271  1  0.87872477  0.13206158  0.62620860  1
  O  O272  1  0.87425566  0.64004390  0.13046341  1
  O  O273  1  0.88079455  0.61492365  0.64128891  1
  O  O274  1  0.25837772  0.25965371  0.12504495  1
  O  O275  1  0.26224977  0.25932175  0.61405434  1
  O  O276  1  0.26809999  0.75607574  0.12749322  1
  O  O277  1  0.24648876  0.76161693  0.62638825  1
  O  O278  1  0.75817783  0.26207297  0.13947207  1
  O  O279  1  0.74031334  0.25843611  0.61992153  1
  O  O280  1  0.75834241  0.76574356  0.11838842  1
  O  O281  1  0.74054614  0.76094658  0.61259566  1
  O  O282  1  0.23893829  0.25474830  0.37795973  1
  O  O283  1  0.30037960  0.18626008  0.86262804  1
  O  O284  1  0.25883999  0.72762247  0.37624715  1
  O  O285  1  0.21368296  0.74873484  0.85522903  1
  O  O286  1  0.74290831  0.24329192  0.38592379  1
  O  O287  1  0.73744292  0.23678686  0.86515297  1
  O  O288  1  0.73617948  0.75698422  0.38241329  1
  O  O289  1  0.73765557  0.76572713  0.88848006  1
  O  O290  1  0.01656114  0.10713278  -0.00605963  1
  O  O291  1  0.00564998  0.11395672  0.49426669  1
  O  O292  1  -0.02319283  0.63358202  0.00815434  1
  O  O293  1  0.01539755  0.60608890  0.48348335  1
  O  O294  1  0.51100754  0.12378510  0.00127119  1
  O  O295  1  0.49264449  0.10709581  0.49519583  1
  O  O296  1  0.52349200  0.62979531  0.01521177  1
  O  O297  1  0.51486809  0.62732988  0.49873128  1
  O  O298  1  0.48657188  0.36552184  0.48494012  1
  O  O299  1  0.52016747  0.38784140  1.00043968  1
  O  O300  1  0.49044439  0.87603555  0.49704474  1
  O  O301  1  0.50436383  0.88760056  0.99971718  1
  O  O302  1  0.98665261  0.36715360  0.50161508  1
  O  O303  1  0.98270049  0.37903057  0.98072053  1
  O  O304  1  0.99158602  0.88687988  0.49419219  1
  O  O305  1  0.98309527  0.87670081  1.00428947  1
  O  O306  1  0.48766292  0.49142037  0.37158709  1
  O  O307  1  0.51604879  0.49884146  0.85374964  1
  O  O308  1  0.50801069  0.98479333  0.39379016  1
  O  O309  1  0.48807854  1.00529111  0.88967042  1
  O  O310  1  1.00784678  0.48213044  0.38458485  1
  O  O311  1  0.99480440  0.48139422  0.87373529  1
  O  O312  1  0.98870448  0.99689687  0.38259916  1
  O  O313  1  0.97781842  1.06232098  0.81084999  1
  O  O314  1  0.01797810  -0.00993050  0.12620928  1
  O  O315  1  0.00319301  -0.00106442  0.60640344  1
  O  O316  1  -0.01841922  0.51768906  0.11686340  1
  O  O317  1  0.01629935  0.47839603  0.62615253  1
  O  O318  1  0.49567991  0.00381022  0.10869046  1
  O  O319  1  0.50723936  -0.00111454  0.61697190  1
  O  O320  1  0.51759051  0.51150579  0.13460931  1
  O  O321  1  0.51207047  0.48959090  0.63889004  1
  O  O322  1  0.21510432  0.40056612  0.26855151  1
  O  O323  1  0.26268447  0.37079917  0.74359132  1
  O  O324  1  0.23791806  0.85984761  0.24783640  1
  O  O325  1  0.24241419  0.88026574  0.73050010  1
  O  O326  1  0.74154993  0.37472949  0.25207282  1
  O  O327  1  0.75251891  0.37714610  0.73432729  1
  O  O328  1  0.74297076  0.87521459  0.23930649  1
  O  O329  1  0.74142705  0.88732431  0.74147466  1
  O  O330  1  0.23769159  0.04350107  0.32493561  1
  O  O331  1  0.24398636  0.10343785  0.74367368  1
  O  O332  1  0.26078276  0.62399225  0.24856900  1
  O  O333  1  0.25267849  0.63049603  0.75127856  1
  O  O334  1  0.75660647  0.12563065  0.26818766  1
  O  O335  1  0.73594652  0.11282561  0.75608348  1
  O  O336  1  0.76388990  0.63801057  0.25503272  1
  O  O337  1  0.76046059  0.61536733  0.73746591  1
  O  O338  1  0.38518623  0.12430568  0.33851023  1
  O  O339  1  0.36064452  0.14475276  0.86998796  1
  O  O340  1  0.37023844  0.61323170  0.38025261  1
  O  O341  1  0.38205967  0.64437177  0.86485307  1
  O  O342  1  0.86962138  0.11998615  0.36955662  1
  O  O343  1  0.84885531  0.12856144  0.87212972  1
  O  O344  1  0.87707028  0.63531308  0.36287558  1
  O  O345  1  0.86743709  0.64050690  0.85389324  1
  O  O346  1  0.12954146  0.38815804  0.08659572  1
  O  O347  1  0.14445790  0.38062664  0.62431657  1
  O  O348  1  0.14025392  0.87697070  0.13257048  1
  O  O349  1  0.13758935  0.87873148  0.61293915  1
  O  O350  1  0.63557490  0.38034568  0.14090189  1
  O  O351  1  0.63581803  0.38689487  0.61051019  1
  O  O352  1  0.63719340  0.87234695  0.13482003  1
  O  O353  1  0.63375007  0.88223600  0.63172769  1
  O  O354  1  0.12472371  0.24577110  0.26347438  1
  O  O355  1  0.12344862  0.24175742  0.73909288  1
  O  O356  1  0.10734355  0.75388255  0.24040183  1
  O  O357  1  0.11622235  0.77064207  0.73390925  1
  O  O358  1  0.63261658  0.25994735  0.26982786  1
  O  O359  1  0.61596506  0.25605675  0.76311819  1
  O  O360  1  0.62020630  0.75988790  0.25824906  1
  O  O361  1  0.63098050  0.76420647  0.75522613  1
  O  O362  1  0.37579100  0.28578230  0.23092328  1
  O  O363  1  0.38183324  0.24802470  0.73393690  1
  O  O364  1  0.39275548  0.75302041  0.24345719  1
  O  O365  1  0.39311330  0.73296640  0.74529753  1
  O  O366  1  0.87544585  0.23667867  0.25879943  1
  O  O367  1  0.87465402  0.23963839  0.73246554  1
  O  O368  1  0.88102135  0.75459246  0.24161075  1
  O  O369  1  0.86388174  0.75003784  0.73947681  1
  O  O370  1  0.37276062  0.48530787  0.49187661  1
  O  O371  1  0.40349681  0.51366953  1.00093970  1
  O  O372  1  0.38794655  0.98750255  0.50566794  1
  O  O373  1  0.38337353  1.00277464  0.99902445  1
  O  O374  1  0.87224425  0.48019921  0.50982153  1
  O  O375  1  0.82563754  0.49546696  0.97754685  1
  O  O376  1  0.88468141  0.99648988  0.49357331  1
  O  O377  1  0.87744315  0.99849324  0.99655267  1
  O  O378  1  0.13807305  0.00479913  0.01900123  1
  O  O379  1  0.11288926  0.00558932  0.48758322  1
  O  O380  1  0.11920609  0.52554802  0.00251018  1
  O  O381  1  0.14287538  0.51010196  0.51997422  1
  O  O382  1  0.61184467  0.01421371  -0.00281178  1
  O  O383  1  0.61341026  -0.01000451  0.51318023  1
  O  O384  1  0.64121410  0.51897635  0.00959486  1
  O  O385  1  0.62335991  0.50946509  0.50654107  1
  O  O386  1  0.38606250  0.37587900  0.09433390  1
  O  O387  1  0.36643544  0.35954770  0.60955285  1
  O  O388  1  0.36795891  0.86443418  0.13477477  1
  O  O389  1  0.36609236  0.86988812  0.61398669  1
  O  O390  1  0.86158656  0.36708006  0.13385503  1
  O  O391  1  0.86612348  0.35880937  0.61928129  1
  O  O392  1  0.86201945  0.87822703  0.11903928  1
  O  O393  1  0.86190588  0.88699271  0.61198740  1
  O  O394  1  0.11887606  0.13918250  0.38324590  1
  O  O395  1  0.13861545  0.11564488  0.89560692  1
  O  O396  1  0.14897975  0.60853557  0.39218392  1
  O  O397  1  0.10796481  0.63615717  0.89109809  1
  O  O398  1  0.62965010  0.13785046  0.37252547  1
  O  O399  1  0.63109439  0.13379235  0.88578728  1
  O  O400  1  0.62879557  0.63074356  0.38546345  1
  O  O401  1  0.63170398  0.63946865  0.89476487  1
