# generated using pymatgen
data_V73Zn73O256
_symmetry_space_group_name_H-M   'P 1'
_cell_length_a   16.86117063
_cell_length_b   16.85415205
_cell_length_c   16.87946337
_cell_angle_alpha   90.09999946
_cell_angle_beta   90.02545918
_cell_angle_gamma   90.12013232
_symmetry_Int_Tables_number   1
_chemical_formula_structural   V73Zn73O256
_chemical_formula_sum   'V73 Zn73 O256'
_cell_volume   4796.79995352
_cell_formula_units_Z   1
loop_
 _symmetry_equiv_pos_site_id
 _symmetry_equiv_pos_as_xyz
  1  'x, y, z'
loop_
 _atom_site_type_symbol
 _atom_site_label
 _atom_site_symmetry_multiplicity
 _atom_site_fract_x
 _atom_site_fract_y
 _atom_site_fract_z
 _atom_site_occupancy
  V  V0  1  0.01187527  0.24608748  0.24152501  1
  V  V1  1  0.75136026  0.87275629  0.62705414  1
  V  V2  1  0.88232499  0.87816598  0.50426847  1
  V  V3  1  -0.00864095  0.49845827  -0.00440060  1
  V  V4  1  -0.00327233  0.87498460  0.37470238  1
  V  V5  1  0.64689424  0.01534270  0.11187880  1
  V  V6  1  0.50104923  0.49914227  -0.01004489  1
  V  V7  1  0.13862356  0.74442063  0.88542953  1
  V  V8  1  0.12917756  0.13734987  0.49288226  1
  V  V9  1  0.62561409  0.49394156  0.63717314  1
  V  V10  1  0.87428061  0.12324918  0.24754119  1
  V  V11  1  0.64019519  0.63073135  0.00212692  1
  V  V12  1  0.24688602  0.86923451  0.60894198  1
  V  V13  1  -0.00111514  0.00768485  -0.00382106  1
  V  V14  1  0.01374921  0.37001000  0.37792734  1
  V  V15  1  -0.00536560  0.12464780  0.62279735  1
  V  V16  1  0.12128269  0.86375653  0.75148176  1
  V  V17  1  0.50127284  0.50507279  0.50175495  1
  V  V18  1  0.36941120  0.37612107  0.49479704  1
  V  V19  1  0.80768095  0.56421493  0.80942901  1
  V  V20  1  0.24504906  0.38148632  0.63533013  1
  V  V21  1  0.11476345  0.00214329  0.62139872  1
  V  V22  1  0.72525249  0.12513584  0.87943356  1
  V  V23  1  0.49756785  0.38096910  0.36969973  1
  V  V24  1  0.85982382  0.37005434  0.49659418  1
  V  V25  1  0.87235614  0.12794141  0.75914277  1
  V  V26  1  0.00167708  0.50113395  0.51078292  1
  V  V27  1  0.49427282  0.64200780  0.13244032  1
  V  V28  1  0.63338517  0.38066519  0.24750891  1
  V  V29  1  -0.01450273  0.62028766  0.12693095  1
  V  V30  1  0.60428734  0.86581792  0.75427611  1
  V  V31  1  0.61242175  0.26122850  0.89399055  1
  V  V32  1  0.87440393  0.49975013  0.35942941  1
  V  V33  1  -0.00607190  0.86592870  0.87579896  1
  V  V34  1  0.87599300  0.00111854  0.37839467  1
  V  V35  1  0.76603980  0.37224746  0.09760474  1
  V  V36  1  0.24445718  -0.00100527  0.75092177  1
  V  V37  1  0.13768809  0.62367046  0.01144406  1
  V  V38  1  0.38147623  -0.00216738  0.88329003  1
  V  V39  1  0.26770659  0.63033130  0.37291686  1
  V  V40  1  0.62475326  0.74582304  0.88015068  1
  V  V41  1  0.23213431  0.13364199  0.88215188  1
  V  V42  1  0.61679454  0.12348303  0.50124330  1
  V  V43  1  0.38583409  0.86264366  -0.00352431  1
  V  V44  1  0.75251740  0.13238016  0.38374148  1
  V  V45  1  0.49034911  0.11484061  0.09495697  1
  V  V46  1  0.13401787  0.38596410  0.23636264  1
  V  V47  1  0.39915684  0.90645588  0.50140224  1
  V  V48  1  0.12192976  0.01033493  0.11856504  1
  V  V49  1  0.36748120  0.25183790  0.62422486  1
  V  V50  1  0.36413153  0.49821520  0.87031063  1
  V  V51  1  -0.02386851  0.74693086  0.24378626  1
  V  V52  1  0.50501666  0.26249079  0.74942700  1
  V  V53  1  -0.01884075  0.36287562  0.88633455  1
  V  V54  1  0.25976348  0.28878032  0.03454274  1
  V  V55  1  0.39701939  0.64147007  0.75810437  1
  V  V56  1  0.75429099  0.87013567  0.13457491  1
  V  V57  1  0.12301877  0.86902814  0.24449903  1
  V  V58  1  0.12478494  0.37008119  0.77630144  1
  V  V59  1  0.74293893  0.37095547  0.64512158  1
  V  V60  1  0.26212529  0.00395274  0.25758429  1
  V  V61  1  0.12756548  0.62858840  0.49502977  1
  V  V62  1  0.26736742  0.50494374  0.24713744  1
  V  V63  1  0.75232518  0.62150055  0.35662517  1
  V  V64  1  0.74798468  -0.00369125  0.75233233  1
  V  V65  1  0.49548302  0.22086374  0.25930076  1
  V  V66  1  0.87020413  0.86323145  0.00282404  1
  V  V67  1  0.37359417  0.12460571  0.74914610  1
  V  V68  1  0.64095635  0.62106824  0.50432812  1
  V  V69  1  0.58574419  0.83235783  0.33137000  1
  V  V70  1  0.88084794  0.74107901  0.63700131  1
  V  V71  1  0.25116877  0.86141204  0.11358885  1
  V  V72  1  0.87197317  0.25155720  0.62636376  1
  Zn  Zn73  1  -0.12215358  0.24724890  0.11673351  1
  Zn  Zn74  1  0.60922371  -0.01342320  0.61268214  1
  Zn  Zn75  1  0.01511030  0.64550034  0.65597427  1
  Zn  Zn76  1  0.62834890  0.50587749  0.12984325  1
  Zn  Zn77  1  0.49045872  0.12014375  0.61455455  1
  Zn  Zn78  1  0.75115878  0.75246085  0.49520296  1
  Zn  Zn79  1  0.63429720  0.25573787  0.37705604  1
  Zn  Zn80  1  0.13139869  0.50684033  0.63899816  1
  Zn  Zn81  1  0.12361545  0.74977224  0.37472545  1
  Zn  Zn82  1  0.19013555  0.18670271  0.19089868  1
  Zn  Zn83  1  0.18335516  0.19214219  0.69097016  1
  Zn  Zn84  1  0.18779088  0.68332873  0.18954827  1
  Zn  Zn85  1  0.19313641  0.68886501  0.68450556  1
  Zn  Zn86  1  0.64633735  0.22128849  0.14516789  1
  Zn  Zn87  1  0.68649536  0.18756985  0.68319679  1
  Zn  Zn88  1  0.67433914  0.70222170  0.18918942  1
  Zn  Zn89  1  0.68670724  0.68804428  0.68685916  1
  Zn  Zn90  1  0.33034549  0.32122878  0.20381422  1
  Zn  Zn91  1  0.31533678  0.31442820  0.81828514  1
  Zn  Zn92  1  0.29904410  0.83219223  0.33282203  1
  Zn  Zn93  1  0.31468175  0.81290602  0.81181005  1
  Zn  Zn94  1  0.81862513  0.30830949  0.30594865  1
  Zn  Zn95  1  0.80191692  0.30599698  0.82282788  1
  Zn  Zn96  1  0.78741771  0.82098196  0.32128011  1
  Zn  Zn97  1  0.81130001  0.80299057  0.81678878  1
  Zn  Zn98  1  0.19223896  0.44633257  0.43264734  1
  Zn  Zn99  1  0.19439006  0.44728979  0.95113186  1
  Zn  Zn100  1  0.17281763  0.94940829  0.43404360  1
  Zn  Zn101  1  0.18673591  0.93780562  0.93596728  1
  Zn  Zn102  1  0.68461061  0.44494664  0.43019507  1
  Zn  Zn103  1  0.68443715  0.44169274  0.93176236  1
  Zn  Zn104  1  0.69507602  0.94516561  0.43963267  1
  Zn  Zn105  1  0.68236476  0.93565104  0.93816552  1
  Zn  Zn106  1  0.30420997  0.06199118  0.06393203  1
  Zn  Zn107  1  0.30505231  0.06131336  0.56044672  1
  Zn  Zn108  1  0.32361461  0.56372533  0.06340833  1
  Zn  Zn109  1  0.31155280  0.56223503  0.55944854  1
  Zn  Zn110  1  0.82477413  0.07890324  0.04761111  1
  Zn  Zn111  1  0.80975840  0.05903655  0.56402726  1
  Zn  Zn112  1  0.80861195  0.55390437  0.06680370  1
  Zn  Zn113  1  0.81807884  0.55105313  0.57804894  1
  Zn  Zn114  1  0.44331946  0.46339681  0.18400171  1
  Zn  Zn115  1  0.43393053  0.44582192  0.68949360  1
  Zn  Zn116  1  0.43283237  0.94935636  0.17144520  1
  Zn  Zn117  1  0.42971835  0.93760977  0.68346709  1
  Zn  Zn118  1  0.94485897  0.43186649  0.17967183  1
  Zn  Zn119  1  0.96267140  0.48091598  0.73110517  1
  Zn  Zn120  1  0.93472753  0.94235852  0.18439668  1
  Zn  Zn121  1  0.93418279  0.93792131  0.69551487  1
  Zn  Zn122  1  0.06522359  0.05825455  0.31049982  1
  Zn  Zn123  1  0.05499892  0.05711535  0.81189317  1
  Zn  Zn124  1  0.05810637  0.56151130  0.31129128  1
  Zn  Zn125  1  0.08359274  0.55434568  0.82445719  1
  Zn  Zn126  1  0.57793404  0.03603951  0.30354664  1
  Zn  Zn127  1  0.55749199  0.05543174  0.79968238  1
  Zn  Zn128  1  0.56429674  0.56617818  0.31333500  1
  Zn  Zn129  1  0.56387904  0.56983465  0.81234958  1
  Zn  Zn130  1  0.44388812  0.19688229  0.44051625  1
  Zn  Zn131  1  0.42284747  0.19705936  0.93122965  1
  Zn  Zn132  1  0.45616402  0.69597511  0.42769792  1
  Zn  Zn133  1  0.44790575  0.68648887  0.93744917  1
  Zn  Zn134  1  0.94514066  0.19021076  0.43892190  1
  Zn  Zn135  1  0.93390892  0.18822511  0.94192437  1
  Zn  Zn136  1  0.93242365  0.68815995  0.43834250  1
  Zn  Zn137  1  0.93685689  0.68197380  0.93244651  1
  Zn  Zn138  1  0.07423638  0.30794047  0.05554816  1
  Zn  Zn139  1  0.05855786  0.31029863  0.57062057  1
  Zn  Zn140  1  0.05737044  0.80890336  0.06358743  1
  Zn  Zn141  1  0.06200079  0.81267125  0.56277549  1
  Zn  Zn142  1  0.50077322  0.32493678  0.09121753  1
  Zn  Zn143  1  0.56155075  0.30724280  0.55993989  1
  Zn  Zn144  1  0.57261638  0.82265909  0.06354114  1
  Zn  Zn145  1  0.56477893  0.80898193  0.55420243  1
  O  O146  1  0.12649768  0.10933979  0.12731989  1
  O  O147  1  0.11153726  0.12039402  0.62959324  1
  O  O148  1  0.11278357  0.63656343  0.11382994  1
  O  O149  1  0.12558326  0.62250271  0.61250260  1
  O  O150  1  0.61713135  0.12002325  0.10318433  1
  O  O151  1  0.62540318  0.12505978  0.60702848  1
  O  O152  1  0.62575822  0.62867507  0.11354806  1
  O  O153  1  0.63497997  0.60421654  0.61519968  1
  O  O154  1  0.38805006  0.37597771  0.39134777  1
  O  O155  1  0.37390365  0.39622778  0.86852504  1
  O  O156  1  0.36713298  0.85209649  0.42122330  1
  O  O157  1  0.36440243  0.88858237  0.88449889  1
  O  O158  1  0.88133191  0.38145729  0.38298148  1
  O  O159  1  0.88146043  0.36374375  0.88059738  1
  O  O160  1  0.87693639  0.88067616  0.38395320  1
  O  O161  1  0.88886207  0.87020139  0.87918065  1
  O  O162  1  0.24470938  -0.01243095  0.35740167  1
  O  O163  1  0.24937424  0.00570214  0.86304626  1
  O  O164  1  0.25048541  0.51981463  0.36786749  1
  O  O165  1  0.26415789  0.50964473  0.88090583  1
  O  O166  1  0.76973725  0.01102191  0.37607744  1
  O  O167  1  0.73877306  0.00769570  0.85727246  1
  O  O168  1  0.76630764  0.50550346  0.37375645  1
  O  O169  1  0.75633421  0.50413683  0.87381858  1
  O  O170  1  0.25884741  0.51450510  0.14718707  1
  O  O171  1  0.25008719  0.48479738  0.61994948  1
  O  O172  1  0.23649589  0.98881936  0.13274066  1
  O  O173  1  0.23609039  0.99313173  0.63387056  1
  O  O174  1  0.74269414  0.47518335  0.12155015  1
  O  O175  1  0.73809832  0.48009772  0.62156587  1
  O  O176  1  0.75139752  1.00605750  0.10384900  1
  O  O177  1  0.74560061  0.98855475  0.63288134  1
  O  O178  1  0.01075179  0.37004015  0.25959310  1
  O  O179  1  0.01021260  0.38158739  0.78036342  1
  O  O180  1  -0.00082982  0.86278615  0.25184136  1
  O  O181  1  0.00896459  0.88121362  0.76505885  1
  O  O182  1  0.50159845  0.38567733  0.26763423  1
  O  O183  1  0.49480269  0.36102012  0.74084892  1
  O  O184  1  0.45141385  0.82547616  0.23733615  1
  O  O185  1  0.50595132  0.87151740  0.74078307  1
  O  O186  1  0.50194648  0.12351889  0.28328291  1
  O  O187  1  0.48050831  0.13182678  0.74991503  1
  O  O188  1  0.51291072  0.62674384  0.23471106  1
  O  O189  1  0.49651333  0.62978282  0.73940514  1
  O  O190  1  1.00099140  0.14293893  0.26086842  1
  O  O191  1  0.97749441  0.11917160  0.74807843  1
  O  O192  1  1.00215796  0.63587384  0.23991013  1
  O  O193  1  1.00834751  0.58573756  0.74640234  1
  O  O194  1  0.34739439  0.25652382  -0.01020107  1
  O  O195  1  0.38274259  0.26710137  0.51069267  1
  O  O196  1  0.37452141  0.76401299  -0.01436621  1
  O  O197  1  0.41493911  0.73355237  0.54152160  1
  O  O198  1  0.85893553  0.19071104  0.02257042  1
  O  O199  1  0.88086506  0.26508542  0.50613945  1
  O  O200  1  0.88142759  0.76377203  -0.00256731  1
  O  O201  1  0.87356799  0.76147269  0.50970977  1
  O  O202  1  0.11365476  0.23716819  0.50255127  1
  O  O203  1  0.16457224  0.25962564  1.00694008  1
  O  O204  1  0.11399193  0.73200581  0.49810963  1
  O  O205  1  0.12262997  0.74250437  0.99214047  1
  O  O206  1  0.62197376  0.23278505  0.49196494  1
  O  O207  1  0.60345339  0.25371158  0.99083631  1
  O  O208  1  0.63303834  0.72552475  0.51433865  1
  O  O209  1  0.62713233  0.74318343  0.99183640  1
  O  O210  1  0.50991624  0.21935305  0.14552556  1
  O  O211  1  0.48730374  0.24403922  0.63154643  1
  O  O212  1  0.51183248  0.74245281  0.11913946  1
  O  O213  1  0.46960663  0.73778717  0.59567628  1
  O  O214  1  1.00273717  0.25700287  0.13802672  1
  O  O215  1  0.98166966  0.24373185  0.62954133  1
  O  O216  1  0.99375472  0.74213343  0.13643994  1
  O  O217  1  0.98781250  0.75214893  0.62609857  1
  O  O218  1  -0.00430560  0.26668020  0.36579040  1
  O  O219  1  0.00295501  0.26419457  0.89461073  1
  O  O220  1  -0.00361002  0.75565572  0.36152793  1
  O  O221  1  0.01180066  0.76225377  0.87805387  1
  O  O222  1  0.50432961  0.26489295  0.36998861  1
  O  O223  1  0.50300410  0.24786837  0.86001462  1
  O  O224  1  0.52778003  0.77186804  0.39177722  1
  O  O225  1  0.52138121  0.75345411  0.87581400  1
  O  O226  1  0.22873563  0.12727746  0.51039402  1
  O  O227  1  0.24502843  0.11717496  0.98177792  1
  O  O228  1  0.23621794  0.61828700  0.48882081  1
  O  O229  1  0.23653282  0.62220421  1.01304526  1
  O  O230  1  0.74983855  0.12471373  0.48928656  1
  O  O231  1  0.73386398  0.10996139  0.97538550  1
  O  O232  1  0.74567856  0.61374626  0.50095980  1
  O  O233  1  0.73990060  0.62352467  1.00719373  1
  O  O234  1  0.25757852  0.39051629  0.02645056  1
  O  O235  1  0.26638235  0.38366349  0.49987766  1
  O  O236  1  0.24877788  0.87288996  0.01016068  1
  O  O237  1  0.22882528  0.88106267  0.51096278  1
  O  O238  1  0.75276993  0.37133383  -0.00100563  1
  O  O239  1  0.76040479  0.37544236  0.48860833  1
  O  O240  1  0.76900227  0.88047044  -0.00505822  1
  O  O241  1  0.76154953  0.87525995  0.51461304  1
  O  O242  1  0.12771924  0.48836450  0.25572538  1
  O  O243  1  0.12943139  0.47629080  0.75012107  1
  O  O244  1  0.11833319  0.98545275  0.23583543  1
  O  O245  1  0.12830816  0.98861955  0.74347442  1
  O  O246  1  0.62251623  0.48540605  0.25099013  1
  O  O247  1  0.61623549  0.49802682  0.73506027  1
  O  O248  1  0.64302461  1.01238987  0.21579757  1
  O  O249  1  0.63328314  0.98405603  0.74265075  1
  O  O250  1  0.36195942  -0.01071773  0.25003941  1
  O  O251  1  0.36110558  0.00352537  0.75558923  1
  O  O252  1  0.36649576  0.49937071  0.26079997  1
  O  O253  1  0.38491580  0.51503682  0.76346290  1
  O  O254  1  0.89456866  0.01473150  0.26645161  1
  O  O255  1  0.85814155  0.01280764  0.74532866  1
  O  O256  1  0.88314375  0.49030551  0.26147675  1
  O  O257  1  0.85403976  0.50135657  0.73999973  1
  O  O258  1  0.11580207  0.37793072  0.37303261  1
  O  O259  1  0.13949537  0.37268254  0.87600304  1
  O  O260  1  0.11266997  0.87303513  0.36495197  1
  O  O261  1  0.12125663  0.86300578  0.86999983  1
  O  O262  1  0.61490383  0.37540938  0.36972657  1
  O  O263  1  0.62642382  0.35899642  0.87606921  1
  O  O264  1  0.67890043  0.85183815  0.37847704  1
  O  O265  1  0.62196146  0.87270911  0.85812705  1
  O  O266  1  0.39069021  0.11375704  0.11945690  1
  O  O267  1  0.36709078  0.13413902  0.63139392  1
  O  O268  1  0.39345011  0.63224781  0.12273704  1
  O  O269  1  0.34297407  0.62833013  0.65203186  1
  O  O270  1  0.88176552  0.11097422  0.14921746  1
  O  O271  1  0.87516361  0.13195500  0.62955092  1
  O  O272  1  0.88590839  0.62041676  0.12484494  1
  O  O273  1  0.87691480  0.63930279  0.62038655  1
  O  O274  1  0.26127721  0.25673510  0.13688266  1
  O  O275  1  0.26035855  0.26228377  0.62816829  1
  O  O276  1  0.25014743  0.76310407  0.13118273  1
  O  O277  1  0.24412336  0.77039285  0.62216121  1
  O  O278  1  0.74560559  0.27337360  0.12931719  1
  O  O279  1  0.75567016  0.26152662  0.62429806  1
  O  O280  1  0.74930121  0.76990950  0.13071004  1
  O  O281  1  0.76183275  0.75900715  0.62446094  1
  O  O282  1  0.28973972  0.18753896  0.37055176  1
  O  O283  1  0.25099293  0.23181803  0.86202075  1
  O  O284  1  0.24152043  0.73471055  0.36792476  1
  O  O285  1  0.23705846  0.75393814  0.87624455  1
  O  O286  1  0.75501983  0.23652912  0.37422900  1
  O  O287  1  0.72485920  0.23506118  0.87046166  1
  O  O288  1  0.76956279  0.72244900  0.38215557  1
  O  O289  1  0.72845476  0.75970668  0.87327121  1
  O  O290  1  0.00620640  0.10607674  -0.01560738  1
  O  O291  1  0.00236253  0.12614169  0.51797649  1
  O  O292  1  0.00183385  0.61851479  0.01075781  1
  O  O293  1  0.00304809  0.60906146  0.50039169  1
  O  O294  1  0.48871937  0.12697259  -0.00411939  1
  O  O295  1  0.51128646  0.12090885  0.49204750  1
  O  O296  1  0.51358919  0.62308701  0.00914839  1
  O  O297  1  0.51642838  0.60949269  0.49037866  1
  O  O298  1  0.49764557  0.38288570  0.49282236  1
  O  O299  1  0.50969464  0.40004952  1.00518666  1
  O  O300  1  0.49917499  0.89191165  0.51430043  1
  O  O301  1  0.48404937  0.87540673  1.00790142  1
  O  O302  1  0.99875676  0.38096038  0.48906556  1
  O  O303  1  1.00869800  0.38679890  0.99646395  1
  O  O304  1  0.99324402  0.86685854  0.48726955  1
  O  O305  1  0.99365090  0.87687279  0.99120508  1
  O  O306  1  0.50702673  0.49073519  0.38954956  1
  O  O307  1  0.50269556  0.50563216  0.88555180  1
  O  O308  1  0.54327328  0.92673764  0.32006509  1
  O  O309  1  0.47936995  1.00261645  0.86700631  1
  O  O310  1  0.99036681  0.48907832  0.38206704  1
  O  O311  1  1.00284897  0.49039414  0.89148749  1
  O  O312  1  0.99472047  0.98211526  0.37263021  1
  O  O313  1  1.01452794  0.97993564  0.88804895  1
  O  O314  1  0.01253676  -0.00745265  0.11196599  1
  O  O315  1  0.00438284  0.00987927  0.63662485  1
  O  O316  1  0.00284350  0.51301338  0.11934532  1
  O  O317  1  0.00426746  0.48541561  0.61116459  1
  O  O318  1  0.51144729  0.01385467  0.12519788  1
  O  O319  1  0.50252870  0.01162336  0.64124671  1
  O  O320  1  0.51010427  0.51906309  0.11228062  1
  O  O321  1  0.51505424  0.48886067  0.61196973  1
  O  O322  1  0.24248780  0.38887225  0.25308549  1
  O  O323  1  0.24427089  0.37373361  0.73973240  1
  O  O324  1  0.24013334  0.88029149  0.24120559  1
  O  O325  1  0.24050048  0.88173578  0.74199573  1
  O  O326  1  0.73397947  0.36945475  0.25807828  1
  O  O327  1  0.74440139  0.36913400  0.74330179  1
  O  O328  1  0.77076371  0.89002462  0.23242780  1
  O  O329  1  0.75532117  0.88577091  0.74386691  1
  O  O330  1  0.24378045  0.10329366  0.24628785  1
  O  O331  1  0.25424987  0.11567566  0.74936398  1
  O  O332  1  0.24810811  0.61833951  0.26322469  1
  O  O333  1  0.28288306  0.61995039  0.71389363  1
  O  O334  1  0.77382276  0.12641541  0.26755443  1
  O  O335  1  0.74975765  0.11267663  0.74845693  1
  O  O336  1  0.73842984  0.62774568  0.25896170  1
  O  O337  1  0.74157293  0.62023325  0.75517305  1
  O  O338  1  0.34566926  0.14144970  0.38424354  1
  O  O339  1  0.35995858  0.11330333  0.86481646  1
  O  O340  1  0.36705549  0.63892534  0.38634218  1
  O  O341  1  0.38478182  0.62217302  0.86296719  1
  O  O342  1  0.87560440  0.11960975  0.37877963  1
  O  O343  1  0.85537926  0.13380570  0.86033564  1
  O  O344  1  0.87144848  0.60675251  0.37589423  1
  O  O345  1  0.87383277  0.62472920  0.86123559  1
  O  O346  1  0.12142964  0.38083121  0.13873681  1
  O  O347  1  0.14146256  0.37545754  0.61680696  1
  O  O348  1  0.13275017  0.87512270  0.12845001  1
  O  O349  1  0.12524427  0.88121309  0.63286169  1
  O  O350  1  0.61336279  0.36814280  0.14434747  1
  O  O351  1  0.63627078  0.37735009  0.61924834  1
  O  O352  1  0.64945831  0.88962177  0.11679745  1
  O  O353  1  0.63520727  0.86699756  0.63356697  1
  O  O354  1  0.11790643  0.26284467  0.24914067  1
  O  O355  1  0.12238181  0.27344290  0.74224995  1
  O  O356  1  0.11709750  0.76106692  0.24912043  1
  O  O357  1  0.12913813  0.75579425  0.75922252  1
  O  O358  1  0.60632293  0.26157626  0.25776391  1
  O  O359  1  0.60555554  0.24380931  0.74346695  1
  O  O360  1  0.61593851  0.77962576  0.25017454  1
  O  O361  1  0.62454055  0.76119679  0.75218433  1
  O  O362  1  0.39758221  0.24476184  0.25943624  1
  O  O363  1  0.38004285  0.24429243  0.74330127  1
  O  O364  1  0.39548972  0.78065621  0.25897053  1
  O  O365  1  0.38206308  0.74294862  0.75741579  1
  O  O366  1  0.89011137  0.24099195  0.24493879  1
  O  O367  1  0.86001457  0.23550123  0.74080576  1
  O  O368  1  0.87917718  0.75213119  0.25323233  1
  O  O369  1  0.87395043  0.75440741  0.73602616  1
  O  O370  1  0.39269723  0.49239250  0.51115326  1
  O  O371  1  0.39108713  0.51440598  0.98434604  1
  O  O372  1  0.37617962  1.00480262  0.49117326  1
  O  O373  1  0.36754219  0.99569855  0.98553968  1
  O  O374  1  0.88613464  0.48515648  0.49977231  1
  O  O375  1  0.89201452  0.50151947  1.00401942  1
  O  O376  1  0.87670926  0.98758919  0.49646141  1
  O  O377  1  0.89503062  0.99231315  0.99891472  1
  O  O378  1  0.11908458  -0.00825815  0.01269300  1
  O  O379  1  0.11888931  0.01000649  0.51727311  1
  O  O380  1  0.11503159  0.51948541  -0.00221720  1
  O  O381  1  0.11281960  0.50716869  0.49861998  1
  O  O382  1  0.61697802  -0.01130768  0.01101102  1
  O  O383  1  0.63148322  0.01464684  0.49937927  1
  O  O384  1  0.61994359  0.51754398  -0.00400544  1
  O  O385  1  0.61947587  0.50303911  0.50769348  1
  O  O386  1  0.40449390  0.36956325  0.13432122  1
  O  O387  1  0.36514002  0.37248131  0.61952227  1
  O  O388  1  0.36046259  0.88224187  0.10750032  1
  O  O389  1  0.35707649  0.88621580  0.60476615  1
  O  O390  1  0.87026691  0.36889731  0.11836305  1
  O  O391  1  0.85645889  0.36885313  0.61186612  1
  O  O392  1  0.86974909  0.88157026  0.10994548  1
  O  O393  1  0.87299658  0.87027707  0.62167524  1
  O  O394  1  0.11541789  0.11587278  0.39453132  1
  O  O395  1  0.13380455  0.12173111  0.86083844  1
  O  O396  1  0.11960556  0.62458923  0.38763998  1
  O  O397  1  0.12415987  0.63809975  0.88930435  1
  O  O398  1  0.64436743  0.11617439  0.37868652  1
  O  O399  1  0.62235350  0.12831267  0.86415633  1
  O  O400  1  0.64525840  0.61071901  0.38887158  1
  O  O401  1  0.62609214  0.63597282  0.88615306  1
