# generated using pymatgen
data_V73Zn73O256
_symmetry_space_group_name_H-M   'P 1'
_cell_length_a   16.88614938
_cell_length_b   16.86339702
_cell_length_c   16.87816978
_cell_angle_alpha   89.99873070
_cell_angle_beta   90.06296787
_cell_angle_gamma   90.12973761
_symmetry_Int_Tables_number   1
_chemical_formula_structural   V73Zn73O256
_chemical_formula_sum   'V73 Zn73 O256'
_cell_volume   4806.17596235
_cell_formula_units_Z   1
loop_
 _symmetry_equiv_pos_site_id
 _symmetry_equiv_pos_as_xyz
  1  'x, y, z'
loop_
 _atom_site_type_symbol
 _atom_site_label
 _atom_site_symmetry_multiplicity
 _atom_site_fract_x
 _atom_site_fract_y
 _atom_site_fract_z
 _atom_site_occupancy
  V  V0  1  0.88256041  0.87526712  0.48804670  1
  V  V1  1  0.26636771  0.51042806  0.25260590  1
  V  V2  1  0.87956231  0.74442753  0.63015190  1
  V  V3  1  0.36916311  -0.00088718  0.87537276  1
  V  V4  1  0.50385103  0.00031776  0.01626509  1
  V  V5  1  0.74651123  0.74534331  0.50041612  1
  V  V6  1  0.61979054  -0.00462162  0.63481602  1
  V  V7  1  0.87403209  0.11568301  0.26141313  1
  V  V8  1  0.12885963  0.13433827  0.00481295  1
  V  V9  1  0.24840598  0.62464074  0.87739866  1
  V  V10  1  0.76039532  0.61394750  0.87522861  1
  V  V11  1  -0.00561830  0.74968646  0.23555780  1
  V  V12  1  0.49598740  0.74978237  0.25148056  1
  V  V13  1  0.76606625  -0.00043375  0.75369685  1
  V  V14  1  0.37339231  0.62810506  0.75020503  1
  V  V15  1  0.50160812  0.15303078  0.13106292  1
  V  V16  1  0.38624108  0.49463256  0.88363936  1
  V  V17  1  0.35446333  -0.00640925  0.36991233  1
  V  V18  1  -0.06421511  0.42599313  0.45440949  1
  V  V19  1  0.12360849  0.38076179  0.25088101  1
  V  V20  1  0.37063373  0.25549453  0.60448810  1
  V  V21  1  0.13917305  0.12840215  0.49277370  1
  V  V22  1  0.00238803  0.25207568  0.25468952  1
  V  V23  1  -0.00997174  0.87761369  0.87727700  1
  V  V24  1  0.12397998  0.87903722  0.75084836  1
  V  V25  1  0.49182054  -0.01510315  0.49394404  1
  V  V26  1  0.10949688  0.74682964  0.37960868  1
  V  V27  1  0.61821933  0.12660822  0.49193230  1
  V  V28  1  0.63501180  0.88477849  0.23592002  1
  V  V29  1  0.88031795  0.62182862  0.23825132  1
  V  V30  1  0.49681685  0.35663215  0.36084954  1
  V  V31  1  0.60504975  0.36376339  0.75612914  1
  V  V32  1  0.37457260  0.13917073  0.75476555  1
  V  V33  1  0.14189681  0.24936283  0.37624295  1
  V  V34  1  0.00736641  0.52261186  -0.01606294  1
  V  V35  1  0.00005120  -0.00974220  0.00399413  1
  V  V36  1  0.13654046  0.87414529  0.25422147  1
  V  V37  1  0.37366714  0.74289940  0.12675712  1
  V  V38  1  0.14473679  -0.00680711  0.13002130  1
  V  V39  1  -0.00229589  0.12400419  0.12223308  1
  V  V40  1  0.11002273  0.51465711  0.12537241  1
  V  V41  1  0.24253619  0.37468379  0.60724994  1
  V  V42  1  0.12482173  0.38184112  0.76141884  1
  V  V43  1  0.24659580  0.74992818  0.00494681  1
  V  V44  1  -0.00233467  0.74089516  0.74883974  1
  V  V45  1  0.74801791  0.37914291  0.11907996  1
  V  V46  1  0.51219386  0.75531877  0.75421497  1
  V  V47  1  0.76329358  0.75229600  0.00644742  1
  V  V48  1  0.89532260  0.39051191  -0.01347871  1
  V  V49  1  0.51640174  0.61962819  0.11362996  1
  V  V50  1  0.25319659  0.87366629  0.62139857  1
  V  V51  1  0.49622726  0.13052349  0.63132973  1
  V  V52  1  0.73935978  0.50668553  0.23366763  1
  V  V53  1  0.36806593  0.87436120  0.00762650  1
  V  V54  1  0.25707010  0.75075328  0.49718436  1
  V  V55  1  0.00928964  0.25064152  0.76106410  1
  V  V56  1  0.75695790  0.36898015  0.63241398  1
  V  V57  1  -0.00326035  0.00558895  0.48258637  1
  V  V58  1  0.26230110  0.37898627  0.12372722  1
  V  V59  1  0.63567908  0.49854009  0.62699771  1
  V  V60  1  0.87676411  0.23293881  0.62196018  1
  V  V61  1  0.73715246  0.24945773  0.49881969  1
  V  V62  1  0.74536658  0.87441575  0.62813180  1
  V  V63  1  0.12453085  0.74449470  0.87740732  1
  V  V64  1  0.23874924  0.13238053  0.87618757  1
  V  V65  1  0.62378657  0.75686226  0.37577752  1
  V  V66  1  0.88253839  0.27043841  0.12396041  1
  V  V67  1  0.74925858  0.61709917  0.37912689  1
  V  V68  1  0.26201407  0.26441267  -0.00191040  1
  V  V69  1  0.12209025  0.00177891  0.62433042  1
  V  V70  1  0.50952404  0.87467705  0.87362312  1
  V  V71  1  0.11016596  0.61558684  0.51349778  1
  V  V72  1  0.50340176  0.61989392  0.62122658  1
  Zn  Zn73  1  0.38602049  0.11293231  0.25027598  1
  Zn  Zn74  1  0.82868595  0.16193786  0.79184177  1
  Zn  Zn75  1  0.23997850  0.50288640  0.74164091  1
  Zn  Zn76  1  -0.00388855  0.12093500  0.62410031  1
  Zn  Zn77  1  0.24658271  0.00517916  0.74814043  1
  Zn  Zn78  1  0.82880739  0.05451980  0.93399651  1
  Zn  Zn79  1  0.25433151  0.61684708  0.38000537  1
  Zn  Zn80  1  0.37867131  0.75633652  0.62410940  1
  Zn  Zn81  1  0.49116964  0.49114552  0.48588450  1
  Zn  Zn82  1  0.18948879  0.19409726  0.17998978  1
  Zn  Zn83  1  0.18581135  0.19282554  0.68392533  1
  Zn  Zn84  1  0.19000675  0.68800762  0.19266956  1
  Zn  Zn85  1  0.18246879  0.68710977  0.68772602  1
  Zn  Zn86  1  0.68463813  0.19165410  0.20808836  1
  Zn  Zn87  1  0.67938289  0.18470062  0.68939132  1
  Zn  Zn88  1  0.68849181  0.69461084  0.18573767  1
  Zn  Zn89  1  0.69011129  0.68480166  0.69534442  1
  Zn  Zn90  1  0.31732579  0.32321078  0.31861260  1
  Zn  Zn91  1  0.30502736  0.31944277  0.81195770  1
  Zn  Zn92  1  0.31645899  0.81542904  0.31925995  1
  Zn  Zn93  1  0.31267439  0.81297910  0.81184302  1
  Zn  Zn94  1  0.77615465  0.32409801  0.32134445  1
  Zn  Zn95  1  0.81972675  0.32956409  0.80521690  1
  Zn  Zn96  1  0.81139991  0.81048403  0.30771850  1
  Zn  Zn97  1  0.80329920  0.81131430  0.81703806  1
  Zn  Zn98  1  0.18570121  0.43732641  0.43418108  1
  Zn  Zn99  1  0.18363018  0.44752880  0.93739067  1
  Zn  Zn100  1  0.18379903  0.93417264  0.43685903  1
  Zn  Zn101  1  0.18382309  0.93742819  0.93811742  1
  Zn  Zn102  1  0.67907943  0.44107034  0.44654835  1
  Zn  Zn103  1  0.71039991  0.41449223  0.92344604  1
  Zn  Zn104  1  0.68368877  0.93788306  0.43537474  1
  Zn  Zn105  1  0.70239183  0.95734863  0.96317773  1
  Zn  Zn106  1  0.31886437  0.06760562  0.06761716  1
  Zn  Zn107  1  0.31598618  0.06170896  0.56174413  1
  Zn  Zn108  1  0.31340795  0.56270715  0.06326854  1
  Zn  Zn109  1  0.30793915  0.56549958  0.56355115  1
  Zn  Zn110  1  0.77424462  0.07545289  0.11405368  1
  Zn  Zn111  1  0.79663675  0.04996865  0.53561476  1
  Zn  Zn112  1  0.81564339  0.56801520  0.05539175  1
  Zn  Zn113  1  0.85198690  0.53339916  0.60645047  1
  Zn  Zn114  1  0.45218104  0.43772592  0.19083798  1
  Zn  Zn115  1  0.43010104  0.43717877  0.69262148  1
  Zn  Zn116  1  0.43815055  0.92824558  0.19768045  1
  Zn  Zn117  1  0.43494063  0.94277765  0.69108595  1
  Zn  Zn118  1  0.92444229  0.43002293  0.28956208  1
  Zn  Zn119  1  0.97363505  0.43120232  0.65508161  1
  Zn  Zn120  1  0.95621655  0.94148883  0.20094879  1
  Zn  Zn121  1  0.93721091  0.93040281  0.68027209  1
  Zn  Zn122  1  0.06851687  0.06577953  0.30963125  1
  Zn  Zn123  1  0.01162252  0.08327054  0.83323840  1
  Zn  Zn124  1  0.05664242  0.56016349  0.32564541  1
  Zn  Zn125  1  -0.06732875  0.55049592  0.79846546  1
  Zn  Zn126  1  0.55839611  0.06118457  0.30999053  1
  Zn  Zn127  1  0.55959536  0.06082043  0.81443154  1
  Zn  Zn128  1  0.56317532  0.56811613  0.30735607  1
  Zn  Zn129  1  0.57087824  0.55848742  0.81208349  1
  Zn  Zn130  1  0.43633749  0.18022317  0.43064761  1
  Zn  Zn131  1  0.41989514  0.17134902  0.96318951  1
  Zn  Zn132  1  0.44062216  0.68907349  0.43875942  1
  Zn  Zn133  1  0.43919066  0.68605912  0.93693549  1
  Zn  Zn134  1  0.93184750  0.21125783  0.43743964  1
  Zn  Zn135  1  0.90012305  0.21495985  0.92247391  1
  Zn  Zn136  1  0.92886593  0.67779492  0.43842423  1
  Zn  Zn137  1  0.92999529  0.69179618  0.93470752  1
  Zn  Zn138  1  0.06541094  0.32190343  0.06322077  1
  Zn  Zn139  1  0.05322820  0.32297901  0.54793587  1
  Zn  Zn140  1  0.06606689  0.80900175  0.06546408  1
  Zn  Zn141  1  0.06137478  0.81308493  0.56095788  1
  Zn  Zn142  1  0.60253928  0.26183809  0.06561539  1
  Zn  Zn143  1  0.55684099  0.31903020  0.56058349  1
  Zn  Zn144  1  0.57102423  0.80600450  0.06147750  1
  Zn  Zn145  1  0.56255997  0.80758791  0.56417761  1
  O  O146  1  0.12268970  0.11495594  0.12617473  1
  O  O147  1  0.12422335  0.11963959  0.60931211  1
  O  O148  1  0.12885885  0.61327041  0.13200504  1
  O  O149  1  0.12011828  0.62844479  0.61377847  1
  O  O150  1  0.61580203  0.15751581  0.12317787  1
  O  O151  1  0.60802022  0.11545176  0.62664715  1
  O  O152  1  0.61627752  0.62955709  0.12426928  1
  O  O153  1  0.61321361  0.61195905  0.63895941  1
  O  O154  1  0.39347424  0.38028702  0.37310487  1
  O  O155  1  0.36943248  0.39591900  0.86553465  1
  O  O156  1  0.37225468  0.89165276  0.38047635  1
  O  O157  1  0.37337245  0.88544484  0.88268983  1
  O  O158  1  0.86192266  0.38094844  0.37394186  1
  O  O159  1  0.88073992  0.38851433  0.88782491  1
  O  O160  1  0.87145235  0.86899367  0.38980709  1
  O  O161  1  0.89158082  0.87673505  0.86715530  1
  O  O162  1  0.25366478  0.00101334  0.37809270  1
  O  O163  1  0.25576237  0.01113949  0.87845897  1
  O  O164  1  0.24454239  0.49635428  0.35472934  1
  O  O165  1  0.25210955  0.51554752  0.87067659  1
  O  O166  1  0.76048052  0.01575033  0.42886541  1
  O  O167  1  0.75408379  -0.00821531  0.85627326  1
  O  O168  1  0.74010169  0.51413113  0.36805023  1
  O  O169  1  0.75465822  0.51370339  0.89367248  1
  O  O170  1  0.24287113  0.49475555  0.13280007  1
  O  O171  1  0.26204885  0.48098661  0.62556707  1
  O  O172  1  0.24331846  1.00661071  0.13116225  1
  O  O173  1  0.23788777  0.99324975  0.62107235  1
  O  O174  1  0.75201188  0.49620645  0.12588103  1
  O  O175  1  0.74016063  0.48721529  0.61985046  1
  O  O176  1  0.80184747  0.92655052  0.12158747  1
  O  O177  1  0.74032348  0.99049224  0.62809788  1
  O  O178  1  0.00874847  0.36029290  0.24798882  1
  O  O179  1  0.01433964  0.36015684  0.73721071  1
  O  O180  1  0.01296967  0.85657118  0.24772387  1
  O  O181  1  0.00915902  0.87299479  0.75668330  1
  O  O182  1  0.49924274  0.36349582  0.25677476  1
  O  O183  1  0.50426671  0.37169268  0.74915770  1
  O  O184  1  0.51416192  0.85637877  0.24765426  1
  O  O185  1  0.48920806  0.86603239  0.76068812  1
  O  O186  1  0.50604239  0.13164714  0.23524544  1
  O  O187  1  0.48626670  0.11843286  0.74250802  1
  O  O188  1  0.50652835  0.64356388  0.23871972  1
  O  O189  1  0.49352341  0.64012721  0.74653101  1
  O  O190  1  0.99819969  0.13076760  0.24009951  1
  O  O191  1  1.01066441  0.14313689  0.73884050  1
  O  O192  1  0.98795365  0.63398101  0.26030023  1
  O  O193  1  1.00153583  0.64335439  0.75412103  1
  O  O194  1  0.36224851  0.26187663  -0.00449119  1
  O  O195  1  0.37015667  0.24191252  0.50673818  1
  O  O196  1  0.36679410  0.75712195  0.00531341  1
  O  O197  1  0.36018938  0.74875946  0.50144796  1
  O  O198  1  0.89775327  0.27481939  0.01692443  1
  O  O199  1  0.84846565  0.23625962  0.51541351  1
  O  O200  1  0.86631378  0.75936431  -0.00193338  1
  O  O201  1  0.87129700  0.75958470  0.50774662  1
  O  O202  1  0.11877979  0.23749486  0.48559394  1
  O  O203  1  0.13026067  0.23839450  1.00962661  1
  O  O204  1  0.12527936  0.74630334  0.48943496  1
  O  O205  1  0.13586025  0.75869069  0.99013991  1
  O  O206  1  0.62330828  0.23601058  0.51058464  1
  O  O207  1  0.63997937  0.24139561  0.95458120  1
  O  O208  1  0.63280746  0.75310830  0.48833859  1
  O  O209  1  0.64315671  0.76307531  0.98644189  1
  O  O210  1  0.49115003  0.25070710  0.10997688  1
  O  O211  1  0.48392768  0.23890725  0.62071739  1
  O  O212  1  0.49455478  0.74527889  0.13263854  1
  O  O213  1  0.49776105  0.74625430  0.63856318  1
  O  O214  1  1.00489703  0.24340312  0.13333897  1
  O  O215  1  0.98239506  0.24672092  0.61406458  1
  O  O216  1  1.00753262  0.74261498  0.13692916  1
  O  O217  1  0.98724011  0.75962713  0.63217126  1
  O  O218  1  0.01415883  0.23441029  0.35408182  1
  O  O219  1  -0.00295021  0.25018540  0.85957107  1
  O  O220  1  0.00889726  0.74742555  0.37252520  1
  O  O221  1  0.00732537  0.75975437  0.86905651  1
  O  O222  1  0.50026187  0.25575976  0.37702823  1
  O  O223  1  0.59205613  0.19757490  0.90787589  1
  O  O224  1  0.51158076  0.74021757  0.36505407  1
  O  O225  1  0.49488385  0.76287355  0.86576209  1
  O  O226  1  0.23709236  0.12316452  0.50093493  1
  O  O227  1  0.24970928  0.14009051  0.99825418  1
  O  O228  1  0.23612895  0.64168015  0.50361303  1
  O  O229  1  0.25471286  0.63823891  0.98852994  1
  O  O230  1  0.72337155  0.13654787  0.52130373  1
  O  O231  1  0.74943140  0.05362019  1.01182504  1
  O  O232  1  0.75464646  0.63704089  0.48559627  1
  O  O233  1  0.75667395  0.63747131  0.98741291  1
  O  O234  1  0.24207832  0.37167311  0.00856715  1
  O  O235  1  0.24885377  0.37577851  0.50715146  1
  O  O236  1  0.25849593  0.86572877  -0.00508414  1
  O  O237  1  0.23735826  0.86066045  0.50900794  1
  O  O238  1  0.77842469  0.38698159  0.01413256  1
  O  O239  1  0.73010076  0.35767450  0.51618010  1
  O  O240  1  0.73765720  0.85468192  -0.01503976  1
  O  O241  1  0.75919730  0.86290427  0.50733218  1
  O  O242  1  0.12146795  0.49412984  0.24482882  1
  O  O243  1  0.11991041  0.47973199  0.73738925  1
  O  O244  1  0.12277485  0.98562190  0.24388299  1
  O  O245  1  0.12513210  0.99133035  0.73837763  1
  O  O246  1  0.64147676  0.50934254  0.24050192  1
  O  O247  1  0.61343068  0.48600924  0.73201968  1
  O  O248  1  0.61918604  0.98365231  0.25489148  1
  O  O249  1  0.62526550  0.99939756  0.73860516  1
  O  O250  1  0.37312271  -0.00608222  0.26204823  1
  O  O251  1  0.36709486  0.01061227  0.76116143  1
  O  O252  1  0.36362778  0.49943807  0.24467677  1
  O  O253  1  0.37083002  0.51688133  0.75774351  1
  O  O254  1  0.89303533  0.01642821  0.25554713  1
  O  O255  1  0.86594073  -0.00051730  0.74017046  1
  O  O256  1  0.86515999  0.51807467  0.25095782  1
  O  O257  1  0.90206374  0.50007744  0.70427685  1
  O  O258  1  0.12787998  0.36062712  0.36399195  1
  O  O259  1  0.13061030  0.37930837  0.86212372  1
  O  O260  1  0.12716409  0.86092732  0.36435921  1
  O  O261  1  0.12268921  0.86774865  0.86540150  1
  O  O262  1  0.60586769  0.39164627  0.37523208  1
  O  O263  1  0.63034582  0.38056982  0.85552762  1
  O  O264  1  0.62665265  0.86119941  0.37244778  1
  O  O265  1  0.60468328  0.88611954  0.87210521  1
  O  O266  1  0.39482149  0.12326426  0.12964250  1
  O  O267  1  0.37442714  0.13461523  0.63466754  1
  O  O268  1  0.38104592  0.63988761  0.12138912  1
  O  O269  1  0.38404967  0.62972178  0.63411341  1
  O  O270  1  0.89246190  0.13555912  0.12074190  1
  O  O271  1  0.87130687  0.13047047  0.62304501  1
  O  O272  1  0.87353986  0.62751604  0.13956957  1
  O  O273  1  0.86913716  0.64686279  0.61702614  1
  O  O274  1  0.24698660  0.26844360  0.11075516  1
  O  O275  1  0.26359877  0.25701257  0.62579501  1
  O  O276  1  0.25648873  0.74410078  0.11478131  1
  O  O277  1  0.24700932  0.75762542  0.61455999  1
  O  O278  1  0.77596882  0.26742500  0.12848674  1
  O  O279  1  0.75518031  0.25459570  0.62928727  1
  O  O280  1  0.75133083  0.74505190  0.10815623  1
  O  O281  1  0.75409790  0.75447343  0.62065148  1
  O  O282  1  0.23986629  0.25453689  0.37819222  1
  O  O283  1  0.24811411  0.24544500  0.88880355  1
  O  O284  1  0.24597036  0.74764846  0.38788964  1
  O  O285  1  0.24418611  0.74629847  0.88159872  1
  O  O286  1  0.74916848  0.24340816  0.40173484  1
  O  O287  1  0.79804889  0.24034046  0.87118837  1
  O  O288  1  0.74034078  0.74757830  0.38164285  1
  O  O289  1  0.75984686  0.73441226  0.88363297  1
  O  O290  1  0.01677807  0.10957295  0.00843314  1
  O  O291  1  0.00104956  0.11248106  0.49787518  1
  O  O292  1  -0.00107978  0.62171013  -0.00281676  1
  O  O293  1  0.00973788  0.62573654  0.49615723  1
  O  O294  1  0.49843583  0.11211788  0.01554803  1
  O  O295  1  0.50503209  0.11767917  0.51245813  1
  O  O296  1  0.50312760  0.63591846  0.01304776  1
  O  O297  1  0.50444283  0.64049162  0.52265905  1
  O  O298  1  0.49722475  0.37635808  0.48612648  1
  O  O299  1  0.52483269  0.39627943  0.99850352  1
  O  O300  1  0.49778631  0.88585260  0.51140506  1
  O  O301  1  0.48724589  0.87943905  0.98804162  1
  O  O302  1  0.96865512  0.32240851  0.46322013  1
  O  O303  1  0.99973156  0.39008403  0.99910350  1
  O  O304  1  0.99066881  0.88359317  0.49978662  1
  O  O305  1  1.01336824  0.88316689  0.99484498  1
  O  O306  1  0.51767656  0.48852430  0.37142712  1
  O  O307  1  0.48547478  0.51292934  0.87126226  1
  O  O308  1  0.50696426  0.99486781  0.39422464  1
  O  O309  1  0.48591046  0.99304770  0.87921180  1
  O  O310  1  0.99018726  0.48157044  0.38010830  1
  O  O311  1  1.00442678  0.51111791  0.88494820  1
  O  O312  1  1.00662501  1.00002962  0.38401145  1
  O  O313  1  1.01959339  0.98960799  0.89472571  1
  O  O314  1  0.01529477  0.00416748  0.11946679  1
  O  O315  1  0.01215481  -0.00144293  0.61698152  1
  O  O316  1  0.01202784  0.50672739  0.12215813  1
  O  O317  1  0.00400073  0.43281143  0.54592110  1
  O  O318  1  0.49611339  -0.01063263  0.11548105  1
  O  O319  1  0.49948876  0.00715920  0.62033719  1
  O  O320  1  0.49530312  0.52097892  0.12961552  1
  O  O321  1  0.49126529  0.51458191  0.62148311  1
  O  O322  1  0.24334053  0.38480934  0.23875742  1
  O  O323  1  0.23584865  0.37419827  0.73955675  1
  O  O324  1  0.23479714  0.86045948  0.24837495  1
  O  O325  1  0.23794595  0.87550101  0.74257032  1
  O  O326  1  0.76184304  0.39895912  0.23124869  1
  O  O327  1  0.74333565  0.37629837  0.73526288  1
  O  O328  1  0.73583949  0.87208654  0.25359296  1
  O  O329  1  0.75441595  0.88325219  0.73710613  1
  O  O330  1  0.27873217  0.17185721  0.25127813  1
  O  O331  1  0.25295753  0.12765163  0.76118635  1
  O  O332  1  0.25382341  0.61557282  0.25575842  1
  O  O333  1  0.25547197  0.62775666  0.75650134  1
  O  O334  1  0.77290209  0.11433325  0.21999648  1
  O  O335  1  0.74599018  0.10450287  0.74017392  1
  O  O336  1  0.75836308  0.62100403  0.25227321  1
  O  O337  1  0.75105699  0.62098482  0.76382168  1
  O  O338  1  0.38602831  0.10133684  0.36860708  1
  O  O339  1  0.36545633  0.11985339  0.87402609  1
  O  O340  1  0.37368460  0.59790374  0.40908517  1
  O  O341  1  0.36528318  0.62530480  0.86803139  1
  O  O342  1  0.87516659  0.14084147  0.35765343  1
  O  O343  1  0.90169894  0.11094435  0.87088021  1
  O  O344  1  0.85496921  0.63617669  0.36232082  1
  O  O345  1  0.86998765  0.62090809  0.86513073  1
  O  O346  1  0.13159889  0.38639898  0.13612935  1
  O  O347  1  0.14083848  0.35968731  0.61991914  1
  O  O348  1  0.12792149  0.88588719  0.13502148  1
  O  O349  1  0.12970697  0.88129980  0.63050811  1
  O  O350  1  0.65149872  0.35880164  0.10684469  1
  O  O351  1  0.62768472  0.38104718  0.63432201  1
  O  O352  1  0.62620160  0.87440584  0.13546502  1
  O  O353  1  0.63563947  0.88144946  0.61719141  1
  O  O354  1  0.12239768  0.25554473  0.25522012  1
  O  O355  1  0.11643986  0.25770149  0.74771905  1
  O  O356  1  0.11728051  0.75294976  0.25976480  1
  O  O357  1  0.11722505  0.76074774  0.75477988  1
  O  O358  1  0.68215196  0.27416275  0.27926395  1
  O  O359  1  0.62093534  0.26320478  0.74418180  1
  O  O360  1  0.62084605  0.75897266  0.26000177  1
  O  O361  1  0.61042082  0.75567347  0.74629776  1
  O  O362  1  0.33563463  0.23356731  0.24426284  1
  O  O363  1  0.37224464  0.24009999  0.75679207  1
  O  O364  1  0.38770035  0.75803484  0.24506303  1
  O  O365  1  0.37880652  0.74180785  0.74871100  1
  O  O366  1  0.89368260  0.24244916  0.23769341  1
  O  O367  1  0.88941656  0.25205163  0.73430147  1
  O  O368  1  0.88879104  0.74633828  0.25017463  1
  O  O369  1  0.88085503  0.75980515  0.73590704  1
  O  O370  1  0.37921669  0.54045099  0.47287547  1
  O  O371  1  0.36914833  0.50539905  0.98347700  1
  O  O372  1  0.38532982  1.00451096  0.49177298  1
  O  O373  1  0.37879515  0.99411556  0.99446352  1
  O  O374  1  0.86707036  0.48541894  0.50165413  1
  O  O375  1  0.89691524  0.49679338  1.00952518  1
  O  O376  1  0.89070629  0.98782615  0.50578794  1
  O  O377  1  0.90268266  0.99455026  1.00939650  1
  O  O378  1  0.13096819  0.00603110  0.01817722  1
  O  O379  1  0.11557268  0.00867526  0.50145872  1
  O  O380  1  0.11539269  0.50225294  0.01226540  1
  O  O381  1  0.13301591  0.51966748  0.49171640  1
  O  O382  1  0.59955097  -0.00821266  -0.00364080  1
  O  O383  1  0.61129072  0.00868233  0.51431071  1
  O  O384  1  0.57136457  0.45247198  -0.00297899  1
  O  O385  1  0.61265750  0.49839760  0.52426916  1
  O  O386  1  0.36008129  0.38482511  0.12665799  1
  O  O387  1  0.37006644  0.35961737  0.62530586  1
  O  O388  1  0.38000064  0.86310445  0.11395221  1
  O  O389  1  0.35705200  0.87718229  0.63323278  1
  O  O390  1  0.88524360  0.37112160  0.13034275  1
  O  O391  1  0.85766598  0.36165976  0.62158723  1
  O  O392  1  0.86297648  0.88600193  0.13258404  1
  O  O393  1  0.86449777  0.86667381  0.61293352  1
  O  O394  1  0.13024829  0.13316874  0.38140350  1
  O  O395  1  0.13476840  0.11828942  0.88968220  1
  O  O396  1  0.12805574  0.63874835  0.37912374  1
  O  O397  1  0.13532492  0.64241343  0.86870935  1
  O  O398  1  0.61787410  0.12073794  0.39326583  1
  O  O399  1  0.63119930  0.13699812  0.87171628  1
  O  O400  1  0.64116645  0.64094110  0.36486720  1
  O  O401  1  0.65096740  0.62749519  0.85037820  1
