# generated using pymatgen
data_V73Zn73O256
_symmetry_space_group_name_H-M   'P 1'
_cell_length_a   16.92017082
_cell_length_b   16.88955615
_cell_length_c   16.86514863
_cell_angle_alpha   90.13538161
_cell_angle_beta   90.11226148
_cell_angle_gamma   90.11850640
_symmetry_Int_Tables_number   1
_chemical_formula_structural   V73Zn73O256
_chemical_formula_sum   'V73 Zn73 O256'
_cell_volume   4819.59087727
_cell_formula_units_Z   1
loop_
 _symmetry_equiv_pos_site_id
 _symmetry_equiv_pos_as_xyz
  1  'x, y, z'
loop_
 _atom_site_type_symbol
 _atom_site_label
 _atom_site_symmetry_multiplicity
 _atom_site_fract_x
 _atom_site_fract_y
 _atom_site_fract_z
 _atom_site_occupancy
  V  V0  1  0.36950816  0.89189124  0.50392875  1
  V  V1  1  0.00852843  0.88616185  0.85941906  1
  V  V2  1  0.87461393  0.87069923  0.50087999  1
  V  V3  1  0.25271345  0.11681726  0.35453009  1
  V  V4  1  0.75028217  0.37824900  0.10326652  1
  V  V5  1  0.75377290  0.23307551  0.51405228  1
  V  V6  1  0.75307365  0.37460457  0.63512805  1
  V  V7  1  0.50904744  0.11997094  0.62334596  1
  V  V8  1  0.50133168  0.47099401  0.49460716  1
  V  V9  1  0.62145324  0.86298191  0.25694479  1
  V  V10  1  0.35709229  0.48966535  0.37109191  1
  V  V11  1  0.25919246  0.87395755  0.12794660  1
  V  V12  1  0.62531669  0.89238928  0.75222928  1
  V  V13  1  0.86909548  0.00641911  0.36913831  1
  V  V14  1  0.63841281  0.74345646  0.87139625  1
  V  V15  1  0.00118543  0.87808298  0.37686293  1
  V  V16  1  0.37364906  0.12354256  0.75045937  1
  V  V17  1  0.87122635  0.13766809  0.74741498  1
  V  V18  1  0.12801867  0.88611734  0.25023203  1
  V  V19  1  0.11254668  0.12332849  -0.00127408  1
  V  V20  1  0.13626740  0.74244290  0.38282724  1
  V  V21  1  0.24791691  -0.01004184  0.74766075  1
  V  V22  1  0.00622153  0.13947434  0.62996484  1
  V  V23  1  0.12463172  0.62888668  -0.00159381  1
  V  V24  1  0.89006700  0.88737160  -0.00112106  1
  V  V25  1  -0.00097144  0.62712019  0.12202473  1
  V  V26  1  0.49392815  0.63286846  0.59948136  1
  V  V27  1  0.37748794  0.25014290  0.12874246  1
  V  V28  1  0.65029857  0.25186777  0.88752627  1
  V  V29  1  0.74200865  0.88259846  0.62986263  1
  V  V30  1  0.50284561  0.25403181  0.25896626  1
  V  V31  1  0.62956693  0.10906694  0.00191831  1
  V  V32  1  0.37652743  0.62735533  0.74352446  1
  V  V33  1  0.38116651  0.26780044  0.62450281  1
  V  V34  1  0.74550042  0.00978054  0.24745566  1
  V  V35  1  0.37946787  0.38319761  -0.00634027  1
  V  V36  1  0.12818725  0.50177699  0.13589390  1
  V  V37  1  0.25629072  0.75674610  0.00216733  1
  V  V38  1  0.87061904  0.62399252  0.25946164  1
  V  V39  1  0.87458537  0.75531301  0.11270093  1
  V  V40  1  0.38754741  0.50201563  0.87576523  1
  V  V41  1  0.25206528  0.12274846  0.87351272  1
  V  V42  1  -0.00057203  0.75165294  0.25000006  1
  V  V43  1  0.39064600  0.00541713  0.35924067  1
  V  V44  1  0.24619206  0.24050231  0.49962450  1
  V  V45  1  0.49001321  0.88395762  0.88564763  1
  V  V46  1  0.24168439  0.25510930  -0.00104481  1
  V  V47  1  0.11723298  0.75283278  0.86195512  1
  V  V48  1  0.23574868  0.49240165  0.74999446  1
  V  V49  1  0.12164008  0.25428183  0.85900886  1
  V  V50  1  0.87130687  0.25769457  0.12208753  1
  V  V51  1  -0.01809412  0.50638049  0.49041194  1
  V  V52  1  0.65581559  0.62264826  -0.00412236  1
  V  V53  1  -0.00793118  0.12286585  0.14743869  1
  V  V54  1  0.87018690  0.37709160  0.48994584  1
  V  V55  1  0.12279160  -0.00111450  0.11913321  1
  V  V56  1  0.13095694  -0.01282627  0.62453282  1
  V  V57  1  0.86336260  0.00735536  0.86716848  1
  V  V58  1  0.22839963  0.37611540  0.62421008  1
  V  V59  1  0.64170974  0.24393893  0.37585264  1
  V  V60  1  0.00674014  0.00317985  0.50214979  1
  V  V61  1  0.34947948  0.63023412  0.25057159  1
  V  V62  1  -0.00075253  0.62201517  0.63595973  1
  V  V63  1  0.61087324  0.50124347  0.12164777  1
  V  V64  1  0.50132717  0.25669084  0.76866989  1
  V  V65  1  -0.00006896  0.36943273  0.85280292  1
  V  V66  1  0.00145741  0.47821028  0.00069769  1
  V  V67  1  0.87112229  0.50874195  0.86091356  1
  V  V68  1  0.13412667  0.61755109  0.50121628  1
  V  V69  1  0.88326979  0.75200732  0.64235864  1
  V  V70  1  0.74081005  0.74151034  0.49316165  1
  V  V71  1  0.24481379  0.38160604  0.13561917  1
  V  V72  1  0.74492957  0.87893340  0.11556974  1
  Zn  Zn73  1  0.50159481  0.75163505  0.74639579  1
  Zn  Zn74  1  0.64098286  0.52704429  0.63764410  1
  Zn  Zn75  1  0.24824737  0.62455649  0.87321274  1
  Zn  Zn76  1  0.03527314  0.31229112  0.32071380  1
  Zn  Zn77  1  0.50055894  0.12235624  0.11713389  1
  Zn  Zn78  1  0.56550465  0.06213230  0.46116043  1
  Zn  Zn79  1  0.62852611  0.38362077  0.75610049  1
  Zn  Zn80  1  0.74533458  0.50353736  0.24397609  1
  Zn  Zn81  1  0.36116400  0.76292155  0.61030055  1
  Zn  Zn82  1  0.18373146  0.19169000  0.18594949  1
  Zn  Zn83  1  0.18796770  0.18265863  0.67583321  1
  Zn  Zn84  1  0.18462054  0.69355174  0.18934169  1
  Zn  Zn85  1  0.19225666  0.68232449  0.68034476  1
  Zn  Zn86  1  0.68359135  0.19292111  0.17921513  1
  Zn  Zn87  1  0.68674724  0.18688944  0.69878754  1
  Zn  Zn88  1  0.69170760  0.68656181  0.17995783  1
  Zn  Zn89  1  0.68788278  0.69824808  0.68075492  1
  Zn  Zn90  1  0.31023927  0.30929531  0.31732789  1
  Zn  Zn91  1  0.31222763  0.31428385  0.81018852  1
  Zn  Zn92  1  0.32149068  0.81729927  0.31745073  1
  Zn  Zn93  1  0.30745596  0.81048593  0.81737134  1
  Zn  Zn94  1  0.80680155  0.30402447  0.30397207  1
  Zn  Zn95  1  0.81901763  0.31683105  0.81644006  1
  Zn  Zn96  1  0.80613499  0.81303957  0.30854237  1
  Zn  Zn97  1  0.81358522  0.82202366  0.81633084  1
  Zn  Zn98  1  0.18545507  0.43444649  0.44679196  1
  Zn  Zn99  1  0.18665422  0.43815846  0.93579386  1
  Zn  Zn100  1  0.19321825  0.94643399  0.43207658  1
  Zn  Zn101  1  0.18783258  0.93775787  0.93665018  1
  Zn  Zn102  1  0.66795322  0.41731087  0.46541329  1
  Zn  Zn103  1  0.68760062  0.44030796  0.93222736  1
  Zn  Zn104  1  0.68455136  0.92691394  0.43377805  1
  Zn  Zn105  1  0.68805464  0.93657273  0.93741918  1
  Zn  Zn106  1  0.30448117  0.06337477  0.06744436  1
  Zn  Zn107  1  0.32379464  0.06084370  0.56485967  1
  Zn  Zn108  1  0.31611448  0.56945836  0.06610600  1
  Zn  Zn109  1  0.32160060  0.54438674  0.56123848  1
  Zn  Zn110  1  0.81506922  0.06522433  0.05656749  1
  Zn  Zn111  1  0.82075022  0.05866273  0.56896765  1
  Zn  Zn112  1  0.82349579  0.55519539  0.05726503  1
  Zn  Zn113  1  0.79828963  0.57643336  0.59979969  1
  Zn  Zn114  1  0.43113629  0.44110615  0.18979629  1
  Zn  Zn115  1  0.46619258  0.45493502  0.69611849  1
  Zn  Zn116  1  0.43831401  0.93322538  0.18603080  1
  Zn  Zn117  1  0.43887200  0.93849378  0.69142969  1
  Zn  Zn118  1  0.89521793  0.41320873  0.21929986  1
  Zn  Zn119  1  0.93630413  0.43180318  0.67633208  1
  Zn  Zn120  1  0.93959366  0.94286297  0.18787668  1
  Zn  Zn121  1  0.93898469  0.94150396  0.68663137  1
  Zn  Zn122  1  0.07291503  0.16244871  0.32658844  1
  Zn  Zn123  1  0.06387802  0.06654660  0.80545639  1
  Zn  Zn124  1  0.05956930  0.46644467  0.31691936  1
  Zn  Zn125  1  0.05769957  0.56104773  0.81627922  1
  Zn  Zn126  1  0.56429804  0.07219305  0.29222156  1
  Zn  Zn127  1  0.56055318  0.06990919  0.82447692  1
  Zn  Zn128  1  0.56921566  0.42692071  0.30690790  1
  Zn  Zn129  1  0.56860671  0.56399784  0.81115099  1
  Zn  Zn130  1  0.42818763  0.19056845  0.44058551  1
  Zn  Zn131  1  0.43488643  0.18384962  0.94522993  1
  Zn  Zn132  1  0.40711045  0.68709891  0.42677354  1
  Zn  Zn133  1  0.43775621  0.69966679  0.92522005  1
  Zn  Zn134  1  0.92698623  0.18338118  0.44666657  1
  Zn  Zn135  1  0.93139592  0.19200897  0.93873152  1
  Zn  Zn136  1  0.93842171  0.68945692  0.44085167  1
  Zn  Zn137  1  0.93622372  0.69220518  0.93111475  1
  Zn  Zn138  1  0.05452667  0.31440031  0.16414061  1
  Zn  Zn139  1  0.05909876  0.31292239  0.48150839  1
  Zn  Zn140  1  0.06453037  0.81435967  0.05710405  1
  Zn  Zn141  1  0.06808564  0.80861367  0.56696141  1
  Zn  Zn142  1  0.56237316  0.31662036  0.05603979  1
  Zn  Zn143  1  0.57016068  0.29910715  0.56905014  1
  Zn  Zn144  1  0.56697410  0.80657875  0.05284564  1
  Zn  Zn145  1  0.55400862  0.81278205  0.55853702  1
  O  O146  1  0.11771086  0.11863258  0.11828000  1
  O  O147  1  0.11181231  0.11244544  0.62703324  1
  O  O148  1  0.11992878  0.61972160  0.11829794  1
  O  O149  1  0.10769462  0.63879838  0.60961093  1
  O  O150  1  0.61920733  0.12916617  0.11049063  1
  O  O151  1  0.60771322  0.13460023  0.63554595  1
  O  O152  1  0.63615839  0.61384326  0.10647766  1
  O  O153  1  0.59239391  0.63770906  0.62291270  1
  O  O154  1  0.37502150  0.38917211  0.36433075  1
  O  O155  1  0.36818739  0.38757820  0.88421675  1
  O  O156  1  0.37594530  0.89957438  0.37618655  1
  O  O157  1  0.39138390  0.86695574  0.86853253  1
  O  O158  1  0.86774083  0.37077450  0.38965173  1
  O  O159  1  0.89771840  0.37957892  0.87410916  1
  O  O160  1  0.88401786  0.87622528  0.38149111  1
  O  O161  1  0.88896810  0.88644991  0.87809238  1
  O  O162  1  0.26522719  0.01075408  0.36771623  1
  O  O163  1  0.23815852  0.01242915  0.86125745  1
  O  O164  1  0.25754742  0.49481349  0.38194627  1
  O  O165  1  0.25379005  0.50051643  0.86201346  1
  O  O166  1  0.76206967  -0.00998114  0.36416112  1
  O  O167  1  0.76511048  -0.00495248  0.87127151  1
  O  O168  1  0.71191099  0.52479944  0.37835399  1
  O  O169  1  0.77268074  0.49451638  0.87639736  1
  O  O170  1  0.23679235  0.49244600  0.11710986  1
  O  O171  1  0.25556711  0.48478970  0.63705971  1
  O  O172  1  0.24016023  0.98347932  0.12053800  1
  O  O173  1  0.23979141  1.00747347  0.63430776  1
  O  O174  1  0.75330672  0.48893469  0.11912024  1
  O  O175  1  0.74495596  0.47340008  0.60709674  1
  O  O176  1  0.76384179  0.98659526  0.13750043  1
  O  O177  1  0.75718484  0.98058317  0.62361155  1
  O  O178  1  0.00174600  0.38757726  0.24304297  1
  O  O179  1  0.00537169  0.37486478  0.75462081  1
  O  O180  1  0.00657951  0.87016258  0.25623700  1
  O  O181  1  0.00095472  0.87543022  0.76074171  1
  O  O182  1  0.50248376  0.36111277  0.23816746  1
  O  O183  1  0.49786112  0.35619880  0.75031351  1
  O  O184  1  0.52592947  0.88171177  0.22608320  1
  O  O185  1  0.51560814  0.87347762  0.75151975  1
  O  O186  1  0.50047968  0.14742733  0.23105723  1
  O  O187  1  0.48960399  0.13505313  0.75057256  1
  O  O188  1  0.54142841  0.64942018  0.29357895  1
  O  O189  1  0.48188176  0.62469530  0.74935896  1
  O  O190  1  1.00230057  0.11695436  0.24608531  1
  O  O191  1  0.99577818  0.12770375  0.73850565  1
  O  O192  1  0.99184093  0.63966197  0.23486277  1
  O  O193  1  1.01002914  0.62308752  0.73485036  1
  O  O194  1  0.36154044  0.26517798  0.00388649  1
  O  O195  1  0.36904927  0.25470063  0.52058691  1
  O  O196  1  0.35390002  0.74471879  -0.00784155  1
  O  O197  1  0.37803955  0.77440893  0.48781722  1
  O  O198  1  0.86425099  0.21949025  0.02495319  1
  O  O199  1  0.86037991  0.25941377  0.49826817  1
  O  O200  1  0.88314306  0.76456879  0.00598018  1
  O  O201  1  0.87529459  0.76245992  0.50772118  1
  O  O202  1  0.14719680  0.24942388  0.50986574  1
  O  O203  1  0.13720322  0.23965456  0.99520864  1
  O  O204  1  0.11838551  0.74234580  0.48855881  1
  O  O205  1  0.13001842  0.74306225  0.99244071  1
  O  O206  1  0.64349696  0.24979500  0.48970336  1
  O  O207  1  0.62960075  0.25408943  0.98930555  1
  O  O208  1  0.64235201  0.75640765  0.51052865  1
  O  O209  1  0.62901555  0.73224195  0.98705557  1
  O  O210  1  0.48209871  0.25955907  0.12074849  1
  O  O211  1  0.49021079  0.24326582  0.63843862  1
  O  O212  1  0.49449634  0.71164545  0.08731996  1
  O  O213  1  0.47930575  0.74270599  0.62864342  1
  O  O214  1  0.98662588  0.23106685  0.12324635  1
  O  O215  1  1.00683374  0.23435809  0.61125158  1
  O  O216  1  0.99700041  0.74789353  0.13027120  1
  O  O217  1  0.98886369  0.74737035  0.62462347  1
  O  O218  1  0.01392134  0.23507309  0.39887397  1
  O  O219  1  0.01127437  0.25934155  0.87807125  1
  O  O220  1  0.00507910  0.76119415  0.36807006  1
  O  O221  1  0.01185604  0.76131113  0.87509454  1
  O  O222  1  0.48985620  0.24973022  0.35933732  1
  O  O223  1  0.48792833  0.25247447  0.86793231  1
  O  O224  1  0.54321821  0.69147304  0.35292655  1
  O  O225  1  0.51430423  0.76022095  0.86810956  1
  O  O226  1  0.25678441  0.14132916  0.51783733  1
  O  O227  1  0.24492485  0.13174391  0.99078150  1
  O  O228  1  0.23209039  0.60969217  0.51366229  1
  O  O229  1  0.23867920  0.63504936  1.00153952  1
  O  O230  1  0.75974882  0.13329428  0.50811208  1
  O  O231  1  0.73188666  0.11879385  1.00493244  1
  O  O232  1  0.76048554  0.64360758  0.51134677  1
  O  O233  1  0.75422312  0.62591438  0.99433107  1
  O  O234  1  0.25154764  0.36937130  0.00468169  1
  O  O235  1  0.25012547  0.36755046  0.51854292  1
  O  O236  1  0.24487408  0.86561188  0.00885549  1
  O  O237  1  0.26758150  0.88677533  0.49407911  1
  O  O238  1  0.75881764  0.37754573  0.00474215  1
  O  O239  1  0.75807207  0.36058025  0.50715685  1
  O  O240  1  0.76726938  0.88489532  0.01066110  1
  O  O241  1  0.75939796  0.86754281  0.51145798  1
  O  O242  1  0.12277577  0.51214735  0.23378179  1
  O  O243  1  0.13778428  0.50281343  0.75246233  1
  O  O244  1  0.12811175  0.98681948  0.23969537  1
  O  O245  1  0.13700034  1.00260964  0.73806558  1
  O  O246  1  0.62656696  0.49814553  0.22690295  1
  O  O247  1  0.58226523  0.48688374  0.73070981  1
  O  O248  1  0.64147972  0.99131704  0.25439510  1
  O  O249  1  0.62657588  0.99032255  0.75896143  1
  O  O250  1  0.38607187  0.00523944  0.25813155  1
  O  O251  1  0.35874666  0.01270940  0.74346214  1
  O  O252  1  0.37651647  0.50899025  0.26133046  1
  O  O253  1  0.37472308  0.50648286  0.76307702  1
  O  O254  1  0.86770551  -0.00832991  0.26322968  1
  O  O255  1  0.88112241  0.00314015  0.76356811  1
  O  O256  1  0.88651980  0.52539944  0.24485938  1
  O  O257  1  0.88671078  0.49432004  0.76183458  1
  O  O258  1  0.10353077  0.38318378  0.38805786  1
  O  O259  1  0.11853809  0.36071655  0.87634153  1
  O  O260  1  0.11724783  0.87339561  0.36953143  1
  O  O261  1  0.11758901  0.86518506  0.87701959  1
  O  O262  1  0.63083853  0.35505528  0.37484899  1
  O  O263  1  0.63379253  0.35974483  0.87096237  1
  O  O264  1  0.62560742  0.86528531  0.35710782  1
  O  O265  1  0.62428772  0.86625003  0.86516199  1
  O  O266  1  0.36669262  0.14974127  0.11529130  1
  O  O267  1  0.38095668  0.13675941  0.63844776  1
  O  O268  1  0.37302027  0.61611205  0.14960250  1
  O  O269  1  0.37424520  0.62510811  0.63516807  1
  O  O270  1  0.89323181  0.10654144  0.13123288  1
  O  O271  1  0.89229054  0.11542789  0.63897693  1
  O  O272  1  0.88509184  0.63728859  0.12038073  1
  O  O273  1  0.88776205  0.64351452  0.62757354  1
  O  O274  1  0.25305991  0.26463046  0.11805073  1
  O  O275  1  0.26126577  0.26293641  0.62883673  1
  O  O276  1  0.23881686  0.76100893  0.11137327  1
  O  O277  1  0.25203119  0.75436734  0.62351509  1
  O  O278  1  0.75276718  0.27120434  0.12949383  1
  O  O279  1  0.74918585  0.25001179  0.61691391  1
  O  O280  1  0.76678650  0.76713799  0.12635744  1
  O  O281  1  0.76678457  0.76309433  0.61884338  1
  O  O282  1  0.26396257  0.23628458  0.39229899  1
  O  O283  1  0.23914896  0.24663210  0.87874629  1
  O  O284  1  0.23286249  0.76050128  0.37323910  1
  O  O285  1  0.23470777  0.75040141  0.88704015  1
  O  O286  1  0.74413757  0.23813198  0.37549921  1
  O  O287  1  0.74925748  0.24771434  0.87699722  1
  O  O288  1  0.75558002  0.75564347  0.39245285  1
  O  O289  1  0.73788450  0.75622283  0.87196628  1
  O  O290  1  0.01269720  0.12748923  -0.00163662  1
  O  O291  1  -0.01294275  0.10674820  0.51529167  1
  O  O292  1  0.01008439  0.63256263  0.00963177  1
  O  O293  1  -0.00255505  0.61763963  0.50745283  1
  O  O294  1  0.51307446  0.13183596  0.00231398  1
  O  O295  1  0.49708631  0.13640549  0.51819856  1
  O  O296  1  0.49040208  0.65806878  0.03244940  1
  O  O297  1  0.48873274  0.64174287  0.50017468  1
  O  O298  1  0.49919435  0.37217424  0.51115561  1
  O  O299  1  0.47715356  0.37670543  1.00252620  1
  O  O300  1  0.48010692  0.85929207  0.48788686  1
  O  O301  1  0.50412404  0.87066884  0.98620382  1
  O  O302  1  0.98041971  0.39118302  0.50944984  1
  O  O303  1  1.00905954  0.38190745  1.00536791  1
  O  O304  1  0.99563189  0.88028275  0.49480559  1
  O  O305  1  0.99475467  0.87721928  0.98994134  1
  O  O306  1  0.51325647  0.48389814  0.39217710  1
  O  O307  1  0.48552956  0.50666674  0.88036728  1
  O  O308  1  0.49427258  1.02164999  0.37283015  1
  O  O309  1  0.50076597  0.98397368  0.86908512  1
  O  O310  1  0.98554224  0.51128098  0.39073735  1
  O  O311  1  1.00891105  0.48143003  0.88385905  1
  O  O312  1  0.98892642  0.98800637  0.38412843  1
  O  O313  1  1.00813395  0.98866998  0.87209291  1
  O  O314  1  0.01401442  0.00890436  0.12771141  1
  O  O315  1  0.01392964  -0.00341818  0.61850176  1
  O  O316  1  0.01454549  0.51000666  0.11070920  1
  O  O317  1  -0.01025932  0.51787829  0.61619574  1
  O  O318  1  0.45600118  0.00737960  0.09354705  1
  O  O319  1  0.49540333  0.02150761  0.63556233  1
  O  O320  1  0.51244945  0.49478243  0.11948178  1
  O  O321  1  0.47744174  0.52122876  0.60118187  1
  O  O322  1  0.25062355  0.37165821  0.23362657  1
  O  O323  1  0.25022905  0.38429177  0.74270035  1
  O  O324  1  0.23885767  0.86169180  0.23537212  1
  O  O325  1  0.25503486  0.89179069  0.75516376  1
  O  O326  1  0.77972100  0.39366886  0.23702483  1
  O  O327  1  0.75509157  0.37275361  0.73946766  1
  O  O328  1  0.74208765  0.88053275  0.23636754  1
  O  O329  1  0.73911321  0.87228982  0.74013204  1
  O  O330  1  0.25325154  0.13322685  0.25499493  1
  O  O331  1  0.25566766  0.12424793  0.75623697  1
  O  O332  1  0.24870526  0.62725695  0.25248758  1
  O  O333  1  0.25942217  0.60814965  0.74766984  1
  O  O334  1  0.74495684  0.10873413  0.23867732  1
  O  O335  1  0.77113771  0.12450850  0.74017281  1
  O  O336  1  0.76597404  0.62285025  0.24001870  1
  O  O337  1  0.72686074  0.59507865  0.68996776  1
  O  O338  1  0.36389313  0.11534793  0.38224204  1
  O  O339  1  0.36001196  0.13335414  0.86813692  1
  O  O340  1  0.37826955  0.60624986  0.35927357  1
  O  O341  1  0.37044661  0.61504493  0.87093008  1
  O  O342  1  0.87618683  0.10444631  0.37948151  1
  O  O343  1  0.88532607  0.11396611  0.86374380  1
  O  O344  1  0.87791591  0.63897818  0.35769008  1
  O  O345  1  0.89220663  0.60852258  0.87234864  1
  O  O346  1  0.13323011  0.39006171  0.12289228  1
  O  O347  1  0.13293407  0.37409021  0.62675871  1
  O  O348  1  0.12501638  0.88169465  0.13062809  1
  O  O349  1  0.12685066  0.88725267  0.62563416  1
  O  O350  1  0.63765726  0.39137595  0.10700500  1
  O  O351  1  0.64383829  0.35733840  0.63491604  1
  O  O352  1  0.64444927  0.87186551  0.11125961  1
  O  O353  1  0.63382203  0.86916725  0.63870886  1
  O  O354  1  0.11005983  0.25016116  0.24873416  1
  O  O355  1  0.12992505  0.24517666  0.76135356  1
  O  O356  1  0.11356783  0.75669705  0.25978373  1
  O  O357  1  0.13268150  0.74123076  0.76500085  1
  O  O358  1  0.61545354  0.24853536  0.26250172  1
  O  O359  1  0.61189397  0.24457276  0.77023011  1
  O  O360  1  0.63169902  0.76384206  0.23315592  1
  O  O361  1  0.62415084  0.75041725  0.76127771  1
  O  O362  1  0.38058654  0.26037576  0.23379594  1
  O  O363  1  0.38064180  0.24439353  0.74550546  1
  O  O364  1  0.37579116  0.73024164  0.26823018  1
  O  O365  1  0.36652947  0.73004824  0.75807443  1
  O  O366  1  0.86966882  0.24423080  0.22668598  1
  O  O367  1  0.88004491  0.23688246  0.75750946  1
  O  O368  1  0.88391954  0.74911229  0.23813260  1
  O  O369  1  0.87456339  0.75926169  0.74117099  1
  O  O370  1  0.38955510  0.50243541  0.47959912  1
  O  O371  1  0.36271693  0.49353632  0.98853293  1
  O  O372  1  0.38525779  0.99672235  0.49322407  1
  O  O373  1  0.40254996  1.00289362  1.03458284  1
  O  O374  1  0.87543898  0.49064051  0.50297521  1
  O  O375  1  0.89973259  0.50092023  0.98936338  1
  O  O376  1  0.88061577  0.98644691  0.49229424  1
  O  O377  1  0.87902276  0.99675591  0.98309661  1
  O  O378  1  0.13225771  0.01055371  0.00840927  1
  O  O379  1  0.11766311  -0.00483189  0.50995809  1
  O  O380  1  0.11724093  0.51134788  -0.00018772  1
  O  O381  1  0.10649979  0.51466676  0.49715136  1
  O  O382  1  0.62017180  0.00861027  -0.00773660  1
  O  O383  1  0.62537996  -0.01624490  0.50697289  1
  O  O384  1  0.62873946  0.51730645  -0.00186611  1
  O  O385  1  0.60439150  0.49169210  0.52297400  1
  O  O386  1  0.35921284  0.37756542  0.11285645  1
  O  O387  1  0.38290085  0.36596156  0.63800565  1
  O  O388  1  0.35743776  0.87073352  0.13191524  1
  O  O389  1  0.37847502  0.88346222  0.61116367  1
  O  O390  1  0.87307026  0.36186631  0.11013648  1
  O  O391  1  0.86139836  0.36911755  0.61528866  1
  O  O392  1  0.87953488  0.87290914  0.11573789  1
  O  O393  1  0.87193332  0.86940524  0.62094544  1
  O  O394  1  0.15531835  0.11525148  0.38476646  1
  O  O395  1  0.13013527  0.13650977  0.87940185  1
  O  O396  1  0.12661891  0.63859599  0.38807579  1
  O  O397  1  0.12158859  0.63592978  0.88276822  1
  O  O398  1  0.61064780  0.14219625  0.37913709  1
  O  O399  1  0.62291931  0.14154351  0.88822616  1
  O  O400  1  0.67273740  0.58713498  0.38631766  1
  O  O401  1  0.62637655  0.63211634  0.88217394  1
