# generated using pymatgen
data_V73Zn73O256
_symmetry_space_group_name_H-M   'P 1'
_cell_length_a   16.85807593
_cell_length_b   16.89641535
_cell_length_c   16.88179728
_cell_angle_alpha   89.96035917
_cell_angle_beta   90.06182848
_cell_angle_gamma   89.98556404
_symmetry_Int_Tables_number   1
_chemical_formula_structural   V73Zn73O256
_chemical_formula_sum   'V73 Zn73 O256'
_cell_volume   4808.62480646
_cell_formula_units_Z   1
loop_
 _symmetry_equiv_pos_site_id
 _symmetry_equiv_pos_as_xyz
  1  'x, y, z'
loop_
 _atom_site_type_symbol
 _atom_site_label
 _atom_site_symmetry_multiplicity
 _atom_site_fract_x
 _atom_site_fract_y
 _atom_site_fract_z
 _atom_site_occupancy
  V  V0  1  0.87257198  0.87150367  0.50056860  1
  V  V1  1  0.61767826  -0.00207819  0.62259082  1
  V  V2  1  0.85003657  0.10273932  0.75215808  1
  V  V3  1  -0.00234851  0.74627623  0.74703488  1
  V  V4  1  0.23872921  0.73933749  0.50976443  1
  V  V5  1  0.89245983  0.62919545  0.24555533  1
  V  V6  1  0.75203784  0.12675312  0.37578182  1
  V  V7  1  0.63173177  0.64034271  0.49487784  1
  V  V8  1  0.00106144  0.00999152  0.01242842  1
  V  V9  1  0.00958784  0.37800257  0.87629005  1
  V  V10  1  0.50278238  0.36703821  0.85264528  1
  V  V11  1  0.37519035  0.62465791  0.75074118  1
  V  V12  1  0.38318720  0.48696574  0.37517433  1
  V  V13  1  0.49373501  0.13762867  0.63055440  1
  V  V14  1  0.00443542  0.00136139  0.51429621  1
  V  V15  1  0.12407118  0.74443507  0.36673197  1
  V  V16  1  0.74401213  0.62996977  0.87904429  1
  V  V17  1  0.75147464  0.37553876  0.63490002  1
  V  V18  1  0.85759392  0.87218018  0.00137153  1
  V  V19  1  0.88252275  0.74931050  0.12585452  1
  V  V20  1  0.12419501  0.50846138  0.64653384  1
  V  V21  1  0.37874541  0.74230664  0.13534450  1
  V  V22  1  0.87251140  0.74935485  0.62426135  1
  V  V23  1  0.62810822  0.86584802  0.23676878  1
  V  V24  1  0.58281305  0.30430738  0.29622861  1
  V  V25  1  0.38577872  0.25210727  0.13766103  1
  V  V26  1  0.26587214  0.25311456  0.49771287  1
  V  V27  1  0.50845593  0.48444119  0.49077495  1
  V  V28  1  0.12916631  0.89018051  0.74827720  1
  V  V29  1  0.12118302  0.37720154  0.24755130  1
  V  V30  1  0.49491291  0.88471766  0.87379646  1
  V  V31  1  0.38625351  0.37589659  0.00591399  1
  V  V32  1  0.75115727  0.88033803  0.62716565  1
  V  V33  1  0.37169550  0.74808487  0.62286168  1
  V  V34  1  0.25039754  0.62450021  0.87453750  1
  V  V35  1  0.49821621  0.61717220  0.14487114  1
  V  V36  1  0.24963935  0.88691390  0.62744450  1
  V  V37  1  0.60923115  0.61440803  0.00515001  1
  V  V38  1  0.38434691  0.10208893  0.25383569  1
  V  V39  1  0.51411450  0.88908696  0.38406009  1
  V  V40  1  0.24366927  0.38313185  0.12374147  1
  V  V41  1  0.12384593  0.24248691  0.37002814  1
  V  V42  1  0.12279692  0.12550040  0.51186840  1
  V  V43  1  0.25234106  0.50898634  0.25112679  1
  V  V44  1  0.85171637  0.25383254  0.11837477  1
  V  V45  1  0.87022928  0.61280894  0.74518073  1
  V  V46  1  0.38368336  0.50278702  0.88438923  1
  V  V47  1  0.75064469  0.64255231  0.37439785  1
  V  V48  1  0.26006809  0.62641145  0.38109378  1
  V  V49  1  0.50800041  0.74419502  0.75435613  1
  V  V50  1  0.62728925  0.49418691  0.63064353  1
  V  V51  1  0.00597413  0.50946567  0.50621047  1
  V  V52  1  0.74298054  0.49592745  0.23792736  1
  V  V53  1  0.24334920  0.88979622  0.12825091  1
  V  V54  1  0.64343205  0.25215102  0.86867663  1
  V  V55  1  0.86167198  0.37816133  0.00365457  1
  V  V56  1  0.87133140  0.50082679  0.37656074  1
  V  V57  1  0.87029654  0.49612438  0.87788243  1
  V  V58  1  -0.00126690  0.24857356  0.23581170  1
  V  V59  1  0.87858888  0.36730883  0.49983338  1
  V  V60  1  0.38099503  0.87965620  -0.00589719  1
  V  V61  1  0.12576232  0.75134077  0.87259246  1
  V  V62  1  0.25345513  0.75268260  -0.00165808  1
  V  V63  1  0.87771096  0.12575446  0.24355625  1
  V  V64  1  0.63061574  0.87839865  0.75972841  1
  V  V65  1  0.87533688  -0.00144232  0.37198522  1
  V  V66  1  -0.00412478  0.88173841  0.88075617  1
  V  V67  1  0.74840008  0.24887113  0.50134082  1
  V  V68  1  0.11155787  0.62104329  0.00483027  1
  V  V69  1  0.24121215  0.23900443  0.00728668  1
  V  V70  1  0.61775759  0.11952241  0.49149470  1
  V  V71  1  0.00901609  0.87245566  0.36421960  1
  V  V72  1  0.12492374  0.23704690  0.86562931  1
  Zn  Zn73  1  -0.03331432  0.19487168  0.67610504  1
  Zn  Zn74  1  0.25637917  0.11173077  0.37088745  1
  Zn  Zn75  1  0.73874502  0.75053100  0.00465337  1
  Zn  Zn76  1  -0.00280790  0.37393361  0.37217539  1
  Zn  Zn77  1  0.74704250  -0.00169919  0.23169504  1
  Zn  Zn78  1  0.24478987  0.47893449  0.75719309  1
  Zn  Zn79  1  0.50145129  0.62449674  0.61613861  1
  Zn  Zn80  1  0.25653901  0.37187643  0.61963624  1
  Zn  Zn81  1  0.08513783  0.53147512  0.14559240  1
  Zn  Zn82  1  0.20289117  0.18648138  0.19457687  1
  Zn  Zn83  1  0.19573177  0.19280408  0.68520231  1
  Zn  Zn84  1  0.18910266  0.69464559  0.18622175  1
  Zn  Zn85  1  0.18104073  0.67779555  0.68596547  1
  Zn  Zn86  1  0.68844159  0.17058426  0.17855635  1
  Zn  Zn87  1  0.68439411  0.18931930  0.68755922  1
  Zn  Zn88  1  0.69256774  0.68221189  0.18197856  1
  Zn  Zn89  1  0.69262679  0.68489115  0.68354713  1
  Zn  Zn90  1  0.30723561  0.31418583  0.31695636  1
  Zn  Zn91  1  0.29999991  0.31931497  0.83120392  1
  Zn  Zn92  1  0.30473307  0.81541295  0.31152333  1
  Zn  Zn93  1  0.30165893  0.97916688  0.81876456  1
  Zn  Zn94  1  0.80233292  0.31408965  0.31032476  1
  Zn  Zn95  1  0.82073000  0.30320816  0.81277620  1
  Zn  Zn96  1  0.81134232  0.81670874  0.30347916  1
  Zn  Zn97  1  0.81130723  0.80994233  0.81364194  1
  Zn  Zn98  1  0.18776457  0.43655037  0.43460654  1
  Zn  Zn99  1  0.18752120  0.44259944  0.94282695  1
  Zn  Zn100  1  0.18491016  0.92893199  0.45090985  1
  Zn  Zn101  1  0.21069475  1.02602304  0.99324912  1
  Zn  Zn102  1  0.68814380  0.43427555  0.42805473  1
  Zn  Zn103  1  0.68366740  0.43807965  0.93333171  1
  Zn  Zn104  1  0.68633803  0.93421178  0.43444931  1
  Zn  Zn105  1  0.67732929  0.94589539  1.05951864  1
  Zn  Zn106  1  0.36538793  0.08260583  0.04970396  1
  Zn  Zn107  1  0.31685530  0.06197997  0.54790173  1
  Zn  Zn108  1  0.31111526  0.56473096  0.06342944  1
  Zn  Zn109  1  0.32146855  0.54216565  0.57076921  1
  Zn  Zn110  1  0.84142661  0.07654140  0.04078288  1
  Zn  Zn111  1  0.81534051  0.06303283  0.56738163  1
  Zn  Zn112  1  0.82079900  0.56456435  0.06318037  1
  Zn  Zn113  1  0.81214872  0.55948920  0.56036126  1
  Zn  Zn114  1  0.43509286  0.44126967  0.18959864  1
  Zn  Zn115  1  0.40520176  0.41714945  0.69285078  1
  Zn  Zn116  1  0.42919648  0.90832986  0.20347723  1
  Zn  Zn117  1  0.43674201  0.93479957  0.68380211  1
  Zn  Zn118  1  0.92830474  0.43703881  0.18813043  1
  Zn  Zn119  1  0.96629911  0.38655605  0.66830542  1
  Zn  Zn120  1  0.93416042  0.93077908  0.18518971  1
  Zn  Zn121  1  0.93525471  0.94280218  0.69699690  1
  Zn  Zn122  1  0.05679484  0.06426939  0.31524070  1
  Zn  Zn123  1  0.05579073  0.06601658  0.81533516  1
  Zn  Zn124  1  0.06575038  0.56067880  0.32691833  1
  Zn  Zn125  1  0.05303104  0.56284872  0.81938006  1
  Zn  Zn126  1  0.56127467  0.05288659  0.29635026  1
  Zn  Zn127  1  0.56519236  0.06951475  0.81109822  1
  Zn  Zn128  1  0.56855395  0.56533473  0.31575452  1
  Zn  Zn129  1  0.56310647  0.55659403  0.81532647  1
  Zn  Zn130  1  0.44780831  0.19406161  0.41438563  1
  Zn  Zn131  1  0.52401175  0.19416725  0.96046474  1
  Zn  Zn132  1  0.43699821  0.68927732  0.43872210  1
  Zn  Zn133  1  0.44053856  0.69327050  0.93759498  1
  Zn  Zn134  1  0.94121695  0.18737293  0.43623973  1
  Zn  Zn135  1  0.93518262  0.19321694  0.92767735  1
  Zn  Zn136  1  0.93965077  0.68847344  0.43721621  1
  Zn  Zn137  1  0.93241348  0.68970726  0.93298491  1
  Zn  Zn138  1  0.05577157  0.32107141  0.05665853  1
  Zn  Zn139  1  0.08162874  0.32132684  0.56072592  1
  Zn  Zn140  1  0.06424660  0.81121453  0.06445725  1
  Zn  Zn141  1  0.06175559  0.81167794  0.56333667  1
  Zn  Zn142  1  0.57827071  0.31830934  0.07707774  1
  Zn  Zn143  1  0.56674475  0.30751495  0.56198516  1
  Zn  Zn144  1  0.56295278  0.79708699  0.06017262  1
  Zn  Zn145  1  0.56118330  0.81263327  0.56671831  1
  O  O146  1  0.12555103  0.09111957  0.16456973  1
  O  O147  1  0.12573899  0.13193052  0.61080504  1
  O  O148  1  0.12809749  0.63260083  0.11128868  1
  O  O149  1  0.10645324  0.60920360  0.63129335  1
  O  O150  1  0.69206745  0.09656079  0.09266828  1
  O  O151  1  0.61603688  0.11813630  0.61265252  1
  O  O152  1  0.60697584  0.62682841  0.11745136  1
  O  O153  1  0.63478963  0.61202352  0.60843623  1
  O  O154  1  0.37265358  0.38873508  0.37907991  1
  O  O155  1  0.38246168  0.38241820  0.88961348  1
  O  O156  1  0.40451727  0.84319427  0.37249024  1
  O  O157  1  0.38568116  0.87686449  0.88430160  1
  O  O158  1  0.87153435  0.38247838  0.38420077  1
  O  O159  1  0.87543201  0.37845658  0.88612904  1
  O  O160  1  0.88642771  0.87811114  0.38105047  1
  O  O161  1  0.88724395  0.86084032  0.88815951  1
  O  O162  1  0.27378794  -0.01004392  0.40305731  1
  O  O163  1  0.22512361  -0.01326387  0.89215532  1
  O  O164  1  0.26079665  0.50684039  0.37327015  1
  O  O165  1  0.25964954  0.50709580  0.87330734  1
  O  O166  1  0.76820048  0.00672544  0.38310657  1
  O  O167  1  0.70947969  0.02230792  0.93941790  1
  O  O168  1  0.76251990  0.50834061  0.37038208  1
  O  O169  1  0.76260377  0.50697384  0.87243193  1
  O  O170  1  0.25232815  0.49501367  0.13660058  1
  O  O171  1  0.23103303  0.52315111  0.64424090  1
  O  O172  1  0.25077384  0.98739061  0.09943511  1
  O  O173  1  0.25412665  0.98472771  0.61361601  1
  O  O174  1  0.75129278  0.51836394  0.13968150  1
  O  O175  1  0.73811766  0.48776643  0.61485363  1
  O  O176  1  0.74589874  1.02911067  0.10715704  1
  O  O177  1  0.74244810  0.98539563  0.62174205  1
  O  O178  1  0.00510501  0.36680199  0.25082506  1
  O  O179  1  -0.01247177  0.37103133  0.77781173  1
  O  O180  1  -0.00124355  0.87679021  0.26537066  1
  O  O181  1  0.00292124  0.86695975  0.76039764  1
  O  O182  1  0.52094823  0.36950383  0.22724704  1
  O  O183  1  0.48915622  0.37360470  0.75335684  1
  O  O184  1  0.52037950  0.87629712  0.25780303  1
  O  O185  1  0.50688961  0.86274664  0.75519507  1
  O  O186  1  0.48537189  0.12341139  0.24783578  1
  O  O187  1  0.50330731  0.12255913  0.72953051  1
  O  O188  1  0.50318842  0.62624083  0.24408008  1
  O  O189  1  0.49950910  0.63301434  0.74953265  1
  O  O190  1  0.98549970  0.13387162  0.25422531  1
  O  O191  1  0.97930710  0.11034224  0.74866783  1
  O  O192  1  0.99113619  0.62504273  0.26202466  1
  O  O193  1  0.98201592  0.63618824  0.76011424  1
  O  O194  1  0.36024106  0.26897514  0.01313410  1
  O  O195  1  0.36328996  0.24207937  0.48231727  1
  O  O196  1  0.36806689  0.75333182  0.00280323  1
  O  O197  1  0.36408930  0.74102575  0.51717380  1
  O  O198  1  0.87026121  0.25450036  0.01307964  1
  O  O199  1  0.87077622  0.26102988  0.49483753  1
  O  O200  1  0.87515486  0.75739867  0.00752846  1
  O  O201  1  0.88786853  0.76145689  0.51133967  1
  O  O202  1  0.12062429  0.23706910  0.48788499  1
  O  O203  1  0.13849016  0.24726819  1.00991282  1
  O  O204  1  0.13232848  0.74863374  0.49566182  1
  O  O205  1  0.13238890  0.74350116  0.99127292  1
  O  O206  1  0.63813100  0.23296455  0.49957026  1
  O  O207  1  0.61255399  0.26137270  0.98827263  1
  O  O208  1  0.63264057  0.73780842  0.50971322  1
  O  O209  1  0.62727319  0.72458833  0.99870831  1
  O  O210  1  0.48293490  0.25398356  0.11673814  1
  O  O211  1  0.49858623  0.23846232  0.61797938  1
  O  O212  1  0.48504144  0.73693854  0.12182903  1
  O  O213  1  0.49071542  0.74816703  0.63290243  1
  O  O214  1  0.99768095  0.25267152  0.13407518  1
  O  O215  1  0.99864101  0.28457597  0.62498343  1
  O  O216  1  0.98482364  0.75338071  0.12144529  1
  O  O217  1  0.98851186  0.75755097  0.63702287  1
  O  O218  1  0.00872294  0.25032106  0.36272508  1
  O  O219  1  0.01962823  0.25893784  0.88518953  1
  O  O220  1  0.01303072  0.76073780  0.38174778  1
  O  O221  1  0.00683596  0.75607980  0.86836920  1
  O  O222  1  0.51169032  0.26927533  0.35914719  1
  O  O223  1  0.48688961  0.26939443  0.87410697  1
  O  O224  1  0.46296088  0.77922930  0.36633816  1
  O  O225  1  0.49780062  0.75534763  0.85732270  1
  O  O226  1  0.23599805  0.13274155  0.49273467  1
  O  O227  1  0.26309342  0.13814552  1.01150091  1
  O  O228  1  0.25410615  0.62888377  0.49313046  1
  O  O229  1  0.24715131  0.63280553  0.99016238  1
  O  O230  1  0.75184007  0.13181666  0.49533679  1
  O  O231  1  0.75102023  0.08387677  0.94517612  1
  O  O232  1  0.74460859  0.62048624  0.48541642  1
  O  O233  1  0.75344061  0.62154372  0.98527668  1
  O  O234  1  0.25075867  0.37341071  0.01284535  1
  O  O235  1  0.24552268  0.35499336  0.48880501  1
  O  O236  1  0.26722730  0.86255173  0.00679255  1
  O  O237  1  0.24140443  0.85703195  0.52232310  1
  O  O238  1  0.76159722  0.37737958  -0.00337325  1
  O  O239  1  0.75911495  0.36517549  0.49724234  1
  O  O240  1  0.75454210  0.87249411  -0.00213741  1
  O  O241  1  0.76621040  0.87947097  0.50600437  1
  O  O242  1  0.12978182  0.49427206  0.25277124  1
  O  O243  1  0.12005798  0.49780113  0.75049719  1
  O  O244  1  0.12317875  1.03404703  0.21563559  1
  O  O245  1  0.11331572  0.98731694  0.75000231  1
  O  O246  1  0.64457963  0.50382111  0.25968867  1
  O  O247  1  0.61963649  0.50447458  0.72864882  1
  O  O248  1  0.63232152  0.98890175  0.23767583  1
  O  O249  1  0.62076732  0.98345844  0.74272869  1
  O  O250  1  0.38078792  0.00353982  0.23554114  1
  O  O251  1  0.38389983  -0.00104059  0.75437323  1
  O  O252  1  0.36511074  0.49641114  0.26403026  1
  O  O253  1  0.37763083  0.51580651  0.76454470  1
  O  O254  1  0.87463376  0.00594522  0.25576751  1
  O  O255  1  0.86265781  -0.00002907  0.75941669  1
  O  O256  1  0.87107287  0.51544484  0.25802297  1
  O  O257  1  0.87794670  0.51350277  0.75396287  1
  O  O258  1  0.12386663  0.36532890  0.36021059  1
  O  O259  1  0.11461415  0.37634985  0.88332273  1
  O  O260  1  0.11578175  0.86850964  0.37970344  1
  O  O261  1  0.11197887  0.86302897  0.86113815  1
  O  O262  1  0.64714885  0.35765576  0.35479258  1
  O  O263  1  0.60861455  0.37143568  0.87212933  1
  O  O264  1  0.62165013  0.87522824  0.36279720  1
  O  O265  1  0.61611114  0.87032395  0.85920005  1
  O  O266  1  0.36797089  0.14625552  0.14359565  1
  O  O267  1  0.39868215  0.11031863  0.60478623  1
  O  O268  1  0.38259440  0.63364216  0.12097861  1
  O  O269  1  0.38004502  0.62632180  0.63501417  1
  O  O270  1  0.86580842  0.14266795  0.13399221  1
  O  O271  1  0.87367349  0.12087157  0.64275533  1
  O  O272  1  0.88541720  0.62954952  0.13916088  1
  O  O273  1  0.86315040  0.63210348  0.63735752  1
  O  O274  1  0.25438120  0.26325639  0.12137162  1
  O  O275  1  0.25150965  0.25104326  0.60327778  1
  O  O276  1  0.26163562  0.75103871  0.11461105  1
  O  O277  1  0.25346443  0.74322048  0.62416551  1
  O  O278  1  0.75338941  0.25774226  0.12852778  1
  O  O279  1  0.74242552  0.26555683  0.61372741  1
  O  O280  1  0.77187115  0.73278199  0.11633868  1
  O  O281  1  0.76321801  0.76267723  0.62827099  1
  O  O282  1  0.23629566  0.24662985  0.37922762  1
  O  O283  1  0.23665485  0.25634678  0.89711707  1
  O  O284  1  0.24160679  0.74804710  0.38637019  1
  O  O285  1  0.23928245  0.74139634  0.88336562  1
  O  O286  1  0.76045179  0.23416471  0.38316675  1
  O  O287  1  0.74199271  0.25688224  0.88392131  1
  O  O288  1  0.76221293  0.74067108  0.37633249  1
  O  O289  1  0.75457332  0.73396079  0.87962533  1
  O  O290  1  -0.04697016  0.10264175  -0.00258908  1
  O  O291  1  0.00844347  0.11280120  0.49684100  1
  O  O292  1  0.01297719  0.63146568  -0.00769402  1
  O  O293  1  -0.01230891  0.60823555  0.50275993  1
  O  O294  1  0.47424755  0.10336880  0.00223016  1
  O  O295  1  0.51737115  0.13006538  0.49169824  1
  O  O296  1  0.50722105  0.61884709  -0.00583710  1
  O  O297  1  0.51958822  0.62600731  0.49277950  1
  O  O298  1  0.50995639  0.38597553  0.49516798  1
  O  O299  1  0.48499133  0.37822302  1.01071196  1
  O  O300  1  0.51833585  0.87584857  0.48520737  1
  O  O301  1  0.49342742  0.85832574  0.98255078  1
  O  O302  1  0.98627927  0.38141486  0.49349918  1
  O  O303  1  0.98171696  0.36923326  0.98597338  1
  O  O304  1  0.99633916  0.88654280  0.49403621  1
  O  O305  1  1.00336710  0.88043276  0.98940913  1
  O  O306  1  0.49317634  0.49879669  0.37503450  1
  O  O307  1  0.49045263  0.48628821  0.87312741  1
  O  O308  1  0.49992601  0.98817520  0.37349047  1
  O  O309  1  0.50756892  0.98240062  0.86931123  1
  O  O310  1  0.98608607  0.49755108  0.38328957  1
  O  O311  1  0.98544500  0.48984063  0.87769722  1
  O  O312  1  0.99446766  0.98884172  0.37894634  1
  O  O313  1  1.00063298  0.98378281  0.88285710  1
  O  O314  1  -0.00975601  -0.00572384  0.11207970  1
  O  O315  1  -0.00044287  -0.00727162  0.61214385  1
  O  O316  1  -0.01005479  0.49134557  0.11529695  1
  O  O317  1  0.00999255  0.48503241  0.61230478  1
  O  O318  1  0.53950987  0.06163134  0.05514865  1
  O  O319  1  0.51491720  -0.00513293  0.61989460  1
  O  O320  1  0.48871057  0.51821499  0.12721373  1
  O  O321  1  0.51740464  0.50385867  0.60291184  1
  O  O322  1  0.23985048  0.38578931  0.24450318  1
  O  O323  1  0.29203905  0.37407575  0.73681403  1
  O  O324  1  0.26390298  0.88300906  0.22932073  1
  O  O325  1  0.23486526  0.88394269  0.74306462  1
  O  O326  1  0.76808397  0.39682877  0.24311576  1
  O  O327  1  0.76403673  0.37269581  0.73222636  1
  O  O328  1  0.74102885  0.88309296  0.24739313  1
  O  O329  1  0.73723394  0.86711556  0.74524876  1
  O  O330  1  0.27022255  0.12467298  0.25716238  1
  O  O331  1  0.26375339  0.11737074  0.74520724  1
  O  O332  1  0.24096580  0.61395992  0.25931826  1
  O  O333  1  0.25883473  0.63162184  0.76562403  1
  O  O334  1  0.76378269  0.11881731  0.26079420  1
  O  O335  1  0.74812635  0.11273675  0.74176912  1
  O  O336  1  0.75844613  0.62082446  0.26433123  1
  O  O337  1  0.76169016  0.62986061  0.76153261  1
  O  O338  1  0.37791084  0.12220621  0.36009894  1
  O  O339  1  0.35342264  0.12169402  0.84535166  1
  O  O340  1  0.36333711  0.62529225  0.37165358  1
  O  O341  1  0.37027729  0.62055108  0.87414515  1
  O  O342  1  0.87345296  0.11642513  0.36870039  1
  O  O343  1  0.86623577  0.13978480  0.85455610  1
  O  O344  1  0.86868718  0.62273333  0.36920852  1
  O  O345  1  0.86717863  0.61720068  0.86749386  1
  O  O346  1  0.13041277  0.37484164  0.13552975  1
  O  O347  1  0.14265311  0.40290576  0.61183305  1
  O  O348  1  0.14502243  0.86719530  0.12023326  1
  O  O349  1  0.13290148  0.86781038  0.63972605  1
  O  O350  1  0.59553911  0.36534920  0.18354550  1
  O  O351  1  0.63632230  0.38482982  0.61793589  1
  O  O352  1  0.62038858  0.87270724  0.12540473  1
  O  O353  1  0.63338867  0.87908229  0.63087439  1
  O  O354  1  0.11969809  0.25464167  0.25153907  1
  O  O355  1  0.13866770  0.25103981  0.76647450  1
  O  O356  1  0.13318501  0.75363235  0.26771614  1
  O  O357  1  0.11519289  0.74758654  0.75724515  1
  O  O358  1  0.62824680  0.22257942  0.25537816  1
  O  O359  1  0.63499848  0.25664924  0.76613571  1
  O  O360  1  0.63697387  0.76483543  0.24099435  1
  O  O361  1  0.61346015  0.75596797  0.73741587  1
  O  O362  1  0.37626100  0.27142449  0.23726427  1
  O  O363  1  0.32395811  0.15918815  0.78642867  1
  O  O364  1  0.36591239  0.74897348  0.23340063  1
  O  O365  1  0.38917716  0.73496070  0.74102972  1
  O  O366  1  0.87828890  0.24723021  0.23982748  1
  O  O367  1  0.87415702  0.22525423  0.75326234  1
  O  O368  1  0.87489840  0.73974728  0.24061465  1
  O  O369  1  0.88072052  0.74614226  0.74285204  1
  O  O370  1  0.39731809  0.51502222  0.48069322  1
  O  O371  1  0.36598052  0.48863793  0.99370845  1
  O  O372  1  0.33654383  0.98786897  0.45642812  1
  O  O373  1  0.38157529  0.97750663  1.00903942  1
  O  O374  1  0.88028174  0.49112360  0.49372771  1
  O  O375  1  0.87189771  0.48702800  0.99362462  1
  O  O376  1  0.88861946  0.99448998  0.49319243  1
  O  O377  1  0.87748925  0.97237501  1.00110349  1
  O  O378  1  0.09771427  0.02963573  0.00479608  1
  O  O379  1  0.11469615  0.01161932  0.49631282  1
  O  O380  1  0.12894737  0.52054523  0.00137148  1
  O  O381  1  0.10579656  0.50072616  0.48316549  1
  O  O382  1  0.56853781  0.00183759  0.01927271  1
  O  O383  1  0.63634173  0.01277761  0.50834951  1
  O  O384  1  0.63156629  0.51518857  -0.00037495  1
  O  O385  1  0.61746529  0.50531710  0.48944943  1
  O  O386  1  0.36509235  0.37615258  0.11935080  1
  O  O387  1  0.35339297  0.43067790  0.59720436  1
  O  O388  1  0.37723127  0.85826917  0.11289551  1
  O  O389  1  0.35716935  0.86014055  0.63722331  1
  O  O390  1  0.87405483  0.36314279  0.11403098  1
  O  O391  1  0.86067097  0.38440626  0.60688867  1
  O  O392  1  0.87102213  0.86143319  0.11476012  1
  O  O393  1  0.87014824  0.87122295  0.62071868  1
  O  O394  1  0.12791877  0.13007756  0.37696190  1
  O  O395  1  0.12166798  0.13770352  0.87623665  1
  O  O396  1  0.13420261  0.63937707  0.37678516  1
  O  O397  1  0.13053465  0.63108490  0.88154194  1
  O  O398  1  0.64001860  0.10972529  0.38570399  1
  O  O399  1  0.60656338  0.15034086  0.87953754  1
  O  O400  1  0.63982193  0.63171659  0.38237811  1
  O  O401  1  0.63854495  0.61573067  0.87946821  1
