# generated using pymatgen
data_V73Zn73O256
_symmetry_space_group_name_H-M   'P 1'
_cell_length_a   16.85760189
_cell_length_b   16.86523879
_cell_length_c   16.87368456
_cell_angle_alpha   89.89074567
_cell_angle_beta   89.98361622
_cell_angle_gamma   90.08937934
_symmetry_Int_Tables_number   1
_chemical_formula_structural   V73Zn73O256
_chemical_formula_sum   'V73 Zn73 O256'
_cell_volume   4797.29999614
_cell_formula_units_Z   1
loop_
 _symmetry_equiv_pos_site_id
 _symmetry_equiv_pos_as_xyz
  1  'x, y, z'
loop_
 _atom_site_type_symbol
 _atom_site_label
 _atom_site_symmetry_multiplicity
 _atom_site_fract_x
 _atom_site_fract_y
 _atom_site_fract_z
 _atom_site_occupancy
  V  V0  1  0.74135628  -0.00759908  0.74381962  1
  V  V1  1  0.12269982  0.84093140  0.25591947  1
  V  V2  1  0.36964919  0.74313007  0.10850733  1
  V  V3  1  0.63281465  0.38356019  0.24649516  1
  V  V4  1  -0.00143870  0.37703466  0.36258695  1
  V  V5  1  0.87865190  0.86653752  -0.00061855  1
  V  V6  1  0.52924831  0.37331058  0.88251356  1
  V  V7  1  0.37255430  0.89368366  0.00233420  1
  V  V8  1  0.50913178  0.87541179  0.87184290  1
  V  V9  1  0.87353402  0.25325643  0.61969814  1
  V  V10  1  -0.00030654  0.62695543  0.62633614  1
  V  V11  1  0.12506875  0.37434028  0.76719433  1
  V  V12  1  0.85380132  0.50953727  0.36682474  1
  V  V13  1  -0.00620097  0.48628135  -0.02414514  1
  V  V14  1  0.38439572  0.48650536  0.89050625  1
  V  V15  1  0.49166039  0.50930105  0.50224111  1
  V  V16  1  0.52941527  0.62206628  0.12930390  1
  V  V17  1  0.12653472  0.12795337  0.49152022  1
  V  V18  1  0.63595788  0.62793246  0.50131422  1
  V  V19  1  0.49374375  0.75347692  0.26510307  1
  V  V20  1  0.37279245  0.62252663  0.24749735  1
  V  V21  1  0.24996672  0.13933690  0.88606865  1
  V  V22  1  0.00920785  0.00462374  -0.00378467  1
  V  V23  1  0.74706459  0.25715795  0.00696467  1
  V  V24  1  0.26273520  0.49642017  0.74724638  1
  V  V25  1  0.62892371  0.87927764  0.26279404  1
  V  V26  1  0.87833832  0.12774894  0.75670052  1
  V  V27  1  0.36917766  -0.00139270  0.86280218  1
  V  V28  1  0.86548783  0.75433717  0.62157391  1
  V  V29  1  0.13193223  -0.00393320  0.13063233  1
  V  V30  1  0.37708193  0.25691483  0.10089758  1
  V  V31  1  0.00831494  0.85616969  0.38368824  1
  V  V32  1  0.37064897  0.49175963  0.37475510  1
  V  V33  1  0.88115825  0.00416977  0.87279953  1
  V  V34  1  0.13066748  0.14277426  0.00150578  1
  V  V35  1  0.00996062  0.87504359  0.86906862  1
  V  V36  1  0.48574676  0.35901203  0.38738267  1
  V  V37  1  0.25746931  0.37482334  0.11286808  1
  V  V38  1  0.88152330  0.00674386  0.37261686  1
  V  V39  1  0.48094960  0.74793199  0.74741851  1
  V  V40  1  0.62168008  0.49353676  0.62531529  1
  V  V41  1  0.12730957  0.25014500  0.37031558  1
  V  V42  1  -0.01606873  0.11847364  0.12683740  1
  V  V43  1  -0.00329469  0.49777525  0.49747529  1
  V  V44  1  0.26349940  0.62281705  0.87742663  1
  V  V45  1  0.86343938  0.37417938  0.50334250  1
  V  V46  1  0.61811412  0.10699238  0.01631838  1
  V  V47  1  0.24253065  0.49198543  0.24910488  1
  V  V48  1  0.24171667  0.63062676  0.37629058  1
  V  V49  1  0.74046086  0.12745011  0.88438828  1
  V  V50  1  0.26481685  0.85034208  0.62230949  1
  V  V51  1  0.91148508  0.69351002  0.19647113  1
  V  V52  1  0.50996896  0.11655128  0.63016944  1
  V  V53  1  0.12984002  0.63236682  0.49430333  1
  V  V54  1  0.75584768  0.00088208  0.24704635  1
  V  V55  1  0.13136857  0.74750175  0.87540464  1
  V  V56  1  0.64037475  0.24554637  0.37848096  1
  V  V57  1  0.36991789  0.13899412  0.74919067  1
  V  V58  1  0.76727032  0.51235751  0.74650661  1
  V  V59  1  0.11307640  0.49349687  0.12704203  1
  V  V60  1  0.64676277  0.12617889  0.50217826  1
  V  V61  1  0.64125676  0.74912206  0.38400700  1
  V  V62  1  0.00065243  0.12184279  0.61894315  1
  V  V63  1  0.00507407  0.25645221  0.76398555  1
  V  V64  1  0.11836516  0.62469073  -0.00051791  1
  V  V65  1  0.86911409  0.27186766  0.12790018  1
  V  V66  1  0.12460342  0.48779476  0.62298422  1
  V  V67  1  0.48997509  0.24204385  0.24745760  1
  V  V68  1  0.14171464  0.00517190  0.62577556  1
  V  V69  1  0.00738233  0.74925882  0.74613117  1
  V  V70  1  0.70636745  0.86191416  0.08740919  1
  V  V71  1  0.85646931  0.87468963  0.49789135  1
  V  V72  1  0.52544637  0.25589514  0.75171234  1
  Zn  Zn73  1  0.72571522  0.36167293  0.62703698  1
  Zn  Zn74  1  0.27951324  0.05479957  0.33112253  1
  Zn  Zn75  1  0.14463155  0.89843350  0.75747168  1
  Zn  Zn76  1  0.50892556  0.00009248  0.50069008  1
  Zn  Zn77  1  -0.00859037  0.23274212  0.25242971  1
  Zn  Zn78  1  0.47384612  0.88687505  0.39061212  1
  Zn  Zn79  1  0.49216920  0.10266451  0.12455387  1
  Zn  Zn80  1  0.33076061  0.29715820  0.54883888  1
  Zn  Zn81  1  0.24027067  0.86402612  0.11845880  1
  Zn  Zn82  1  0.19020460  0.18606003  0.19434060  1
  Zn  Zn83  1  0.19289958  0.20200529  0.67990297  1
  Zn  Zn84  1  0.18982568  0.67784718  0.18030726  1
  Zn  Zn85  1  0.18950235  0.67631533  0.68874805  1
  Zn  Zn86  1  0.68301984  0.18697170  0.18920230  1
  Zn  Zn87  1  0.69316410  0.17829692  0.68866448  1
  Zn  Zn88  1  0.73588659  0.66855323  0.16239016  1
  Zn  Zn89  1  0.64534414  0.66832955  0.70626006  1
  Zn  Zn90  1  0.30578929  0.30711102  0.30689458  1
  Zn  Zn91  1  0.31536838  0.31519356  0.80966483  1
  Zn  Zn92  1  0.30332140  0.81017576  0.30614864  1
  Zn  Zn93  1  0.31493605  0.80889385  0.80555813  1
  Zn  Zn94  1  0.81433517  0.31756548  0.31038641  1
  Zn  Zn95  1  0.80935758  0.32062581  0.78975563  1
  Zn  Zn96  1  0.81412793  0.79048933  0.30461696  1
  Zn  Zn97  1  0.82519308  0.81465416  0.80559299  1
  Zn  Zn98  1  0.18434955  0.43104392  0.43656746  1
  Zn  Zn99  1  0.18858981  0.44005587  0.93902322  1
  Zn  Zn100  1  0.20097581  0.92059088  0.43726391  1
  Zn  Zn101  1  0.19784220  0.94114454  0.94054107  1
  Zn  Zn102  1  0.67655217  0.43156828  0.43844782  1
  Zn  Zn103  1  0.74314286  0.41576235  0.90416253  1
  Zn  Zn104  1  0.68837993  0.94436846  0.43161590  1
  Zn  Zn105  1  0.68914222  0.93916588  0.92702965  1
  Zn  Zn106  1  0.32072374  0.06257246  0.15491507  1
  Zn  Zn107  1  0.30458242  0.10824171  0.56815835  1
  Zn  Zn108  1  0.31260801  0.55984919  0.06016658  1
  Zn  Zn109  1  0.31104547  0.45424824  0.56547573  1
  Zn  Zn110  1  0.80510523  0.03953585  0.06556027  1
  Zn  Zn111  1  0.81919133  0.05759187  0.56231594  1
  Zn  Zn112  1  0.81960378  0.53350247  0.06946639  1
  Zn  Zn113  1  0.81023825  0.56509337  0.56649713  1
  Zn  Zn114  1  0.44962742  0.43475598  0.18857316  1
  Zn  Zn115  1  0.44704329  0.42721683  0.68811782  1
  Zn  Zn116  1  0.42796776  0.93031287  0.21054062  1
  Zn  Zn117  1  0.43513455  0.93480936  0.68480199  1
  Zn  Zn118  1  0.92847962  0.44912494  0.19119771  1
  Zn  Zn119  1  0.93729638  0.43773183  0.69123144  1
  Zn  Zn120  1  0.93000410  0.90441061  0.20267993  1
  Zn  Zn121  1  0.93833210  0.93563172  0.68473957  1
  Zn  Zn122  1  0.08184856  0.03562292  0.33377681  1
  Zn  Zn123  1  0.06960858  0.07298090  0.81156842  1
  Zn  Zn124  1  0.05039830  0.57449659  0.30768436  1
  Zn  Zn125  1  0.06367907  0.56369032  0.81012478  1
  Zn  Zn126  1  0.56140852  0.06480679  0.31850935  1
  Zn  Zn127  1  0.55910459  0.05783575  0.81592288  1
  Zn  Zn128  1  0.56346716  0.56511860  0.31685215  1
  Zn  Zn129  1  0.57362224  0.55629988  0.82272024  1
  Zn  Zn130  1  0.44415577  0.17849557  0.43763914  1
  Zn  Zn131  1  0.44690809  0.19087228  0.93359150  1
  Zn  Zn132  1  0.43095454  0.67781004  0.43346407  1
  Zn  Zn133  1  0.54750298  0.69059785  0.93311274  1
  Zn  Zn134  1  0.93541034  0.19015063  0.43562991  1
  Zn  Zn135  1  0.92315681  0.31540461  0.93810919  1
  Zn  Zn136  1  0.93072637  0.68563668  0.44295978  1
  Zn  Zn137  1  0.92481363  0.67285948  1.02490651  1
  Zn  Zn138  1  0.05836893  0.31458085  0.07097467  1
  Zn  Zn139  1  0.05592968  0.31003963  0.55985326  1
  Zn  Zn140  1  0.04922079  0.80642858  0.07024681  1
  Zn  Zn141  1  0.07792286  0.81894690  0.56418773  1
  Zn  Zn142  1  0.57288456  0.30952468  0.06343525  1
  Zn  Zn143  1  0.53210900  0.30318996  0.55289037  1
  Zn  Zn144  1  0.53878766  0.82141243  0.07442624  1
  Zn  Zn145  1  0.54610201  0.80838602  0.55853408  1
  O  O146  1  0.12678918  0.11666669  0.11166110  1
  O  O147  1  0.11351976  0.13180016  0.61859563  1
  O  O148  1  0.13307865  0.60923885  0.10535501  1
  O  O149  1  0.11854516  0.61154041  0.61414538  1
  O  O150  1  0.61734814  0.11408177  0.12067723  1
  O  O151  1  0.62124011  0.13084654  0.61392515  1
  O  O152  1  0.62731231  0.63797715  0.15207683  1
  O  O153  1  0.61537955  0.61523908  0.60510867  1
  O  O154  1  0.37504861  0.38332477  0.36575642  1
  O  O155  1  0.37610078  0.38560920  0.87636752  1
  O  O156  1  0.35202873  0.89964246  0.36205455  1
  O  O157  1  0.36788704  0.88752327  0.88100088  1
  O  O158  1  0.88112770  0.38558806  0.38318852  1
  O  O159  1  0.84813792  0.37362299  0.87923185  1
  O  O160  1  0.88393288  0.87028019  0.39085456  1
  O  O161  1  0.89042600  0.88590477  0.87640106  1
  O  O162  1  0.18747365  0.00644888  0.37314951  1
  O  O163  1  0.26306199  0.01463395  0.87630875  1
  O  O164  1  0.25079370  0.50361709  0.36554655  1
  O  O165  1  0.26069349  0.50044306  0.86798723  1
  O  O166  1  0.76655174  -0.00547730  0.36070817  1
  O  O167  1  0.76375559  0.01138471  0.86889679  1
  O  O168  1  0.75600343  0.49548891  0.38449464  1
  O  O169  1  0.74384596  0.51174776  0.84648392  1
  O  O170  1  0.24387583  0.49210444  0.13009266  1
  O  O171  1  0.23958020  0.50644397  0.64214733  1
  O  O172  1  0.23475878  0.98958352  0.11812696  1
  O  O173  1  0.24052463  1.01941452  0.61922481  1
  O  O174  1  0.71270195  0.50135289  0.08712025  1
  O  O175  1  0.73066763  0.49807219  0.62137359  1
  O  O176  1  0.75044443  0.96683919  0.13915420  1
  O  O177  1  0.76056014  1.00634969  0.64529409  1
  O  O178  1  -0.00431325  0.38325012  0.26235874  1
  O  O179  1  0.01008905  0.36546170  0.74789832  1
  O  O180  1  0.02425480  0.88242184  0.26438355  1
  O  O181  1  0.01049180  0.87236191  0.75720787  1
  O  O182  1  0.50305781  0.36205990  0.26727477  1
  O  O183  1  0.50779844  0.36119438  0.75772417  1
  O  O184  1  0.50489578  0.86745919  0.26353938  1
  O  O185  1  0.48641198  0.86416068  0.76366056  1
  O  O186  1  0.50961851  0.13928449  0.24243484  1
  O  O187  1  0.50010523  0.13576617  0.75183129  1
  O  O188  1  0.48929271  0.63429145  0.25289722  1
  O  O189  1  0.54208409  0.65984515  0.76199642  1
  O  O190  1  0.99919557  0.11670958  0.22648084  1
  O  O191  1  0.99711866  0.14025136  0.74661747  1
  O  O192  1  0.97421879  0.63327551  0.24788710  1
  O  O193  1  1.00811587  0.63369584  0.73730649  1
  O  O194  1  0.38635100  0.26513015  0.00231856  1
  O  O195  1  0.42843862  0.28158238  0.48242829  1
  O  O196  1  0.37955048  0.73998671  0.01198113  1
  O  O197  1  0.37393199  0.71089855  0.53718226  1
  O  O198  1  0.86065071  0.25222318  0.01555969  1
  O  O199  1  0.88039623  0.26021414  0.50911565  1
  O  O200  1  0.87627516  0.76773560  -0.01857921  1
  O  O201  1  0.87846918  0.76351161  0.51030273  1
  O  O202  1  0.11005388  0.24065600  0.48697382  1
  O  O203  1  0.12328299  0.24081756  1.00834045  1
  O  O204  1  0.12378098  0.73044216  0.50376490  1
  O  O205  1  0.11502198  0.73335607  0.99232285  1
  O  O206  1  0.61824421  0.24095365  0.48777323  1
  O  O207  1  0.64308859  0.22634810  1.01531469  1
  O  O208  1  0.61527177  0.74032251  0.49267976  1
  O  O209  1  0.64164548  0.81994822  1.01895374  1
  O  O210  1  0.48667570  0.26294905  0.13580102  1
  O  O211  1  0.50663808  0.23738656  0.64491742  1
  O  O212  1  0.48814423  0.74136990  0.14366064  1
  O  O213  1  0.50009739  0.75850682  0.64808742  1
  O  O214  1  0.98244163  0.23817952  0.12076476  1
  O  O215  1  0.99186942  0.24217346  0.63431444  1
  O  O216  1  0.97776403  0.72870656  0.11444016  1
  O  O217  1  1.01277284  0.74402261  0.63160922  1
  O  O218  1  -0.00945637  0.26724763  0.36870030  1
  O  O219  1  -0.00484544  0.25377961  0.86220592  1
  O  O220  1  -0.00894631  0.75752264  0.37644464  1
  O  O221  1  0.01397677  0.76109944  0.86381245  1
  O  O222  1  0.50713761  0.24551457  0.36043291  1
  O  O223  1  0.50888406  0.26157570  0.86473579  1
  O  O224  1  0.47864127  0.76012230  0.37222790  1
  O  O225  1  0.49725849  0.76675668  0.86779127  1
  O  O226  1  0.22373030  0.12977242  0.48075144  1
  O  O227  1  0.24037255  0.12828094  0.99197820  1
  O  O228  1  0.23220647  0.61207105  0.48892877  1
  O  O229  1  0.23627544  0.61012307  0.98362594  1
  O  O230  1  0.74614246  0.13152094  0.50868542  1
  O  O231  1  0.74548924  0.11539487  0.99418334  1
  O  O232  1  0.73544227  0.62594611  0.50100275  1
  O  O233  1  0.69155773  0.59454549  0.99218241  1
  O  O234  1  0.25109794  0.37992004  0.01359784  1
  O  O235  1  0.25813368  0.37831530  0.49943319  1
  O  O236  1  0.26707684  0.87110305  0.00114130  1
  O  O237  1  0.24049484  0.86839191  0.52245625  1
  O  O238  1  0.73070937  0.35498168  0.00271167  1
  O  O239  1  0.76038122  0.37758931  0.50686360  1
  O  O240  1  0.77191285  0.89448944  -0.00145223  1
  O  O241  1  0.75762152  0.87508136  0.49932717  1
  O  O242  1  0.12733693  0.51385737  0.23361605  1
  O  O243  1  0.12449371  0.48564166  0.74430184  1
  O  O244  1  0.11878523  1.00906768  0.22725626  1
  O  O245  1  0.12615077  1.01355091  0.73357707  1
  O  O246  1  0.61964600  0.48206020  0.26890392  1
  O  O247  1  0.60921682  0.50322156  0.72497034  1
  O  O248  1  0.63761030  0.98632643  0.26944901  1
  O  O249  1  0.64198136  1.00656805  0.75563500  1
  O  O250  1  0.35309205  -0.03931305  0.29935200  1
  O  O251  1  0.37634584  0.01164524  0.76041826  1
  O  O252  1  0.36543063  0.50606078  0.25473284  1
  O  O253  1  0.36404268  0.49538189  0.75312385  1
  O  O254  1  0.86561009  -0.01668846  0.25871261  1
  O  O255  1  0.87824259  0.00934872  0.75810791  1
  O  O256  1  0.86340101  0.50180840  0.26500226  1
  O  O257  1  0.86904854  0.51523441  0.73473082  1
  O  O258  1  0.10667498  0.36357172  0.37920969  1
  O  O259  1  0.12566251  0.37478856  0.86581785  1
  O  O260  1  0.12147306  0.85059663  0.36569397  1
  O  O261  1  0.12765947  0.86786809  0.87488762  1
  O  O262  1  0.61258012  0.35705520  0.37410567  1
  O  O263  1  0.62659949  0.38757732  0.87169259  1
  O  O264  1  0.62071105  0.86325382  0.37809952  1
  O  O265  1  0.60813320  0.88296820  0.87160625  1
  O  O266  1  0.37578026  0.15635707  0.10966808  1
  O  O267  1  0.39470112  0.11949333  0.64638248  1
  O  O268  1  0.37266357  0.62903444  0.13451980  1
  O  O269  1  0.37290085  0.65906282  0.59020929  1
  O  O270  1  0.88438207  0.11146769  0.11463233  1
  O  O271  1  0.88380437  0.13140940  0.63614044  1
  O  O272  1  0.85069572  0.63510301  0.10934697  1
  O  O273  1  0.89139792  0.64221493  0.60916100  1
  O  O274  1  0.26128556  0.26725746  0.13061954  1
  O  O275  1  0.27356159  0.21507961  0.60427023  1
  O  O276  1  0.26447096  0.74600027  0.12397177  1
  O  O277  1  0.24798361  0.74998633  0.62831797  1
  O  O278  1  0.76236283  0.24155208  0.11991017  1
  O  O279  1  0.76858812  0.25121577  0.63870553  1
  O  O280  1  0.75330259  0.78326770  0.12286008  1
  O  O281  1  0.77061535  0.74774967  0.63144634  1
  O  O282  1  0.22731725  0.25277631  0.36967946  1
  O  O283  1  0.25979816  0.23835722  0.87826273  1
  O  O284  1  0.25497920  0.72993965  0.37369857  1
  O  O285  1  0.24471503  0.73208535  0.86831054  1
  O  O286  1  0.73973045  0.25329402  0.37477045  1
  O  O287  1  0.75610187  0.23117438  0.89256649  1
  O  O288  1  0.73966805  0.75175820  0.38407327  1
  O  O289  1  0.76287897  0.72330700  0.86148381  1
  O  O290  1  0.01824687  0.11625688  0.00419012  1
  O  O291  1  -0.00702265  0.12922177  0.51752733  1
  O  O292  1  0.01259299  0.60581672  -0.00962867  1
  O  O293  1  0.00931830  0.61520293  0.50435812  1
  O  O294  1  0.51572680  0.12570764  0.00117209  1
  O  O295  1  0.50418821  0.12048384  0.52279691  1
  O  O296  1  0.52021517  0.64084581  0.03002787  1
  O  O297  1  0.50709923  0.61208761  0.48737853  1
  O  O298  1  0.51345307  0.40029726  0.48444638  1
  O  O299  1  0.51731492  0.36723617  0.98224305  1
  O  O300  1  0.49252685  0.88822978  0.50548288  1
  O  O301  1  0.48060705  0.86908688  0.98475206  1
  O  O302  1  0.99020873  0.38455791  0.49216081  1
  O  O303  1  1.00235304  0.38100081  0.99512341  1
  O  O304  1  1.01513528  0.87387622  0.48432772  1
  O  O305  1  1.00031217  0.88094510  0.98374778  1
  O  O306  1  0.48388863  0.49243306  0.37689388  1
  O  O307  1  0.49152387  0.48488948  0.86631043  1
  O  O308  1  0.49621729  1.00275750  0.38363240  1
  O  O309  1  0.48410248  0.98742318  0.87063512  1
  O  O310  1  0.99544913  0.49200842  0.38072494  1
  O  O311  1  1.00331083  0.49242598  0.87630395  1
  O  O312  1  0.98541125  0.98081841  0.36975628  1
  O  O313  1  1.00277254  0.99671842  0.87601226  1
  O  O314  1  0.01009224  0.00780619  0.11117495  1
  O  O315  1  0.00100097  0.02040508  0.63605419  1
  O  O316  1  0.01108446  0.49349735  0.12176936  1
  O  O317  1  0.00492978  0.50698401  0.61779831  1
  O  O318  1  0.42448297  0.01511965  0.14337551  1
  O  O319  1  0.50857999  0.01388644  0.64008525  1
  O  O320  1  0.50418813  0.52393250  0.14084252  1
  O  O321  1  0.50086594  0.49997042  0.60693161  1
  O  O322  1  0.24713431  0.38825724  0.24404983  1
  O  O323  1  0.23699713  0.38468436  0.75445881  1
  O  O324  1  0.22517430  0.86403403  0.24038166  1
  O  O325  1  0.25230933  0.87233577  0.73326718  1
  O  O326  1  0.73338585  0.37223066  0.25263955  1
  O  O327  1  0.74988880  0.39865583  0.73386118  1
  O  O328  1  0.73204777  0.86966153  0.26088042  1
  O  O329  1  0.75793765  0.89351625  0.76393147  1
  O  O330  1  0.26864144  0.11870835  0.23933097  1
  O  O331  1  0.26503811  0.13618838  0.76054843  1
  O  O332  1  0.25407711  0.61386456  0.25494984  1
  O  O333  1  0.23836572  0.60342001  0.76635465  1
  O  O334  1  0.74814771  0.09905877  0.23344703  1
  O  O335  1  0.76041556  0.12066116  0.76531378  1
  O  O336  1  0.81209101  0.68055119  0.24519050  1
  O  O337  1  0.74023339  0.61113015  0.72541804  1
  O  O338  1  0.36356260  0.09552858  0.41406322  1
  O  O339  1  0.37217207  0.11852711  0.87113906  1
  O  O340  1  0.36304508  0.61216545  0.36512969  1
  O  O341  1  0.36271399  0.60878384  0.87656973  1
  O  O342  1  0.88640463  0.10665660  0.37508278  1
  O  O343  1  0.87359345  0.11846766  0.86580258  1
  O  O344  1  0.87244088  0.60672492  0.38948339  1
  O  O345  1  0.80211498  0.66396892  0.88300165  1
  O  O346  1  0.13530243  0.38777903  0.12332246  1
  O  O347  1  0.11829563  0.38466255  0.62674967  1
  O  O348  1  0.11577123  0.88027138  0.13130942  1
  O  O349  1  0.13440270  0.89594095  0.62984669  1
  O  O350  1  0.61115570  0.37379200  0.14787243  1
  O  O351  1  0.61336681  0.38946158  0.60606986  1
  O  O352  1  0.61437259  0.87563687  0.15454726  1
  O  O353  1  0.64249833  0.83970317  0.64885584  1
  O  O354  1  0.11191398  0.24062624  0.26397946  1
  O  O355  1  0.11780146  0.26256895  0.74604512  1
  O  O356  1  0.11422568  0.74279923  0.23693102  1
  O  O357  1  0.12164647  0.74552063  0.76148223  1
  O  O358  1  0.61972046  0.25383008  0.26124327  1
  O  O359  1  0.62547879  0.24700967  0.75304265  1
  O  O360  1  0.61009997  0.75891200  0.27564400  1
  O  O361  1  0.64425291  0.79711812  0.71091262  1
  O  O362  1  0.38790955  0.24730174  0.25419445  1
  O  O363  1  0.38787757  0.24000948  0.75842190  1
  O  O364  1  0.37588691  0.73872998  0.24684803  1
  O  O365  1  0.38240938  0.72969513  0.75529865  1
  O  O366  1  0.87503363  0.25453210  0.23380496  1
  O  O367  1  0.88759735  0.24603680  0.74437805  1
  O  O368  1  0.90565501  0.79190688  0.23591007  1
  O  O369  1  0.89601270  0.76035053  0.73271274  1
  O  O370  1  0.38373383  0.50851677  0.48900170  1
  O  O371  1  0.38003061  0.49935080  0.98956585  1
  O  O372  1  0.36137053  1.04761683  0.48151598  1
  O  O373  1  0.37542712  0.99219534  0.98973382  1
  O  O374  1  0.88215408  0.49307849  0.50087899  1
  O  O375  1  0.89430607  0.50230653  0.99427693  1
  O  O376  1  0.87055848  0.98687218  0.48657460  1
  O  O377  1  0.89094928  0.99892393  0.98548288  1
  O  O378  1  0.12016675  -0.00096020  0.00488775  1
  O  O379  1  0.11305254  0.02182401  0.52117204  1
  O  O380  1  0.11326448  0.50172228  0.00481156  1
  O  O381  1  0.11290016  0.50018134  0.50527858  1
  O  O382  1  0.63035848  0.00697070  0.00200439  1
  O  O383  1  0.63169469  0.02191821  0.49465146  1
  O  O384  1  0.66630616  0.52799421  0.02185124  1
  O  O385  1  0.61532816  0.51331158  0.49804970  1
  O  O386  1  0.36503182  0.37501736  0.13000628  1
  O  O387  1  0.37138690  0.37728812  0.62497296  1
  O  O388  1  0.37961428  0.85859056  0.11311491  1
  O  O389  1  0.36441587  0.87183868  0.62360455  1
  O  O390  1  0.87343111  0.37201767  0.12391690  1
  O  O391  1  0.88362620  0.36611075  0.61617061  1
  O  O392  1  0.89698038  0.88255529  0.09623981  1
  O  O393  1  0.88489353  0.86855414  0.60855734  1
  O  O394  1  0.09420223  0.14017840  0.38637140  1
  O  O395  1  0.13879450  0.12621730  0.88664405  1
  O  O396  1  0.12598197  0.61801921  0.38414922  1
  O  O397  1  0.13058098  0.62850743  0.88277180  1
  O  O398  1  0.62748336  0.13647158  0.38664380  1
  O  O399  1  0.63788114  0.11863554  0.88532928  1
  O  O400  1  0.62105440  0.64067822  0.38335414  1
  O  O401  1  0.62832262  0.63222965  0.88422539  1
