# generated using pymatgen
data_V73Zn73O256
_symmetry_space_group_name_H-M   'P 1'
_cell_length_a   16.85977741
_cell_length_b   16.83221698
_cell_length_c   16.84644630
_cell_angle_alpha   90.19775265
_cell_angle_beta   89.97661411
_cell_angle_gamma   89.97701761
_symmetry_Int_Tables_number   1
_chemical_formula_structural   V73Zn73O256
_chemical_formula_sum   'V73 Zn73 O256'
_cell_volume   4780.78046626
_cell_formula_units_Z   1
loop_
 _symmetry_equiv_pos_site_id
 _symmetry_equiv_pos_as_xyz
  1  'x, y, z'
loop_
 _atom_site_type_symbol
 _atom_site_label
 _atom_site_symmetry_multiplicity
 _atom_site_fract_x
 _atom_site_fract_y
 _atom_site_fract_z
 _atom_site_occupancy
  V  V0  1  0.47589798  0.37383700  0.37780677  1
  V  V1  1  0.60137573  0.87428372  0.25140543  1
  V  V2  1  0.24852394  0.49333193  0.75099040  1
  V  V3  1  0.63259332  0.74412150  0.87751274  1
  V  V4  1  0.73498465  0.37494549  0.11343007  1
  V  V5  1  0.87339869  0.12732306  0.74581498  1
  V  V6  1  0.49766981  0.76446374  0.75331176  1
  V  V7  1  0.26539734  0.00321685  0.24279443  1
  V  V8  1  0.11546860  0.24946259  0.36255495  1
  V  V9  1  0.88967143  0.24394486  0.61902176  1
  V  V10  1  0.23861043  0.65721807  0.40066565  1
  V  V11  1  -0.00197192  0.62578149  0.13604243  1
  V  V12  1  0.37198395  0.76895108  0.62111348  1
  V  V13  1  0.13266410  0.13666536  -0.01313493  1
  V  V14  1  0.11267372  0.51343832  0.62737966  1
  V  V15  1  0.50141768  -0.00442260  0.48522950  1
  V  V16  1  0.48360453  0.50676110  0.49733661  1
  V  V17  1  0.12442058  0.12251071  0.50198010  1
  V  V18  1  0.00737421  0.87257690  0.36477476  1
  V  V19  1  0.11548763  0.35507062  0.74134599  1
  V  V20  1  0.25265513  0.64267371  0.88152086  1
  V  V21  1  0.37515253  0.49460432  0.88356381  1
  V  V22  1  0.88155044  0.38323721  0.49633204  1
  V  V23  1  0.87301484  0.51068789  0.86386528  1
  V  V24  1  0.13437323  0.86327365  0.74426126  1
  V  V25  1  0.25992091  0.36807521  0.62410495  1
  V  V26  1  0.12870070  0.49331266  0.12568455  1
  V  V27  1  0.00158502  0.35788699  0.86672954  1
  V  V28  1  0.50832284  0.37222999  0.88091563  1
  V  V29  1  0.74974750  0.36133379  0.61673122  1
  V  V30  1  0.60009233  0.74825996  0.37413372  1
  V  V31  1  0.38640961  0.00676298  0.88165876  1
  V  V32  1  0.36994953  0.87827504  0.47559983  1
  V  V33  1  0.87057541  0.00097331  0.37339518  1
  V  V34  1  0.63389803  0.00086912  0.62078343  1
  V  V35  1  0.87111193  0.86524836  0.00507965  1
  V  V36  1  0.25113501  0.00774004  0.74570306  1
  V  V37  1  0.61967926  0.50451720  0.61591717  1
  V  V38  1  0.48226062  0.24334989  0.74929194  1
  V  V39  1  0.13065549  0.63616540  -0.00576834  1
  V  V40  1  0.62001942  0.37170489  0.27151789  1
  V  V41  1  0.74955827  0.12148254  0.88688280  1
  V  V42  1  0.64014410  0.25107794  0.88427416  1
  V  V43  1  0.24546432  0.37220295  0.13315045  1
  V  V44  1  0.00652390  0.49937068  -0.01032931  1
  V  V45  1  0.36234418  0.74118682  0.13654071  1
  V  V46  1  0.63960643  0.88361775  0.74929693  1
  V  V47  1  0.00686277  0.38629756  0.37145945  1
  V  V48  1  0.12640481  0.87015505  0.24011536  1
  V  V49  1  0.85931816  0.36984243  -0.00798511  1
  V  V50  1  0.51776757  0.50763436  0.00520938  1
  V  V51  1  0.12627163  0.01177269  0.12521729  1
  V  V52  1  0.62619620  0.36531807  0.74429340  1
  V  V53  1  0.86942807  0.75083138  0.62768079  1
  V  V54  1  0.51258645  0.63644832  0.13293159  1
  V  V55  1  0.36435415  0.86414950  -0.00351002  1
  V  V56  1  0.38152933  0.62173106  0.73792716  1
  V  V57  1  0.88906300  0.13706206  0.24698957  1
  V  V58  1  0.49141468  0.12390964  0.13149009  1
  V  V59  1  0.62925913  0.00951537  0.11473927  1
  V  V60  1  0.74888617  0.86871065  0.13327554  1
  V  V61  1  0.87665667  0.74472217  0.14886909  1
  V  V62  1  0.74995172  0.50618727  0.74810241  1
  V  V63  1  0.00293596  -0.00344748  0.50022383  1
  V  V64  1  -0.00598007  0.00923562  0.00920424  1
  V  V65  1  0.26137153  0.25171867  0.50057860  1
  V  V66  1  0.73926592  0.15066934  0.38199323  1
  V  V67  1  0.76323443  0.49685098  0.24944934  1
  V  V68  1  0.76129119  0.62364536  0.37395924  1
  V  V69  1  0.37607186  0.25251897  0.14448185  1
  V  V70  1  0.37243544  0.36363712  -0.00132712  1
  V  V71  1  0.26713882  0.12477872  0.36629359  1
  V  V72  1  0.87183200  -0.00691529  0.86600006  1
  Zn  Zn73  1  0.01660512  0.11772288  0.63822013  1
  Zn  Zn74  1  0.49736559  0.12301712  0.62758483  1
  Zn  Zn75  1  0.88272368  0.24700348  0.12181518  1
  Zn  Zn76  1  0.69775079  0.69664413  0.04140642  1
  Zn  Zn77  1  0.62066851  0.63883932  0.49892877  1
  Zn  Zn78  1  0.01794478  0.87445336  0.87969638  1
  Zn  Zn79  1  0.34270854  0.51727966  0.34522861  1
  Zn  Zn80  1  0.00312496  0.52123248  0.50067604  1
  Zn  Zn81  1  0.74556014  0.00935953  0.25211074  1
  Zn  Zn82  1  0.18800381  0.18822180  0.18057518  1
  Zn  Zn83  1  0.19877177  0.18098128  0.68655936  1
  Zn  Zn84  1  0.18533560  0.67499564  0.20147915  1
  Zn  Zn85  1  0.19784367  0.68918959  0.68861470  1
  Zn  Zn86  1  0.69917980  0.19606591  0.19604065  1
  Zn  Zn87  1  0.69134556  0.17781515  0.68779711  1
  Zn  Zn88  1  0.68524166  0.68662193  0.20681816  1
  Zn  Zn89  1  0.67840339  0.68776649  0.68978491  1
  Zn  Zn90  1  0.30336281  0.32059018  0.31737553  1
  Zn  Zn91  1  0.30482454  0.18295424  0.83918042  1
  Zn  Zn92  1  0.31000456  0.81320001  0.30411255  1
  Zn  Zn93  1  0.31583567  0.82683372  0.81209139  1
  Zn  Zn94  1  0.81467306  0.31821439  0.31075722  1
  Zn  Zn95  1  0.81464841  0.31246934  0.80366816  1
  Zn  Zn96  1  0.79855852  0.82292652  0.33558963  1
  Zn  Zn97  1  0.80748226  0.81320454  0.81644218  1
  Zn  Zn98  1  0.17964676  0.43844372  0.44018450  1
  Zn  Zn99  1  0.21655295  0.36390471  0.90169070  1
  Zn  Zn100  1  0.19199226  0.93770077  0.42961527  1
  Zn  Zn101  1  0.19868435  0.94087874  0.92863026  1
  Zn  Zn102  1  0.69183190  0.43762970  0.43425341  1
  Zn  Zn103  1  0.69461736  0.56107437  0.93222487  1
  Zn  Zn104  1  0.68523438  0.92493278  0.44226256  1
  Zn  Zn105  1  0.68521906  0.92689412  0.93797128  1
  Zn  Zn106  1  0.31089248  0.06634521  0.05274644  1
  Zn  Zn107  1  0.32326379  0.05999397  0.55963800  1
  Zn  Zn108  1  0.32221877  0.56242321  0.14993560  1
  Zn  Zn109  1  0.28064672  0.55093376  0.53243114  1
  Zn  Zn110  1  0.81053612  0.06222363  0.06826069  1
  Zn  Zn111  1  0.81021571  0.06236231  0.55390012  1
  Zn  Zn112  1  0.81630761  0.55058868  0.07119179  1
  Zn  Zn113  1  0.80189894  0.55597869  0.55338619  1
  Zn  Zn114  1  0.44701925  0.44396838  0.18897334  1
  Zn  Zn115  1  0.44028539  0.43330793  0.68969924  1
  Zn  Zn116  1  0.43706484  0.92675161  0.15047779  1
  Zn  Zn117  1  0.43917174  0.95120243  0.69011023  1
  Zn  Zn118  1  0.94696706  0.41659490  0.17460997  1
  Zn  Zn119  1  0.93680235  0.43516324  0.68341088  1
  Zn  Zn120  1  0.93434825  0.94026137  0.19091892  1
  Zn  Zn121  1  0.95488914  0.93673748  0.69362183  1
  Zn  Zn122  1  0.06520244  0.06343827  0.31399192  1
  Zn  Zn123  1  0.06413451  0.05233668  0.81152233  1
  Zn  Zn124  1  0.08759803  0.56183610  0.31357535  1
  Zn  Zn125  1  0.07012621  0.55904971  0.81534308  1
  Zn  Zn126  1  0.56479345  0.06968471  0.30414625  1
  Zn  Zn127  1  0.56404578  0.06326051  0.81290028  1
  Zn  Zn128  1  0.56657000  0.55257014  0.31201699  1
  Zn  Zn129  1  0.56119129  0.56098282  0.80953156  1
  Zn  Zn130  1  0.46237208  0.19263146  0.44779940  1
  Zn  Zn131  1  0.45780113  0.17980643  0.94915920  1
  Zn  Zn132  1  0.42702542  0.68233647  0.43855667  1
  Zn  Zn133  1  0.44112019  0.68673164  0.93836719  1
  Zn  Zn134  1  0.93454610  0.18887375  0.43601910  1
  Zn  Zn135  1  0.93513601  0.18483289  0.93551859  1
  Zn  Zn136  1  0.92860854  0.70136515  0.42704000  1
  Zn  Zn137  1  0.92045102  0.67349861  0.95024847  1
  Zn  Zn138  1  0.05461887  0.30948504  0.06185411  1
  Zn  Zn139  1  0.06704109  0.31023581  0.55612777  1
  Zn  Zn140  1  0.05958968  0.81618621  0.06563807  1
  Zn  Zn141  1  0.05974705  0.81039580  0.56379264  1
  Zn  Zn142  1  0.55851821  0.29445703  0.06388582  1
  Zn  Zn143  1  0.55201844  0.31458872  0.55917188  1
  Zn  Zn144  1  0.55065909  0.81861961  0.05785651  1
  Zn  Zn145  1  0.55284026  0.81798178  0.56504967  1
  O  O146  1  0.12033281  0.11660421  0.11537794  1
  O  O147  1  0.12958401  0.12768801  0.60665523  1
  O  O148  1  0.11719890  0.61233886  0.11146994  1
  O  O149  1  0.13050441  0.61156020  0.64224975  1
  O  O150  1  0.64415101  0.10918500  0.13070370  1
  O  O151  1  0.62181117  0.10707191  0.63130934  1
  O  O152  1  0.61869671  0.64591242  0.11687653  1
  O  O153  1  0.62864008  0.60850680  0.62112541  1
  O  O154  1  0.37367565  0.39476282  0.36942621  1
  O  O155  1  0.39034870  0.37593453  0.88719385  1
  O  O156  1  0.37873785  0.87174489  0.37646461  1
  O  O157  1  0.38109243  0.88137590  0.89021094  1
  O  O158  1  0.88878696  0.37294796  0.39035911  1
  O  O159  1  0.88278241  0.37891482  0.87400029  1
  O  O160  1  0.89447639  0.89406338  0.35860504  1
  O  O161  1  0.86707464  0.88449380  0.88508061  1
  O  O162  1  0.25153046  0.01659054  0.35862554  1
  O  O163  1  0.26802443  0.00571576  0.86509739  1
  O  O164  1  0.25375832  0.51682206  0.41894308  1
  O  O165  1  0.26231737  0.47673740  0.86007038  1
  O  O166  1  0.76624436  -0.00207996  0.37739902  1
  O  O167  1  0.76095485  0.00938269  0.88396097  1
  O  O168  1  0.74979831  0.50634409  0.36161775  1
  O  O169  1  0.75967169  0.49427719  0.85796118  1
  O  O170  1  0.23618181  0.49329223  0.11712194  1
  O  O171  1  0.23981696  0.48677450  0.63103741  1
  O  O172  1  0.23685047  1.01114615  0.13217539  1
  O  O173  1  0.26717873  1.00734629  0.64445926  1
  O  O174  1  0.74540306  0.48613805  0.13558370  1
  O  O175  1  0.74094002  0.48800764  0.63085609  1
  O  O176  1  0.74287316  0.98882246  0.12952696  1
  O  O177  1  0.73530895  0.99827892  0.61212567  1
  O  O178  1  -0.00312800  0.38505543  0.27438218  1
  O  O179  1  0.00523249  0.37393410  0.75495316  1
  O  O180  1  0.01400681  0.88317958  0.25410194  1
  O  O181  1  0.01837044  0.87760744  0.76340131  1
  O  O182  1  0.50996035  0.38943524  0.26864379  1
  O  O183  1  0.50701504  0.36865728  0.76276242  1
  O  O184  1  0.50394157  0.88258181  0.23843125  1
  O  O185  1  0.50020885  0.86491622  0.75568916  1
  O  O186  1  0.51552773  0.14123630  0.22845603  1
  O  O187  1  0.50676652  0.14126209  0.74989130  1
  O  O188  1  0.51034395  0.61563879  0.23057178  1
  O  O189  1  0.48403094  0.62358173  0.75119522  1
  O  O190  1  0.98916519  0.12346650  0.25281662  1
  O  O191  1  0.98148350  0.10761598  0.74737015  1
  O  O192  1  1.01174023  0.61514844  0.23319250  1
  O  O193  1  1.00921684  0.67210783  0.79291801  1
  O  O194  1  0.38543469  0.26269810  0.00609392  1
  O  O195  1  0.35874590  0.24858078  0.49351486  1
  O  O196  1  0.37683038  0.75864244  -0.00153730  1
  O  O197  1  0.38702810  0.76686737  0.51312917  1
  O  O198  1  0.87841214  0.26682761  -0.00294091  1
  O  O199  1  0.87886939  0.26032469  0.51222425  1
  O  O200  1  0.87921801  0.76142328  0.00581383  1
  O  O201  1  0.87472827  0.76007003  0.52327770  1
  O  O202  1  0.13170778  0.23730503  0.49084904  1
  O  O203  1  0.11113696  0.23559520  1.00212744  1
  O  O204  1  0.06853275  0.69608059  0.51620971  1
  O  O205  1  0.11687037  0.73450214  1.00350119  1
  O  O206  1  0.56503593  0.22570009  0.49254003  1
  O  O207  1  0.63565064  0.25908797  0.98193496  1
  O  O208  1  0.61298097  0.75743703  0.48172674  1
  O  O209  1  0.61903205  0.76074225  0.98229418  1
  O  O210  1  0.47711782  0.26760273  0.14120280  1
  O  O211  1  0.49475592  0.26342049  0.64860924  1
  O  O212  1  0.49133813  0.74026649  0.12314929  1
  O  O213  1  0.48962691  0.74993633  0.64298926  1
  O  O214  1  0.97799347  0.30621218  0.13949820  1
  O  O215  1  0.99225144  0.24078481  0.62042275  1
  O  O216  1  0.99387980  0.73393085  0.12406377  1
  O  O217  1  0.97348242  0.74767567  0.63292779  1
  O  O218  1  0.01133199  0.25827397  0.37966168  1
  O  O219  1  -0.00635936  0.25937257  0.86940338  1
  O  O220  1  -0.00466376  0.77384648  0.37522334  1
  O  O221  1  -0.00832865  0.71938941  0.84965576  1
  O  O222  1  0.47501063  0.27424792  0.36856494  1
  O  O223  1  0.51817881  0.25299471  0.87055578  1
  O  O224  1  0.50145604  0.74283429  0.36941398  1
  O  O225  1  0.50883149  0.74054766  0.85854065  1
  O  O226  1  0.24317631  0.13062581  0.48713978  1
  O  O227  1  0.23289691  0.12816966  0.99869896  1
  O  O228  1  0.23816024  0.65309915  0.50383412  1
  O  O229  1  0.23830134  0.62495847  0.98783599  1
  O  O230  1  0.75690731  0.12785714  0.48006864  1
  O  O231  1  0.76146907  0.12968116  0.98579354  1
  O  O232  1  0.73714826  0.61488068  0.48004453  1
  O  O233  1  0.76597177  0.61932376  0.99713980  1
  O  O234  1  0.27004384  0.37831531  0.00298596  1
  O  O235  1  0.24114165  0.36125822  0.51294590  1
  O  O236  1  0.26244367  0.87960830  0.00164893  1
  O  O237  1  0.26893657  0.88551501  0.49298623  1
  O  O238  1  0.75572321  0.37760409  -0.00044785  1
  O  O239  1  0.76879694  0.38529419  0.50669602  1
  O  O240  1  0.76023417  0.87719510  0.01695451  1
  O  O241  1  0.76932916  0.85171940  0.44580515  1
  O  O242  1  0.11326939  0.48936967  0.22293636  1
  O  O243  1  0.13251050  0.49199299  0.74439420  1
  O  O244  1  0.12714316  1.00291763  0.23445761  1
  O  O245  1  0.14236924  0.99787767  0.74877845  1
  O  O246  1  0.63642034  0.47967295  0.25263826  1
  O  O247  1  0.63120026  0.48792520  0.74067160  1
  O  O248  1  0.62673143  0.98636353  0.24091909  1
  O  O249  1  0.62417738  0.98965366  0.74340633  1
  O  O250  1  0.36183671  -0.00700232  0.22518599  1
  O  O251  1  0.36938902  -0.00620606  0.76852722  1
  O  O252  1  0.36391551  0.50318720  0.23594956  1
  O  O253  1  0.37173026  0.50557649  0.75606235  1
  O  O254  1  0.87419821  0.01306182  0.25903251  1
  O  O255  1  0.87498092  -0.00467534  0.76379198  1
  O  O256  1  0.86221731  0.48144815  0.24223904  1
  O  O257  1  0.86203300  0.49239967  0.75245372  1
  O  O258  1  0.11727150  0.36099158  0.38328698  1
  O  O259  1  0.10959104  0.37524706  0.85609905  1
  O  O260  1  0.11630842  0.88721256  0.35678171  1
  O  O261  1  0.12966480  0.87953653  0.86430845  1
  O  O262  1  0.61983106  0.36895374  0.37464184  1
  O  O263  1  0.62296047  0.36284077  0.86268078  1
  O  O264  1  0.61908197  0.86625577  0.35919709  1
  O  O265  1  0.62709673  0.86378904  0.86017216  1
  O  O266  1  0.38272241  0.13948517  0.12007293  1
  O  O267  1  0.38378021  0.13816614  0.61256477  1
  O  O268  1  0.39890989  0.63341889  0.11130892  1
  O  O269  1  0.36964649  0.62631499  0.64028008  1
  O  O270  1  0.86900479  0.13006595  0.14024834  1
  O  O271  1  0.87163040  0.13503432  0.62563864  1
  O  O272  1  0.89052743  0.62721005  0.12403663  1
  O  O273  1  0.86666606  0.64526664  0.61837541  1
  O  O274  1  0.25677247  0.26371040  0.12178073  1
  O  O275  1  0.24714116  0.25728695  0.61332530  1
  O  O276  1  0.26500412  0.70662246  0.12787190  1
  O  O277  1  0.27393793  0.74970856  0.63210023  1
  O  O278  1  0.76393370  0.27427645  0.13068616  1
  O  O279  1  0.75336650  0.25770683  0.62370126  1
  O  O280  1  0.75820997  0.75217719  0.13005271  1
  O  O281  1  0.76382699  0.74996476  0.62350908  1
  O  O282  1  0.24016117  0.24548061  0.38297353  1
  O  O283  1  0.23335728  0.26017125  0.86843994  1
  O  O284  1  0.24271107  0.75573577  0.37632862  1
  O  O285  1  0.25960935  0.73939533  0.87211985  1
  O  O286  1  0.75085184  0.25163436  0.37846379  1
  O  O287  1  0.74697278  0.24046745  0.86792331  1
  O  O288  1  0.73956292  0.72534639  0.35520961  1
  O  O289  1  0.73377922  0.74599257  0.86970115  1
  O  O290  1  -0.00413856  0.11218798  0.00230513  1
  O  O291  1  0.01342406  0.11824688  0.49698555  1
  O  O292  1  0.00815410  0.61691187  -0.00022603  1
  O  O293  1  0.00469871  0.65107946  0.50523708  1
  O  O294  1  0.52616505  0.16515916  0.04039692  1
  O  O295  1  0.48683154  0.10089054  0.50957829  1
  O  O296  1  0.50607926  0.61096578  -0.00240015  1
  O  O297  1  0.50346373  0.61121095  0.49897254  1
  O  O298  1  0.49805249  0.38961707  0.48539012  1
  O  O299  1  0.49882129  0.37996157  0.99469720  1
  O  O300  1  0.48689178  0.88618213  0.49978125  1
  O  O301  1  0.46744912  0.89175518  1.03735893  1
  O  O302  1  0.99122498  0.37686920  0.49836210  1
  O  O303  1  0.99682237  0.38289109  0.97768171  1
  O  O304  1  1.01641206  0.88899289  0.48542123  1
  O  O305  1  0.99095473  0.88179505  0.99477129  1
  O  O306  1  0.49179657  0.49981739  0.38822330  1
  O  O307  1  0.49546174  0.49031568  0.87850830  1
  O  O308  1  0.51250593  1.00672669  0.38600547  1
  O  O309  1  0.48881587  1.00406693  0.87331030  1
  O  O310  1  1.02198994  0.49074692  0.38636842  1
  O  O311  1  0.98853370  0.49675061  0.86889690  1
  O  O312  1  0.99527411  0.99717133  0.38162634  1
  O  O313  1  0.98113038  0.99954354  0.88803250  1
  O  O314  1  0.00503683  -0.00269317  0.11456601  1
  O  O315  1  -0.00807540  0.00034719  0.60485055  1
  O  O316  1  0.00523033  0.50412986  0.10930103  1
  O  O317  1  0.00830759  0.50895496  0.63438137  1
  O  O318  1  0.51289259  0.01967541  0.12566449  1
  O  O319  1  0.51230049  -0.00046830  0.61947125  1
  O  O320  1  0.50603470  0.50683143  0.10959678  1
  O  O321  1  0.51380068  0.48836873  0.61767037  1
  O  O322  1  0.24328557  0.37655537  0.23249894  1
  O  O323  1  0.23213637  0.37610183  0.73425101  1
  O  O324  1  0.23626143  0.89632668  0.25535702  1
  O  O325  1  0.24286685  0.88842712  0.75147863  1
  O  O326  1  0.74111375  0.38100957  0.24384487  1
  O  O327  1  0.74267952  0.37899572  0.73700545  1
  O  O328  1  0.74917245  0.87720242  0.23983009  1
  O  O329  1  0.73955581  0.87671012  0.74847813  1
  O  O330  1  0.25127487  0.11901531  0.25596766  1
  O  O331  1  0.25443962  0.11736406  0.75751849  1
  O  O332  1  0.20525880  0.60763380  0.28991255  1
  O  O333  1  0.25936089  0.61228845  0.76485688  1
  O  O334  1  0.76331591  0.12685644  0.26531035  1
  O  O335  1  0.76608996  0.12208221  0.75939918  1
  O  O336  1  0.74960535  0.60519967  0.25408865  1
  O  O337  1  0.74277590  0.60529751  0.74156720  1
  O  O338  1  0.36375704  0.13522827  0.37712108  1
  O  O339  1  0.38231995  0.11781708  0.89236773  1
  O  O340  1  0.34539327  0.63164729  0.37845051  1
  O  O341  1  0.36289701  0.61290012  0.87560232  1
  O  O342  1  0.87286655  0.11835002  0.36709660  1
  O  O343  1  0.86765331  0.11533470  0.86857979  1
  O  O344  1  0.86262857  0.62520151  0.38146385  1
  O  O345  1  0.87340129  0.60981019  0.86677835  1
  O  O346  1  0.13891263  0.38365966  0.10389957  1
  O  O347  1  0.11967040  0.38196421  0.63406654  1
  O  O348  1  0.12008136  0.89161176  0.13243845  1
  O  O349  1  0.11760365  0.86644597  0.64045153  1
  O  O350  1  0.63455156  0.36962251  0.11369132  1
  O  O351  1  0.63111969  0.37734514  0.62603931  1
  O  O352  1  0.63015863  0.87778985  0.13335015  1
  O  O353  1  0.62008570  0.87973735  0.64110206  1
  O  O354  1  0.12794117  0.24535076  0.26336170  1
  O  O355  1  0.12022489  0.25657968  0.73483526  1
  O  O356  1  0.13113090  0.77152212  0.23491290  1
  O  O357  1  0.14301169  0.76248662  0.75581481  1
  O  O358  1  0.62669114  0.27473266  0.23913867  1
  O  O359  1  0.62776707  0.25799728  0.75272045  1
  O  O360  1  0.61771318  0.76538106  0.25672505  1
  O  O361  1  0.61505877  0.75868070  0.75307223  1
  O  O362  1  0.35996097  0.25185003  0.24223370  1
  O  O363  1  0.38556971  0.24805679  0.76896118  1
  O  O364  1  0.37227095  0.74507445  0.23707729  1
  O  O365  1  0.38302174  0.74151307  0.74933071  1
  O  O366  1  0.87901169  0.23983301  0.25656718  1
  O  O367  1  0.87438355  0.24247069  0.73178891  1
  O  O368  1  0.87350853  0.75391915  0.24646745  1
  O  O369  1  0.86462958  0.74443954  0.73234577  1
  O  O370  1  0.38711923  0.50533762  0.51903361  1
  O  O371  1  0.39046956  0.48786111  0.98947157  1
  O  O372  1  0.38554874  0.98744043  0.49376839  1
  O  O373  1  0.37004478  0.99316467  0.98987315  1
  O  O374  1  0.88837307  0.48971771  0.51346765  1
  O  O375  1  0.88282197  0.49225067  0.97763619  1
  O  O376  1  0.89135355  1.00733927  0.48460662  1
  O  O377  1  0.88278024  0.99088797  1.00283354  1
  O  O378  1  0.11179600  0.00605313  0.00830619  1
  O  O379  1  0.11861070  0.01401668  0.48723046  1
  O  O380  1  0.11244383  0.50907487  -0.00141232  1
  O  O381  1  0.11897756  0.49910783  0.52358088  1
  O  O382  1  0.63002113  -0.00697488  0.01539726  1
  O  O383  1  0.61448809  -0.01719485  0.51113851  1
  O  O384  1  0.61528546  0.49482887  -0.01448490  1
  O  O385  1  0.62292925  0.49524361  0.51171705  1
  O  O386  1  0.36492243  0.37130610  0.11783754  1
  O  O387  1  0.35795479  0.37651704  0.63180738  1
  O  O388  1  0.35427994  0.84749128  0.12104008  1
  O  O389  1  0.37719008  0.86879269  0.63157149  1
  O  O390  1  0.86247722  0.39577135  0.09429934  1
  O  O391  1  0.87181917  0.36204650  0.61901815  1
  O  O392  1  0.87125311  0.86442927  0.12449689  1
  O  O393  1  0.87081783  0.85608627  0.63626809  1
  O  O394  1  0.13133314  0.13624590  0.38026041  1
  O  O395  1  0.11293087  0.11978452  0.88919279  1
  O  O396  1  0.12822166  0.63946640  0.38555634  1
  O  O397  1  0.14059743  0.62190157  0.88201815  1
  O  O398  1  0.64172533  0.12801195  0.36552473  1
  O  O399  1  0.64138365  0.13484582  0.87056260  1
  O  O400  1  0.62207920  0.63854026  0.37008048  1
  O  O401  1  0.62670267  0.63503912  0.86806660  1
