# generated using pymatgen
data_V73Zn73O256
_symmetry_space_group_name_H-M   'P 1'
_cell_length_a   16.90641892
_cell_length_b   16.87298013
_cell_length_c   16.94621323
_cell_angle_alpha   89.94124171
_cell_angle_beta   90.23585869
_cell_angle_gamma   89.98170873
_symmetry_Int_Tables_number   1
_chemical_formula_structural   V73Zn73O256
_chemical_formula_sum   'V73 Zn73 O256'
_cell_volume   4834.06134040
_cell_formula_units_Z   1
loop_
 _symmetry_equiv_pos_site_id
 _symmetry_equiv_pos_as_xyz
  1  'x, y, z'
loop_
 _atom_site_type_symbol
 _atom_site_label
 _atom_site_symmetry_multiplicity
 _atom_site_fract_x
 _atom_site_fract_y
 _atom_site_fract_z
 _atom_site_occupancy
  V  V0  1  0.63399801  0.37645857  0.75739625  1
  V  V1  1  0.74938315  0.37398113  0.60788311  1
  V  V2  1  0.38320349  0.62152881  0.76274875  1
  V  V3  1  0.63677294  0.62155632  -0.00545732  1
  V  V4  1  0.62614640  0.75083090  0.37304668  1
  V  V5  1  0.36055370  0.87648512  -0.00659744  1
  V  V6  1  0.87397758  0.75293427  0.62552618  1
  V  V7  1  0.02312573  0.87191731  0.86840996  1
  V  V8  1  0.86531956  0.62157489  0.74838625  1
  V  V9  1  0.12552865  0.12733596  0.50446423  1
  V  V10  1  0.25535675  0.48888019  0.24452397  1
  V  V11  1  0.25423349  0.27617037  0.00241321  1
  V  V12  1  0.48159521  0.50860059  -0.00065900  1
  V  V13  1  0.25364035  0.11589645  0.86821727  1
  V  V14  1  0.38850497  0.12793308  0.75786608  1
  V  V15  1  0.00441140  0.48778835  0.48889927  1
  V  V16  1  0.63633934  0.76150922  0.87462330  1
  V  V17  1  0.49676311  -0.00799275  -0.02475369  1
  V  V18  1  0.00010868  0.61897478  0.11419422  1
  V  V19  1  0.49499878  0.11141047  0.12760863  1
  V  V20  1  0.38286878  0.25248484  0.63562252  1
  V  V21  1  0.62262009  0.11833131  0.00226065  1
  V  V22  1  0.00109136  0.25344581  0.74807533  1
  V  V23  1  0.12366466  0.48243814  0.12897344  1
  V  V24  1  0.25736515  0.50343007  0.77230528  1
  V  V25  1  0.24415931  0.74309677  0.50002148  1
  V  V26  1  -0.00337365  0.12461826  0.13539282  1
  V  V27  1  0.12194132  0.38814746  0.74366405  1
  V  V28  1  0.13185600  0.12876131  -0.00084690  1
  V  V29  1  -0.00133180  0.12530644  0.62964499  1
  V  V30  1  0.50149988  0.87421705  0.38095718  1
  V  V31  1  0.49289225  0.39210216  0.87608362  1
  V  V32  1  0.49487583  0.63206201  0.12266756  1
  V  V33  1  0.11728268  0.74045838  0.36788898  1
  V  V34  1  0.01819764  0.75173704  0.74835219  1
  V  V35  1  0.74775984  0.50353220  0.25506745  1
  V  V36  1  0.74651945  0.24510108  -0.00149241  1
  V  V37  1  0.27007064  0.62293819  0.36096496  1
  V  V38  1  0.36654993  0.87816603  0.50296884  1
  V  V39  1  0.86852281  0.25076736  0.61591986  1
  V  V40  1  0.73876767  0.38169148  0.12107541  1
  V  V41  1  -0.00394272  0.88764458  0.37060851  1
  V  V42  1  0.13999457  -0.01476534  0.63450464  1
  V  V43  1  0.61575245  0.37504935  0.25861837  1
  V  V44  1  0.88308736  0.37521774  -0.00995999  1
  V  V45  1  0.25564787  0.38833920  0.61770145  1
  V  V46  1  0.74568318  0.12151042  0.36733650  1
  V  V47  1  0.37880841  -0.00024606  0.37615867  1
  V  V48  1  0.24941240  0.00051356  0.24748963  1
  V  V49  1  0.62540622  0.50864843  0.63354218  1
  V  V50  1  0.66157108  -0.00824505  0.64608085  1
  V  V51  1  0.50199978  0.75431079  0.76161513  1
  V  V52  1  0.87968482  0.24958226  0.13253529  1
  V  V53  1  0.61737361  0.62629166  0.50155404  1
  V  V54  1  0.86139106  0.83384662  0.00430729  1
  V  V55  1  0.02634809  0.62296091  0.61694865  1
  V  V56  1  0.12534247  0.26576338  0.87354144  1
  V  V57  1  0.63205063  0.88242307  0.23184657  1
  V  V58  1  0.61293125  0.24429969  0.87297401  1
  V  V59  1  0.12642053  0.87896163  0.24730380  1
  V  V60  1  0.87974829  0.62216606  0.25255265  1
  V  V61  1  0.13301481  -0.00191544  0.12165109  1
  V  V62  1  -0.00159443  -0.00001952  0.49987609  1
  V  V63  1  0.00507106  0.00004620  -0.01846571  1
  V  V64  1  0.87311436  0.87241111  0.49504615  1
  V  V65  1  0.06569092  0.31715237  0.31117775  1
  V  V66  1  0.24617659  0.12883482  0.37744537  1
  V  V67  1  0.37976521  0.73794396  0.62148610  1
  V  V68  1  0.37452042  0.26711147  0.12124105  1
  V  V69  1  0.35958429  0.75665876  0.12740392  1
  V  V70  1  0.25224537  0.25307152  0.50335940  1
  V  V71  1  0.49805702  0.48680539  0.48588732  1
  V  V72  1  0.74944083  0.74881121  0.50398000  1
  Zn  Zn73  1  0.49885828  0.25689897  0.24746057  1
  Zn  Zn74  1  -0.01744958  0.75887141  0.24511155  1
  Zn  Zn75  1  0.81652804  0.08953633  0.81761075  1
  Zn  Zn76  1  0.37435363  0.12630518  0.24813067  1
  Zn  Zn77  1  0.52630975  0.06875270  0.58585832  1
  Zn  Zn78  1  0.49440799  0.74365848  0.25122439  1
  Zn  Zn79  1  0.75132468  0.61940260  0.38113802  1
  Zn  Zn80  1  0.13715004  0.63258431  -0.00742320  1
  Zn  Zn81  1  0.87007918  0.48196469  0.85799828  1
  Zn  Zn82  1  0.18980182  0.19407536  0.18626832  1
  Zn  Zn83  1  0.18915546  0.19097329  0.68598646  1
  Zn  Zn84  1  0.18265195  0.67909276  0.18089373  1
  Zn  Zn85  1  0.18566019  0.67798347  0.81681506  1
  Zn  Zn86  1  0.67811290  0.19479705  0.17752942  1
  Zn  Zn87  1  0.68615522  0.17941822  0.69395756  1
  Zn  Zn88  1  0.68895303  0.69502433  0.17192180  1
  Zn  Zn89  1  0.68425601  0.70039029  0.68507292  1
  Zn  Zn90  1  0.31504699  0.31062933  0.31116877  1
  Zn  Zn91  1  0.30918789  0.31659902  0.81327741  1
  Zn  Zn92  1  0.30911527  0.81094553  0.31137875  1
  Zn  Zn93  1  0.31217511  0.81806225  0.81163067  1
  Zn  Zn94  1  0.80287537  0.30947733  0.30585004  1
  Zn  Zn95  1  0.80246752  0.28171196  0.80505953  1
  Zn  Zn96  1  0.80817305  0.80789569  0.31016089  1
  Zn  Zn97  1  0.83933693  0.79493904  0.83534359  1
  Zn  Zn98  1  0.18314057  0.44666104  0.43499787  1
  Zn  Zn99  1  0.04913445  0.45770482  0.94799011  1
  Zn  Zn100  1  0.18462066  0.93957878  0.43719249  1
  Zn  Zn101  1  0.18896387  0.81282993  0.95063200  1
  Zn  Zn102  1  0.68065630  0.43748262  0.43589359  1
  Zn  Zn103  1  0.68711707  0.43967065  0.93976251  1
  Zn  Zn104  1  0.65389721  0.91089706  0.49467877  1
  Zn  Zn105  1  0.69140541  0.92991470  0.94253349  1
  Zn  Zn106  1  0.31574172  0.06187527  0.05375184  1
  Zn  Zn107  1  0.31936673  0.06564097  0.57161492  1
  Zn  Zn108  1  0.26337657  0.49782906  0.00888398  1
  Zn  Zn109  1  0.31378371  0.56373910  0.54860836  1
  Zn  Zn110  1  0.83544521  0.08081100  0.01361554  1
  Zn  Zn111  1  0.81759408  0.06548160  0.55923882  1
  Zn  Zn112  1  0.81885179  0.56169639  0.06072224  1
  Zn  Zn113  1  0.81537716  0.55903388  0.56689009  1
  Zn  Zn114  1  0.43765592  0.45185813  0.18575896  1
  Zn  Zn115  1  0.44405382  0.43984271  0.68966258  1
  Zn  Zn116  1  0.43788967  0.92523908  0.19200666  1
  Zn  Zn117  1  0.39417840  0.93394805  0.70346553  1
  Zn  Zn118  1  0.93501367  0.43736161  0.19002833  1
  Zn  Zn119  1  0.93743096  0.44245861  0.67128200  1
  Zn  Zn120  1  0.94823661  0.92993306  0.16343423  1
  Zn  Zn121  1  0.93921521  0.93443852  0.68528611  1
  Zn  Zn122  1  0.05026168  0.15536312  0.32410112  1
  Zn  Zn123  1  0.07575974  0.06748546  0.80880429  1
  Zn  Zn124  1  0.06280349  0.54693223  0.30960936  1
  Zn  Zn125  1  0.04716639  0.56237026  0.80919867  1
  Zn  Zn126  1  0.56088488  0.05497066  0.30465865  1
  Zn  Zn127  1  0.56667989  0.05424900  0.79281858  1
  Zn  Zn128  1  0.56556439  0.56016329  0.30623339  1
  Zn  Zn129  1  0.69512686  0.57015107  0.82054885  1
  Zn  Zn130  1  0.42833583  0.19410542  0.44070244  1
  Zn  Zn131  1  0.43675091  0.18968075  0.94249915  1
  Zn  Zn132  1  0.44056354  0.68677761  0.43990268  1
  Zn  Zn133  1  0.32282070  0.67988781  0.95008252  1
  Zn  Zn134  1  0.93030909  0.31741873  0.43537373  1
  Zn  Zn135  1  0.94306707  0.19878146  0.93506275  1
  Zn  Zn136  1  0.92191190  0.64612569  0.45471511  1
  Zn  Zn137  1  0.94851825  0.68144031  0.93009282  1
  Zn  Zn138  1  0.06224433  0.30900538  0.06681014  1
  Zn  Zn139  1  0.06874687  0.31601884  0.56492483  1
  Zn  Zn140  1  0.04522809  0.80766574  0.06658017  1
  Zn  Zn141  1  0.06396594  0.80741656  0.55810410  1
  Zn  Zn142  1  0.55451392  0.31514566  0.05581634  1
  Zn  Zn143  1  0.56319297  0.31419282  0.56669826  1
  Zn  Zn144  1  0.56046506  0.80636432  0.05315995  1
  Zn  Zn145  1  0.52446896  0.87609239  0.61956431  1
  O  O146  1  0.11604272  0.12536984  0.11825744  1
  O  O147  1  0.11972679  0.11885980  0.61959803  1
  O  O148  1  0.11313051  0.61096784  0.12094059  1
  O  O149  1  0.12076670  0.62877822  0.63287255  1
  O  O150  1  0.60477642  0.13219357  0.11345916  1
  O  O151  1  0.61836147  0.09957244  0.65635175  1
  O  O152  1  0.61172920  0.64351863  0.10388795  1
  O  O153  1  0.63385358  0.61351191  0.61934309  1
  O  O154  1  0.41378207  0.33787372  0.37044274  1
  O  O155  1  0.39558604  0.36990820  0.86548984  1
  O  O156  1  0.38112398  0.88185240  0.37600759  1
  O  O157  1  0.37859476  0.86545138  0.89567575  1
  O  O158  1  0.84861409  0.36975619  0.38358003  1
  O  O159  1  0.86424888  0.35706218  0.89062841  1
  O  O160  1  0.88699190  0.86448677  0.38131917  1
  O  O161  1  0.90135863  0.85984504  0.90702708  1
  O  O162  1  0.25603892  0.00967947  0.36821163  1
  O  O163  1  0.24984223  0.02062819  0.87608574  1
  O  O164  1  0.24467781  0.51711049  0.36602652  1
  O  O165  1  0.26049695  0.48944289  0.86740543  1
  O  O166  1  0.74922747  0.01758155  0.36415990  1
  O  O167  1  0.76084975  -0.01700612  0.85210700  1
  O  O168  1  0.74281531  0.50141210  0.35904572  1
  O  O169  1  0.75888264  0.49421935  0.87256356  1
  O  O170  1  0.23541465  0.49328603  0.13523747  1
  O  O171  1  0.25591186  0.48889782  0.61710108  1
  O  O172  1  0.24252547  1.01405208  0.13386454  1
  O  O173  1  0.23844523  1.00187630  0.61858146  1
  O  O174  1  0.75430727  0.48353534  0.12811483  1
  O  O175  1  0.74089915  0.48371390  0.61588873  1
  O  O176  1  0.79049668  0.99660642  0.13433425  1
  O  O177  1  0.76161799  1.00505319  0.63670708  1
  O  O178  1  0.00119639  0.37272719  0.25707497  1
  O  O179  1  0.01842118  0.37410744  0.73055767  1
  O  O180  1  0.00322490  0.87988345  0.25343401  1
  O  O181  1  -0.00385595  0.86443075  0.75953553  1
  O  O182  1  0.51338579  0.38407126  0.23962142  1
  O  O183  1  0.51865681  0.38959546  0.76504058  1
  O  O184  1  0.51363302  0.87091075  0.26613035  1
  O  O185  1  0.48352202  0.85361230  0.73406962  1
  O  O186  1  0.49956124  0.13141353  0.23744613  1
  O  O187  1  0.48824810  0.13528617  0.76593055  1
  O  O188  1  0.51162915  0.62428139  0.22846431  1
  O  O189  1  0.48224715  0.64070412  0.74156677  1
  O  O190  1  0.99545150  0.11364960  0.23376744  1
  O  O191  1  1.01009039  0.13826759  0.73944748  1
  O  O192  1  0.98365384  0.61588335  0.25213210  1
  O  O193  1  0.99407939  0.63936777  0.73531683  1
  O  O194  1  0.36107399  0.25289705  0.00732257  1
  O  O195  1  0.36144232  0.24339113  0.51995145  1
  O  O196  1  0.37059524  0.76506658  0.01405087  1
  O  O197  1  0.36467053  0.75299926  0.50063131  1
  O  O198  1  0.86554052  0.25667895  0.00997702  1
  O  O199  1  0.88112662  0.25248497  0.51843815  1
  O  O200  1  0.86092836  0.73356572  -0.01102052  1
  O  O201  1  0.86798931  0.75004192  0.50489886  1
  O  O202  1  0.13781206  0.23811469  0.51028938  1
  O  O203  1  0.13601423  0.25079808  0.99545098  1
  O  O204  1  0.13642817  0.76134089  0.47749703  1
  O  O205  1  0.11675265  0.74792063  1.00453624  1
  O  O206  1  0.58439672  0.21025947  0.51165376  1
  O  O207  1  0.62745359  0.24060906  0.99779540  1
  O  O208  1  0.63633407  0.74089584  0.49468549  1
  O  O209  1  0.62083848  0.74140289  0.98062885  1
  O  O210  1  0.48315933  0.24485924  0.11664520  1
  O  O211  1  0.48107622  0.26686319  0.63182504  1
  O  O212  1  0.49514623  0.74486209  0.12588460  1
  O  O213  1  0.47929528  0.75291209  0.61814883  1
  O  O214  1  0.99149555  0.23666328  0.12264311  1
  O  O215  1  0.99833274  0.24387022  0.62896713  1
  O  O216  1  1.01110899  0.72225104  0.14044652  1
  O  O217  1  0.99766861  0.74797412  0.63448434  1
  O  O218  1  0.00518355  0.25409008  0.37300448  1
  O  O219  1  0.01488337  0.24814797  0.86212894  1
  O  O220  1  0.01371886  0.76411816  0.36525621  1
  O  O221  1  0.00481301  0.75798252  0.85879131  1
  O  O222  1  0.46544399  0.27420904  0.36400265  1
  O  O223  1  0.51178355  0.26474894  0.89352145  1
  O  O224  1  0.50802870  0.75560412  0.37480001  1
  O  O225  1  0.50391984  0.75413073  0.85925541  1
  O  O226  1  0.24493080  0.12976706  0.49687770  1
  O  O227  1  0.24344327  0.13279437  0.99084368  1
  O  O228  1  0.25242933  0.63558927  0.47869103  1
  O  O229  1  0.25007574  0.61033669  0.99867466  1
  O  O230  1  0.75672097  0.12353525  0.47039086  1
  O  O231  1  0.73292521  0.13205710  1.01441026  1
  O  O232  1  0.74388005  0.63174610  0.50141709  1
  O  O233  1  0.73613104  0.61940297  1.00928479  1
  O  O234  1  0.25218428  0.37387857  0.00313612  1
  O  O235  1  0.24330782  0.36899818  0.51058222  1
  O  O236  1  0.26081752  0.88827308  -0.00058130  1
  O  O237  1  0.26138672  0.85873137  0.47662586  1
  O  O238  1  0.75458080  0.36634568  0.01172726  1
  O  O239  1  0.73521600  0.36616496  0.51014899  1
  O  O240  1  0.76980890  0.87872071  0.00681253  1
  O  O241  1  0.76415668  0.86411074  0.49189862  1
  O  O242  1  0.13694676  0.50333742  0.23859781  1
  O  O243  1  0.13913201  0.49146264  0.75443167  1
  O  O244  1  0.13440286  0.99646943  0.23813324  1
  O  O245  1  0.12355487  1.00007754  0.73293784  1
  O  O246  1  0.63802747  0.48838384  0.24366329  1
  O  O247  1  0.63624125  0.49815293  0.73594130  1
  O  O248  1  0.61757782  0.98324520  0.23981259  1
  O  O249  1  0.63433172  0.97849974  0.74496414  1
  O  O250  1  0.36599352  -0.00008606  0.25828273  1
  O  O251  1  0.37272609  0.03058825  0.75979682  1
  O  O252  1  0.35511889  0.50468260  0.24034851  1
  O  O253  1  0.36811061  0.51150413  0.74313701  1
  O  O254  1  0.83774462  -0.02257621  0.18899014  1
  O  O255  1  0.86230320  -0.01576635  0.76581881  1
  O  O256  1  0.85746362  0.50471588  0.24607936  1
  O  O257  1  0.87755601  0.51901985  0.73621423  1
  O  O258  1  0.12521112  0.36997591  0.37245666  1
  O  O259  1  0.12489425  0.37084378  0.85853876  1
  O  O260  1  0.11542117  0.87865389  0.36211521  1
  O  O261  1  0.12071410  0.86867192  0.86192253  1
  O  O262  1  0.62815225  0.37242242  0.35760791  1
  O  O263  1  0.61794265  0.36884681  0.87344032  1
  O  O264  1  0.61335691  0.86594767  0.39423989  1
  O  O265  1  0.62255872  0.86161319  0.88204790  1
  O  O266  1  0.38631704  0.12928215  0.12112605  1
  O  O267  1  0.37762996  0.13902815  0.63970486  1
  O  O268  1  0.38995058  0.64731773  0.11978186  1
  O  O269  1  0.36761932  0.63641722  0.62187582  1
  O  O270  1  0.89011693  0.13350107  0.11127466  1
  O  O271  1  0.88617199  0.13810346  0.62254042  1
  O  O272  1  0.89027776  0.61185985  0.13538335  1
  O  O273  1  0.87970717  0.64041463  0.63142467  1
  O  O274  1  0.25811635  0.24890123  0.11073797  1
  O  O275  1  0.25644163  0.26047309  0.61973995  1
  O  O276  1  0.25970582  0.74869112  0.13159056  1
  O  O277  1  0.25103057  0.74595382  0.59809522  1
  O  O278  1  0.75879375  0.25611825  0.11825639  1
  O  O279  1  0.76121263  0.25630612  0.62503427  1
  O  O280  1  0.77286315  0.76202675  0.14184332  1
  O  O281  1  0.75937079  0.75162994  0.61396816  1
  O  O282  1  0.26163477  0.23711863  0.38715286  1
  O  O283  1  0.24209625  0.25814329  0.88988997  1
  O  O284  1  0.24061109  0.73711711  0.37141046  1
  O  O285  1  0.25274499  0.74855458  0.87704437  1
  O  O286  1  0.74311046  0.22850300  0.36739020  1
  O  O287  1  0.72900216  0.25684806  0.89496904  1
  O  O288  1  0.74185583  0.74572010  0.38638151  1
  O  O289  1  0.73622453  0.75857899  0.85625352  1
  O  O290  1  0.01743834  0.11992880  -0.00473840  1
  O  O291  1  0.01101287  0.11558502  0.51162131  1
  O  O292  1  -0.00504852  0.61778998  0.01287780  1
  O  O293  1  0.01657499  0.64745077  0.51570416  1
  O  O294  1  0.50136449  0.11109694  0.00622495  1
  O  O295  1  0.52087410  0.16006773  0.50814431  1
  O  O296  1  0.50280924  0.61538885  0.00622287  1
  O  O297  1  0.51414356  0.61978366  0.50096560  1
  O  O298  1  0.51722802  0.38709947  0.49464530  1
  O  O299  1  0.50704443  0.39522156  0.98984258  1
  O  O300  1  0.47703047  0.87011893  0.48892173  1
  O  O301  1  0.50345133  0.89320098  1.00079208  1
  O  O302  1  0.99451467  0.38287917  0.50888375  1
  O  O303  1  0.98823981  0.36492292  0.99713544  1
  O  O304  1  0.99451058  0.87983470  0.49000872  1
  O  O305  1  1.03077735  0.89543615  0.98128762  1
  O  O306  1  0.50909628  0.50440189  0.38682707  1
  O  O307  1  0.49458070  0.49474166  0.88534749  1
  O  O308  1  0.48733650  0.99380424  0.37235889  1
  O  O309  1  0.49985109  1.00139867  0.87758031  1
  O  O310  1  0.99989432  0.49666007  0.38752018  1
  O  O311  1  0.98439853  0.48664163  0.86267994  1
  O  O312  1  1.00233596  0.99286724  0.38852643  1
  O  O313  1  1.01111194  0.99336650  0.87451434  1
  O  O314  1  0.01293855  0.01391600  0.11233780  1
  O  O315  1  0.00273153  0.00829425  0.62036848  1
  O  O316  1  0.01152259  0.50638442  0.13522302  1
  O  O317  1  0.00438276  0.51776200  0.61623825  1
  O  O318  1  0.49441572  0.01131680  0.12853226  1
  O  O319  1  0.46955916  -0.01936085  0.62687211  1
  O  O320  1  0.49454206  0.51663833  0.11154353  1
  O  O321  1  0.52354880  0.49081267  0.61853831  1
  O  O322  1  0.25094627  0.38903301  0.26408180  1
  O  O323  1  0.24565385  0.38854040  0.74090943  1
  O  O324  1  0.23937289  0.89080207  0.25775729  1
  O  O325  1  0.29368197  0.89229986  0.73383343  1
  O  O326  1  0.74077157  0.37948433  0.23632960  1
  O  O327  1  0.73752068  0.36629710  0.74943726  1
  O  O328  1  0.72998845  0.87219063  0.26040451  1
  O  O329  1  0.80177243  0.93579828  0.79771170  1
  O  O330  1  0.24936853  0.11920428  0.26088102  1
  O  O331  1  0.25052097  0.13645852  0.76527815  1
  O  O332  1  0.24781414  0.62138611  0.25921800  1
  O  O333  1  0.25908619  0.60861312  0.75570739  1
  O  O334  1  0.73195067  0.13046574  0.26176653  1
  O  O335  1  0.77277562  0.17392111  0.76316519  1
  O  O336  1  0.75051521  0.60986434  0.23943738  1
  O  O337  1  0.76075867  0.63083741  0.74225113  1
  O  O338  1  0.36834311  0.11545764  0.37716720  1
  O  O339  1  0.36154029  0.14438029  0.86870705  1
  O  O340  1  0.36929003  0.63073756  0.36701403  1
  O  O341  1  0.38102877  0.63078270  0.86050992  1
  O  O342  1  0.84745585  0.12040647  0.35021244  1
  O  O343  1  0.86720598  0.12162058  0.91086441  1
  O  O344  1  0.86668748  0.62527634  0.35777394  1
  O  O345  1  0.88370567  0.63129825  0.84828836  1
  O  O346  1  0.11603265  0.38145334  0.13300810  1
  O  O347  1  0.14314579  0.37181425  0.63735608  1
  O  O348  1  0.11335991  0.88884733  0.13510787  1
  O  O349  1  0.12119670  0.88703491  0.61730813  1
  O  O350  1  0.63762442  0.37153225  0.12116358  1
  O  O351  1  0.63727322  0.37548241  0.63500169  1
  O  O352  1  0.62497359  0.86065941  0.13441652  1
  O  O353  1  0.63846992  0.88745038  0.61237543  1
  O  O354  1  0.11656734  0.24074400  0.25899533  1
  O  O355  1  0.12258251  0.26380520  0.75505877  1
  O  O356  1  0.13084378  0.76481590  0.25757400  1
  O  O357  1  0.11579789  0.74760337  0.74497959  1
  O  O358  1  0.61705061  0.26821783  0.23929057  1
  O  O359  1  0.62154584  0.25695154  0.76956590  1
  O  O360  1  0.62543293  0.75518804  0.26653156  1
  O  O361  1  0.60999898  0.74697596  0.75593052  1
  O  O362  1  0.37120401  0.24515485  0.23037058  1
  O  O363  1  0.36456597  0.24672511  0.74017308  1
  O  O364  1  0.37961122  0.76546577  0.23494172  1
  O  O365  1  0.37119401  0.73759141  0.73462179  1
  O  O366  1  0.86920234  0.24999136  0.23091449  1
  O  O367  1  0.89832162  0.26675632  0.73755769  1
  O  O368  1  0.86775252  0.73039426  0.24603797  1
  O  O369  1  0.88133037  0.74739736  0.73921803  1
  O  O370  1  0.39971752  0.50207284  0.50615996  1
  O  O371  1  0.38304776  0.50116655  0.99994681  1
  O  O372  1  0.36135293  0.98726001  0.48970916  1
  O  O373  1  0.38871820  0.99149198  0.99950505  1
  O  O374  1  0.90214622  0.53338334  0.49940736  1
  O  O375  1  0.87191126  0.47622239  1.00132290  1
  O  O376  1  0.88724985  0.98708576  0.50673951  1
  O  O377  1  0.90747568  0.99184694  1.00358309  1
  O  O378  1  0.12418660  0.01634924  0.00959966  1
  O  O379  1  0.11761996  0.00593267  0.50929808  1
  O  O380  1  0.12909954  0.49396850  0.01858531  1
  O  O381  1  0.10616874  0.50177665  0.49932180  1
  O  O382  1  0.61636718  0.01087769  -0.01162730  1
  O  O383  1  0.62229701  0.01223340  0.53704670  1
  O  O384  1  0.61638308  0.51693409  -0.00856645  1
  O  O385  1  0.62285264  0.50984183  0.50712500  1
  O  O386  1  0.37884079  0.36523419  0.12598774  1
  O  O387  1  0.36163022  0.36841890  0.63485832  1
  O  O388  1  0.38014695  0.86633986  0.11373906  1
  O  O389  1  0.36212732  0.85953700  0.60299250  1
  O  O390  1  0.87148091  0.36169112  0.11741210  1
  O  O391  1  0.85867703  0.36861863  0.62552790  1
  O  O392  1  0.92610294  0.84943974  0.08629184  1
  O  O393  1  0.88697563  0.86157886  0.60955702  1
  O  O394  1  0.13555679  0.11917314  0.39130834  1
  O  O395  1  0.13726815  0.13991355  0.88033495  1
  O  O396  1  0.11653443  0.64111981  0.36354741  1
  O  O397  1  0.11188909  0.62076220  0.87938481  1
  O  O398  1  0.63964213  0.11360865  0.37040535  1
  O  O399  1  0.61459848  0.13861405  0.88397710  1
  O  O400  1  0.62701505  0.63443338  0.38330063  1
  O  O401  1  0.63031126  0.63811015  0.88461848  1
