# generated using pymatgen
data_V73Zn73O256
_symmetry_space_group_name_H-M   'P 1'
_cell_length_a   16.94579283
_cell_length_b   16.93010090
_cell_length_c   16.96516068
_cell_angle_alpha   89.78467241
_cell_angle_beta   89.73563427
_cell_angle_gamma   89.74707422
_symmetry_Int_Tables_number   1
_chemical_formula_structural   V73Zn73O256
_chemical_formula_sum   'V73 Zn73 O256'
_cell_volume   4867.06927515
_cell_formula_units_Z   1
loop_
 _symmetry_equiv_pos_site_id
 _symmetry_equiv_pos_as_xyz
  1  'x, y, z'
loop_
 _atom_site_type_symbol
 _atom_site_label
 _atom_site_symmetry_multiplicity
 _atom_site_fract_x
 _atom_site_fract_y
 _atom_site_fract_z
 _atom_site_occupancy
  V  V0  1  0.48662990  -0.00341932  0.49888227  1
  V  V1  1  0.13183440  0.75693425  0.88252147  1
  V  V2  1  0.37372783  0.63442122  0.75089777  1
  V  V3  1  0.24170785  0.62055747  0.38270658  1
  V  V4  1  0.62344306  0.86554436  0.25084519  1
  V  V5  1  0.01432750  0.35895637  0.33239148  1
  V  V6  1  0.00652145  0.87884833  0.86662908  1
  V  V7  1  0.50345181  0.24802606  0.75873553  1
  V  V8  1  0.12827889  0.86962055  0.26129089  1
  V  V9  1  0.36232234  0.10849862  0.25585403  1
  V  V10  1  -0.01085513  0.86947141  0.38690661  1
  V  V11  1  0.62178651  0.37383967  0.75561629  1
  V  V12  1  0.61891840  0.12154951  -0.00887240  1
  V  V13  1  0.62443564  -0.01327558  0.62607973  1
  V  V14  1  -0.00180360  0.58703698  0.63194998  1
  V  V15  1  0.26042875  0.48487046  0.24133955  1
  V  V16  1  0.00219150  -0.00552587  0.00219385  1
  V  V17  1  0.36606260  0.12813171  0.75574863  1
  V  V18  1  0.37843892  0.49994095  0.88769639  1
  V  V19  1  0.37967282  0.65505559  0.26450740  1
  V  V20  1  0.86759289  0.24964070  0.62810177  1
  V  V21  1  0.86888365  0.12292489  0.74877044  1
  V  V22  1  0.87192600  0.38557690  -0.00013781  1
  V  V23  1  0.36618882  -0.00396317  0.87822361  1
  V  V24  1  0.50068638  0.37734168  0.88987165  1
  V  V25  1  0.87639476  0.63174859  0.23886622  1
  V  V26  1  0.73289491  0.74283633  -0.01052738  1
  V  V27  1  0.61836855  0.50995863  0.62372110  1
  V  V28  1  0.12623582  0.59504624  0.51828913  1
  V  V29  1  0.86752891  0.00199169  0.38510374  1
  V  V30  1  0.13761978  0.11867317  -0.00212594  1
  V  V31  1  0.13569291  -0.01708708  0.13345438  1
  V  V32  1  0.23271783  -0.00126570  0.74175424  1
  V  V33  1  0.62126411  0.75261789  0.39423309  1
  V  V34  1  0.49797127  0.12655857  0.63054445  1
  V  V35  1  0.87953591  0.38907234  0.50336778  1
  V  V36  1  0.52928827  0.63628120  0.08400161  1
  V  V37  1  0.88022691  0.86402364  0.00600138  1
  V  V38  1  0.74444576  -0.01172924  0.75057627  1
  V  V39  1  0.75202794  0.24200773  0.01249341  1
  V  V40  1  0.50477384  0.12383806  0.13556802  1
  V  V41  1  0.75282503  0.00208180  0.25011398  1
  V  V42  1  0.35859249  0.75968610  0.61432923  1
  V  V43  1  0.25603696  0.24922590  -0.01073618  1
  V  V44  1  0.75826522  0.62444405  0.38703472  1
  V  V45  1  -0.00910286  0.75671409  0.23550570  1
  V  V46  1  0.74917604  0.12682421  0.37313280  1
  V  V47  1  0.03961700  0.53488567  0.00815555  1
  V  V48  1  0.49774808  0.49503049  0.49520482  1
  V  V49  1  0.00581639  0.01191111  0.49829276  1
  V  V50  1  0.74759604  0.50963296  0.76329794  1
  V  V51  1  0.49792589  0.63581616  0.62193757  1
  V  V52  1  0.62266189  0.12552589  0.50172812  1
  V  V53  1  0.25608507  0.25360893  0.50280619  1
  V  V54  1  0.77432936  0.75586082  0.50572104  1
  V  V55  1  0.00201281  0.12741630  0.62251826  1
  V  V56  1  0.61382569  0.26219047  0.36908837  1
  V  V57  1  0.00460903  0.75616227  0.72786515  1
  V  V58  1  0.50673519  0.86913579  0.85386413  1
  V  V59  1  0.49115879  0.87984438  0.37554811  1
  V  V60  1  0.73986275  0.25480766  0.50187212  1
  V  V61  1  0.87420790  0.62644545  0.76257436  1
  V  V62  1  0.74268850  0.12653116  0.87150152  1
  V  V63  1  0.36943853  0.24586039  0.12830638  1
  V  V64  1  0.74199222  0.50757079  0.24096251  1
  V  V65  1  0.36753507  0.85184496  0.01117806  1
  V  V66  1  -0.01040960  0.12542754  0.13376417  1
  V  V67  1  0.73874267  0.38142138  0.62826162  1
  V  V68  1  0.24258210  0.48989273  0.74669261  1
  V  V69  1  0.76842240  0.87266410  0.62266884  1
  V  V70  1  0.37869838  0.48796448  0.37546088  1
  V  V71  1  0.62357926  -0.00786096  0.12279582  1
  V  V72  1  0.24968659  0.62994157  0.89016327  1
  Zn  Zn73  1  1.00893837  0.40625793  0.86562036  1
  Zn  Zn74  1  0.17191255  0.84040419  0.67047188  1
  Zn  Zn75  1  0.76295587  0.86561143  0.13057441  1
  Zn  Zn76  1  0.31428604  0.41903464  0.06673128  1
  Zn  Zn77  1  0.87423565  -0.00341429  0.87478185  1
  Zn  Zn78  1  0.49782127  -0.00973382  -0.00318031  1
  Zn  Zn79  1  0.91224472  0.28123438  0.16984406  1
  Zn  Zn80  1  0.62436255  0.38835401  0.25713706  1
  Zn  Zn81  1  0.89951570  0.50682483  0.37627998  1
  Zn  Zn82  1  0.19498685  0.16726818  0.16569521  1
  Zn  Zn83  1  0.19032966  0.18584217  0.68017103  1
  Zn  Zn84  1  0.23215381  0.67453011  0.17796442  1
  Zn  Zn85  1  0.18560164  0.66942909  0.69102333  1
  Zn  Zn86  1  0.73276050  0.21895671  0.21510614  1
  Zn  Zn87  1  0.68226958  0.18553091  0.68982347  1
  Zn  Zn88  1  0.69101489  0.69151337  0.17811752  1
  Zn  Zn89  1  0.69126267  0.69029276  0.68543080  1
  Zn  Zn90  1  0.32963834  0.30725532  0.30983919  1
  Zn  Zn91  1  0.32037971  0.31329339  0.81802398  1
  Zn  Zn92  1  0.29327927  0.82243161  0.36285945  1
  Zn  Zn93  1  0.30925612  0.81997849  0.80840827  1
  Zn  Zn94  1  0.81404081  0.32719287  0.31866933  1
  Zn  Zn95  1  0.85056106  0.31849152  0.81560950  1
  Zn  Zn96  1  0.81082877  0.81571717  0.31677684  1
  Zn  Zn97  1  0.82099018  0.80946794  0.81181245  1
  Zn  Zn98  1  0.12714448  0.46921920  0.37776258  1
  Zn  Zn99  1  0.18445497  0.43504920  0.93376976  1
  Zn  Zn100  1  0.16272267  0.92034290  0.48143775  1
  Zn  Zn101  1  0.19019797  0.93492133  0.93754081  1
  Zn  Zn102  1  0.67923393  0.44332933  0.44174241  1
  Zn  Zn103  1  0.70883122  0.40816940  0.92631207  1
  Zn  Zn104  1  0.68620044  0.93457168  0.44200033  1
  Zn  Zn105  1  0.68909522  0.92662083  0.93504483  1
  Zn  Zn106  1  0.31655389  0.05237717  0.07141299  1
  Zn  Zn107  1  0.31052426  0.06326699  0.56799980  1
  Zn  Zn108  1  0.34654301  0.58826749  0.07577529  1
  Zn  Zn109  1  0.31683100  0.55401966  0.56488971  1
  Zn  Zn110  1  0.81003433  0.05500489  0.05995858  1
  Zn  Zn111  1  0.80712791  0.06225527  0.56402290  1
  Zn  Zn112  1  0.80600156  0.57002737  0.05562914  1
  Zn  Zn113  1  0.81339037  0.57027795  0.57194506  1
  Zn  Zn114  1  0.46618449  0.48437039  0.19506248  1
  Zn  Zn115  1  0.42592554  0.44387630  0.69855173  1
  Zn  Zn116  1  0.43559697  0.93026442  0.18781008  1
  Zn  Zn117  1  0.42649476  0.93991568  0.68683544  1
  Zn  Zn118  1  0.92781415  0.45178071  0.17178514  1
  Zn  Zn119  1  0.92345580  0.43069326  0.70240952  1
  Zn  Zn120  1  0.93753294  0.94260488  0.18889608  1
  Zn  Zn121  1  0.94201333  0.94282979  0.68376105  1
  Zn  Zn122  1  0.05373952  0.05520176  0.30588969  1
  Zn  Zn123  1  0.05460137  0.08792690  0.82145688  1
  Zn  Zn124  1  0.09438982  0.59627364  0.25792107  1
  Zn  Zn125  1  0.06769097  0.56913373  0.81895727  1
  Zn  Zn126  1  0.56774899  0.06036855  0.31286422  1
  Zn  Zn127  1  0.55755063  0.04791561  0.81119031  1
  Zn  Zn128  1  0.56416505  0.58182509  0.31514155  1
  Zn  Zn129  1  0.55623339  0.56193518  0.81135550  1
  Zn  Zn130  1  0.43984689  0.18032984  0.43056686  1
  Zn  Zn131  1  0.43887420  0.18353060  0.93676331  1
  Zn  Zn132  1  0.43332839  0.68634298  0.43919144  1
  Zn  Zn133  1  0.44819083  0.69403945  0.93226170  1
  Zn  Zn134  1  0.92898279  0.19376585  0.43529870  1
  Zn  Zn135  1  0.93915021  0.18514286  0.94343473  1
  Zn  Zn136  1  0.99350949  0.72629761  0.50919145  1
  Zn  Zn137  1  0.95112654  0.69005134  0.93560654  1
  Zn  Zn138  1  0.09223401  0.26697844  -0.10602429  1
  Zn  Zn139  1  0.05630443  0.30474527  0.55626430  1
  Zn  Zn140  1  0.09130505  0.70535081  0.08111422  1
  Zn  Zn141  1  0.19468182  0.76991637  0.51383853  1
  Zn  Zn142  1  0.51483986  0.34042158  0.09885465  1
  Zn  Zn143  1  0.51391143  0.33458401  0.58866239  1
  Zn  Zn144  1  0.55277505  0.81498564  0.05266436  1
  Zn  Zn145  1  0.55559499  0.81305634  0.56573618  1
  O  O146  1  0.11355931  0.10540819  0.11937074  1
  O  O147  1  0.10019560  0.14106075  0.62909340  1
  O  O148  1  0.13210592  0.62540134  0.15492358  1
  O  O149  1  0.11648107  0.60293476  0.62502195  1
  O  O150  1  0.61196125  0.10937421  0.11216240  1
  O  O151  1  0.61876738  0.11488929  0.61778825  1
  O  O152  1  0.62018515  0.62033457  0.12684737  1
  O  O153  1  0.60647873  0.62453048  0.63930046  1
  O  O154  1  0.39279858  0.38957128  0.36485480  1
  O  O155  1  0.39225138  0.38399190  0.87803609  1
  O  O156  1  0.39450934  0.88187332  0.37502960  1
  O  O157  1  0.37924297  0.88617407  0.87096384  1
  O  O158  1  0.85843982  0.38803956  0.40056992  1
  O  O159  1  0.81675068  0.37205129  0.90498927  1
  O  O160  1  0.87906243  0.89082755  0.37411342  1
  O  O161  1  0.89307479  0.87598737  0.87791215  1
  O  O162  1  0.19625539  0.08399055  0.37861573  1
  O  O163  1  0.26148553  -0.00407676  0.86183670  1
  O  O164  1  0.27162715  0.49428174  0.36939893  1
  O  O165  1  0.25697184  0.51637665  0.87441744  1
  O  O166  1  0.74956453  0.00640590  0.37251974  1
  O  O167  1  0.75054029  -0.00061454  0.86154746  1
  O  O168  1  0.74007033  0.52324999  0.38325252  1
  O  O169  1  0.72727979  0.50758059  0.85950134  1
  O  O170  1  0.28336238  0.50347951  0.13863073  1
  O  O171  1  0.26058256  0.50090416  0.64728551  1
  O  O172  1  0.23454784  0.99346417  0.12627984  1
  O  O173  1  0.24476411  1.00968117  0.64075594  1
  O  O174  1  0.75024812  0.51353769  0.14295903  1
  O  O175  1  0.73698108  0.49970553  0.63148195  1
  O  O176  1  0.73964203  0.99431264  0.13408520  1
  O  O177  1  0.74273593  0.98967327  0.62870710  1
  O  O178  1  -0.02421823  0.36403548  0.23516950  1
  O  O179  1  -0.04843055  0.35997123  0.78255795  1
  O  O180  1  -0.01460273  0.86615646  0.26373964  1
  O  O181  1  -0.00380305  0.86418611  0.74918865  1
  O  O182  1  0.53713417  0.39951977  0.18956637  1
  O  O183  1  0.50692215  0.36700531  0.75874966  1
  O  O184  1  0.51037427  0.88397426  0.26869924  1
  O  O185  1  0.50035315  0.88699160  0.75336576  1
  O  O186  1  0.50332785  0.12031837  0.23694924  1
  O  O187  1  0.49884411  0.12919690  0.74777884  1
  O  O188  1  0.48089680  0.63984931  0.26435470  1
  O  O189  1  0.48046375  0.61885545  0.73971609  1
  O  O190  1  1.00242408  0.12335089  0.23450209  1
  O  O191  1  0.97898945  0.11239692  0.72887650  1
  O  O192  1  0.98506945  0.64267244  0.25807614  1
  O  O193  1  0.99993491  0.63120284  0.74122977  1
  O  O194  1  0.36188207  0.22890765  0.00854824  1
  O  O195  1  0.36167853  0.24501440  0.49923495  1
  O  O196  1  0.37299089  0.75189523  -0.00224044  1
  O  O197  1  0.37013596  0.74530917  0.51561257  1
  O  O198  1  0.85614330  0.24326350  -0.00481451  1
  O  O199  1  0.85442698  0.26063730  0.50972483  1
  O  O200  1  0.88580957  0.76362385  -0.00331564  1
  O  O201  1  0.87163777  0.75111585  0.50702369  1
  O  O202  1  0.15153252  0.25925472  0.50467873  1
  O  O203  1  0.14136999  0.22753915  0.99774506  1
  O  O204  1  0.10865410  0.69825386  0.49150130  1
  O  O205  1  0.12430858  0.76013812  0.97866521  1
  O  O206  1  0.62849453  0.24128741  0.49532159  1
  O  O207  1  0.63070370  0.21973544  0.99668753  1
  O  O208  1  0.63095800  0.75554104  0.49470586  1
  O  O209  1  0.63441595  0.76468917  0.98990733  1
  O  O210  1  0.49136311  0.22639676  0.11258902  1
  O  O211  1  0.50872777  0.23335820  0.63963402  1
  O  O212  1  0.50121238  0.73005156  0.10994644  1
  O  O213  1  0.48707028  0.74048346  0.62326746  1
  O  O214  1  0.99251227  0.22454531  0.11167934  1
  O  O215  1  0.97730919  0.23821845  0.61463235  1
  O  O216  1  0.99689912  0.75794625  0.13849706  1
  O  O217  1  0.99968113  0.74939823  0.62958612  1
  O  O218  1  -0.01878380  0.27281765  0.37734652  1
  O  O219  1  0.01705140  0.19418034  0.86211565  1
  O  O220  1  -0.01275708  0.77119391  0.39827050  1
  O  O221  1  0.01816027  0.75689581  0.85977731  1
  O  O222  1  0.51578031  0.24659166  0.37882810  1
  O  O223  1  0.49495171  0.26172019  0.86799008  1
  O  O224  1  0.51252451  0.76576963  0.39211704  1
  O  O225  1  0.48947207  0.76940346  0.85986938  1
  O  O226  1  0.25472861  0.14813300  0.50792533  1
  O  O227  1  0.24118462  0.12561539  1.01931681  1
  O  O228  1  0.23562860  0.60236241  0.49648969  1
  O  O229  1  0.26443873  0.63072399  0.98689958  1
  O  O230  1  0.73877472  0.13387255  0.49744129  1
  O  O231  1  0.73825590  0.11177476  0.98734240  1
  O  O232  1  0.75657620  0.64148237  0.49643795  1
  O  O233  1  0.74789653  0.64247402  0.99531154  1
  O  O234  1  0.24877112  0.35503990  -0.00067617  1
  O  O235  1  0.26445968  0.35760416  0.50899120  1
  O  O236  1  0.27048294  0.87592097  -0.00900566  1
  O  O237  1  0.25056706  0.85762736  0.46203309  1
  O  O238  1  0.72739482  0.34060155  0.02187113  1
  O  O239  1  0.74244593  0.37309089  0.51466250  1
  O  O240  1  0.77253822  0.87583357  -0.00231823  1
  O  O241  1  0.75245697  0.86347849  0.50644931  1
  O  O242  1  0.15843398  0.49276761  0.25262699  1
  O  O243  1  0.14275041  0.50569539  0.76077768  1
  O  O244  1  0.11841831  0.98588244  0.24321751  1
  O  O245  1  0.13752882  1.02518182  0.75783783  1
  O  O246  1  0.63869079  0.51547238  0.26089448  1
  O  O247  1  0.62497731  0.49630889  0.74072291  1
  O  O248  1  0.63227327  0.98909980  0.24468885  1
  O  O249  1  0.63492901  1.00356552  0.73617975  1
  O  O250  1  0.37748731  0.00915359  0.24490310  1
  O  O251  1  0.36214243  0.01077954  0.75563114  1
  O  O252  1  0.38139329  0.51545829  0.26656421  1
  O  O253  1  0.36773383  0.51115277  0.76787961  1
  O  O254  1  0.85801119  -0.00234684  0.25993224  1
  O  O255  1  0.86125878  0.00754411  0.74501915  1
  O  O256  1  0.86639182  0.51730042  0.25550397  1
  O  O257  1  0.86017869  0.51369135  0.75467144  1
  O  O258  1  0.11505715  0.35718228  0.34010277  1
  O  O259  1  0.11800126  0.37069881  0.87266726  1
  O  O260  1  0.09433543  0.89229324  0.36592570  1
  O  O261  1  0.11896263  0.86910487  0.86952707  1
  O  O262  1  0.62464723  0.36607405  0.37793113  1
  O  O263  1  0.61389086  0.38172412  0.86374005  1
  O  O264  1  0.62398860  0.86598562  0.37159824  1
  O  O265  1  0.60508381  0.88568266  0.87382179  1
  O  O266  1  0.38828695  0.12253895  0.13192003  1
  O  O267  1  0.38940290  0.11521253  0.64304228  1
  O  O268  1  0.34676562  0.66516195  0.16323806  1
  O  O269  1  0.37920410  0.63083065  0.63432573  1
  O  O270  1  0.89105039  0.10295286  0.12177648  1
  O  O271  1  0.86675498  0.13401224  0.63011252  1
  O  O272  1  0.87046207  0.62641561  0.14110097  1
  O  O273  1  0.89401594  0.61439888  0.64094202  1
  O  O274  1  0.26513069  0.24542662  0.11708874  1
  O  O275  1  0.25830101  0.25367911  0.60832754  1
  O  O276  1  0.18795752  0.75522773  0.11924839  1
  O  O277  1  0.25131068  0.74410762  0.62327716  1
  O  O278  1  0.74592017  0.20724349  0.10569656  1
  O  O279  1  0.74502964  0.25968621  0.61989087  1
  O  O280  1  0.74632482  0.75780495  0.10365929  1
  O  O281  1  0.74669890  0.75834610  0.61341621  1
  O  O282  1  0.25840906  0.25929288  0.39874468  1
  O  O283  1  0.25972654  0.24359649  0.88941468  1
  O  O284  1  0.23485508  0.71887167  0.38659920  1
  O  O285  1  0.24099936  0.74374602  0.86395362  1
  O  O286  1  0.73815730  0.24495624  0.38832480  1
  O  O287  1  0.74198693  0.22614498  0.88317577  1
  O  O288  1  0.74767853  0.74950521  0.39278605  1
  O  O289  1  0.75864627  0.76187061  0.89086975  1
  O  O290  1  0.01346043  0.10735497  0.00584595  1
  O  O291  1  -0.01364536  0.12288057  0.50892918  1
  O  O292  1  0.02304775  0.63948165  0.01105227  1
  O  O293  1  0.00200955  0.60500634  0.52903499  1
  O  O294  1  0.51026193  0.11318436  -0.00188683  1
  O  O295  1  0.50460923  0.11682684  0.50790397  1
  O  O296  1  0.52717033  0.62945330  -0.01914376  1
  O  O297  1  0.49374636  0.62043660  0.51839034  1
  O  O298  1  0.51288483  0.39622334  0.49448308  1
  O  O299  1  0.51388626  0.36679626  0.98722141  1
  O  O300  1  0.50332900  0.89026083  0.49465446  1
  O  O301  1  0.48026784  0.87565728  0.98407982  1
  O  O302  1  0.97778812  0.37251908  0.51342867  1
  O  O303  1  0.96582122  0.36687206  0.97054917  1
  O  O304  1  0.99245789  0.90265942  0.48724656  1
  O  O305  1  0.99416968  0.88266885  0.98536421  1
  O  O306  1  0.49800551  0.51731749  0.39074963  1
  O  O307  1  0.49426883  0.48820164  0.87425358  1
  O  O308  1  0.50994751  0.99289728  0.39076782  1
  O  O309  1  0.48233303  0.99015936  0.87290691  1
  O  O310  1  1.00174949  0.45872696  0.36618965  1
  O  O311  1  1.01219044  0.51581973  0.90594969  1
  O  O312  1  0.98224617  1.01390022  0.38464024  1
  O  O313  1  1.00404888  0.99299581  0.87939773  1
  O  O314  1  0.01029198  -0.00280855  0.11669803  1
  O  O315  1  -0.00915452  0.01470045  0.60808425  1
  O  O316  1  -0.00403459  0.49675698  0.09144557  1
  O  O317  1  0.00218314  0.48870454  0.64409689  1
  O  O318  1  0.50601192  0.00682206  0.12170740  1
  O  O319  1  0.50600102  0.00404124  0.61463973  1
  O  O320  1  0.45886660  0.56102059  0.11181637  1
  O  O321  1  0.50188957  0.51171056  0.61859643  1
  O  O322  1  0.27430541  0.38585333  0.24801106  1
  O  O323  1  0.26024356  0.39115053  0.76523423  1
  O  O324  1  0.22462772  0.86033276  0.27510829  1
  O  O325  1  0.23759583  0.89094139  0.74691919  1
  O  O326  1  0.74512878  0.40436965  0.26147665  1
  O  O327  1  0.74063015  0.38753742  0.74060211  1
  O  O328  1  0.74197736  0.88314708  0.24942290  1
  O  O329  1  0.75765450  0.88121406  0.74037415  1
  O  O330  1  0.26201837  0.12214207  0.24315700  1
  O  O331  1  0.26221967  0.12919642  0.74721446  1
  O  O332  1  0.26269829  0.61099632  0.27232268  1
  O  O333  1  0.26250250  0.61562608  0.75844121  1
  O  O334  1  0.73226423  0.11106454  0.26573913  1
  O  O335  1  0.74910225  0.11254070  0.75267613  1
  O  O336  1  0.75952129  0.62739031  0.26250420  1
  O  O337  1  0.76684855  0.62589413  0.74454916  1
  O  O338  1  0.38142860  0.12581315  0.35423433  1
  O  O339  1  0.38200353  0.11142638  0.86167155  1
  O  O340  1  0.36309748  0.61643081  0.38058399  1
  O  O341  1  0.36948292  0.62517808  0.86625525  1
  O  O342  1  0.85447990  0.12171442  0.38085113  1
  O  O343  1  0.86215962  0.11845342  0.86117118  1
  O  O344  1  0.86087002  0.62070355  0.37275212  1
  O  O345  1  0.88893412  0.62741319  0.86088739  1
  O  O346  1  0.13107694  0.35486484  0.14466491  1
  O  O347  1  0.11661760  0.34083496  0.65688544  1
  O  O348  1  0.12166914  0.88031848  0.14812848  1
  O  O349  1  0.12862359  0.85398228  0.57105163  1
  O  O350  1  0.61069435  0.47340028  0.05826815  1
  O  O351  1  0.62285525  0.38725382  0.63567903  1
  O  O352  1  0.61265693  0.88268432  0.13507303  1
  O  O353  1  0.62995361  0.88414796  0.61883262  1
  O  O354  1  0.12486102  0.29502126  0.18537328  1
  O  O355  1  0.13389205  0.28991958  0.71082075  1
  O  O356  1  0.09402723  0.76432991  0.26483820  1
  O  O357  1  0.11516712  0.75188297  0.73984008  1
  O  O358  1  0.63540755  0.25852817  0.26665839  1
  O  O359  1  0.61764682  0.26156539  0.74834586  1
  O  O360  1  0.63498275  0.76322618  0.25948515  1
  O  O361  1  0.62562845  0.71829002  0.78589805  1
  O  O362  1  0.37517203  0.23393075  0.23319378  1
  O  O363  1  0.38564223  0.23439075  0.75805037  1
  O  O364  1  0.36404813  0.74811798  0.29666565  1
  O  O365  1  0.36374707  0.73777244  0.73940150  1
  O  O366  1  0.83691808  0.24875987  0.24610278  1
  O  O367  1  0.85359305  0.23540205  0.73734148  1
  O  O368  1  0.87767476  0.74251484  0.25653382  1
  O  O369  1  0.89263592  0.73716277  0.75005399  1
  O  O370  1  0.38832385  0.49963710  0.49132559  1
  O  O371  1  0.36544420  0.50106580  0.99017502  1
  O  O372  1  0.38828687  1.00777741  0.50362771  1
  O  O373  1  0.37138794  1.00318939  0.98311322  1
  O  O374  1  0.86918288  0.49110472  0.50900637  1
  O  O375  1  0.85733015  0.48618225  1.00045603  1
  O  O376  1  0.87110969  1.00557778  0.48897200  1
  O  O377  1  0.88771321  0.99113385  0.99395528  1
  O  O378  1  0.12193966  -0.00636393  0.01431905  1
  O  O379  1  0.10497953  0.01586647  0.49134690  1
  O  O380  1  0.13710641  0.50874046  0.01049284  1
  O  O381  1  0.11545031  0.49834002  0.49124338  1
  O  O382  1  0.62591541  -0.00370149  0.01157327  1
  O  O383  1  0.62248099  0.01007297  0.50803810  1
  O  O384  1  0.64948420  0.49697548  0.00046731  1
  O  O385  1  0.61566627  0.50881247  0.51598412  1
  O  O386  1  0.39115187  0.34719260  0.11503648  1
  O  O387  1  0.41106481  0.36656562  0.62448401  1
  O  O388  1  0.38104151  0.87260018  0.10971761  1
  O  O389  1  0.37137268  0.85805897  0.62942773  1
  O  O390  1  0.87085986  0.37019766  0.10626238  1
  O  O391  1  0.85659127  0.36972300  0.62112406  1
  O  O392  1  0.88097861  0.88016630  0.10944903  1
  O  O393  1  0.86680849  0.87976042  0.62211701  1
  O  O394  1  0.13542640  0.12504639  0.36747251  1
  O  O395  1  0.14160455  0.09925178  0.90156428  1
  O  O396  1  0.13998809  0.59203464  0.36938738  1
  O  O397  1  0.14175693  0.64153373  0.87304414  1
  O  O398  1  0.62923493  0.13144263  0.38620245  1
  O  O399  1  0.62759466  0.10497740  0.88467282  1
  O  O400  1  0.63796783  0.65032417  0.37339345  1
  O  O401  1  0.62286228  0.66162907  0.83690542  1
