# generated using pymatgen
data_V73Zn73O256
_symmetry_space_group_name_H-M   'P 1'
_cell_length_a   16.85967351
_cell_length_b   16.86706006
_cell_length_c   16.91176646
_cell_angle_alpha   90.17094283
_cell_angle_beta   89.77483623
_cell_angle_gamma   90.17377693
_symmetry_Int_Tables_number   1
_chemical_formula_structural   V73Zn73O256
_chemical_formula_sum   'V73 Zn73 O256'
_cell_volume   4809.17139597
_cell_formula_units_Z   1
loop_
 _symmetry_equiv_pos_site_id
 _symmetry_equiv_pos_as_xyz
  1  'x, y, z'
loop_
 _atom_site_type_symbol
 _atom_site_label
 _atom_site_symmetry_multiplicity
 _atom_site_fract_x
 _atom_site_fract_y
 _atom_site_fract_z
 _atom_site_occupancy
  V  V0  1  0.63598880  0.87985764  0.24367095  1
  V  V1  1  0.62006285  0.49973673  0.62562681  1
  V  V2  1  0.62368671  0.75554570  0.38315031  1
  V  V3  1  0.24880149  0.63026699  0.88039644  1
  V  V4  1  -0.00556082  0.37984047  0.37931794  1
  V  V5  1  0.01500128  -0.00413519  0.01425870  1
  V  V6  1  0.13078378  0.49305994  0.12467956  1
  V  V7  1  0.37649626  0.12511204  0.24153349  1
  V  V8  1  0.52022791  0.63520344  0.12025783  1
  V  V9  1  -0.00395944  0.24073156  0.24705964  1
  V  V10  1  0.24986772  0.11411638  0.37431863  1
  V  V11  1  0.37187688  0.87584730  -0.00336539  1
  V  V12  1  0.37240839  0.62826548  0.74738809  1
  V  V13  1  0.49667120  0.25287284  0.23540515  1
  V  V14  1  0.50515528  0.00366891  0.03139781  1
  V  V15  1  0.37598242  0.12884642  0.74812721  1
  V  V16  1  0.12415228  0.74962973  0.85759793  1
  V  V17  1  0.50312254  0.25813706  0.75431165  1
  V  V18  1  0.87561052  0.63441912  0.24676775  1
  V  V19  1  0.74147738  0.62839627  0.38658691  1
  V  V20  1  0.62806041  0.87444506  0.75475940  1
  V  V21  1  0.37087125  0.26749362  0.62361865  1
  V  V22  1  0.86429231  0.01062634  0.36710591  1
  V  V23  1  0.87708614  0.88475883  -0.01329776  1
  V  V24  1  0.12144093  0.12611394  0.50944446  1
  V  V25  1  0.13104317  0.63581320  0.00837944  1
  V  V26  1  0.75767496  0.38507977  0.64931843  1
  V  V27  1  0.17804134  0.67273136  0.39107103  1
  V  V28  1  0.00080601  0.51863208  0.49956426  1
  V  V29  1  0.74431656  0.49839930  0.23355703  1
  V  V30  1  0.24803923  -0.01333874  0.74230028  1
  V  V31  1  0.75352293  0.26659960  0.49595363  1
  V  V32  1  0.12396359  0.25270201  0.37543741  1
  V  V33  1  0.11361023  0.25118530  0.86095268  1
  V  V34  1  0.13029409  -0.01968567  0.61871759  1
  V  V35  1  0.49783320  0.12593264  0.62063565  1
  V  V36  1  0.26963359  0.75702595  0.51758239  1
  V  V37  1  0.25178998  0.35307458  0.12550487  1
  V  V38  1  0.39170390  0.00100933  0.87206934  1
  V  V39  1  0.87256969  0.24231186  0.12956211  1
  V  V40  1  0.49653441  0.75083571  0.75844666  1
  V  V41  1  0.64037561  0.74037899  0.88343879  1
  V  V42  1  0.88784739  0.24836939  0.62230075  1
  V  V43  1  0.37359307  0.36473221  0.00787721  1
  V  V44  1  0.74293561  0.85960798  0.61877885  1
  V  V45  1  0.25034176  0.27028012  0.50499733  1
  V  V46  1  0.51014070  0.51092296  0.00589583  1
  V  V47  1  0.74392888  0.13079811  0.36818256  1
  V  V48  1  -0.00419960  0.00335858  0.50604101  1
  V  V49  1  0.01083932  0.87499090  0.86396944  1
  V  V50  1  0.90457606  0.74606131  0.62780661  1
  V  V51  1  -0.00590494  0.87251117  0.35413268  1
  V  V52  1  0.61883340  0.37980178  0.23472184  1
  V  V53  1  0.86828049  0.87562664  0.49966683  1
  V  V54  1  0.24429370  0.88450191  0.14626782  1
  V  V55  1  0.12837018  0.12723350  0.01136434  1
  V  V56  1  0.24823986  0.48707009  0.75432763  1
  V  V57  1  0.87509913  0.37251783  0.00105942  1
  V  V58  1  0.50228736  0.62454873  0.61416045  1
  V  V59  1  0.24960915  0.12954886  0.87672413  1
  V  V60  1  0.63243883  0.00584692  0.62374505  1
  V  V61  1  0.36807478  0.74958744  0.12488158  1
  V  V62  1  0.87631912  0.75045176  0.10472234  1
  V  V63  1  0.62989360  0.25042839  0.87973518  1
  V  V64  1  0.12758933  0.37845041  0.25044390  1
  V  V65  1  0.13184480  0.50360956  0.62925374  1
  V  V66  1  0.00855628  0.48720617  -0.01007569  1
  V  V67  1  0.50420989  0.38115813  0.87787198  1
  V  V68  1  0.39703062  -0.00342992  0.38892682  1
  V  V69  1  0.56438611  0.31486113  0.42512359  1
  V  V70  1  0.61815994  0.12536772  0.49611333  1
  V  V71  1  0.49760963  0.75670370  0.25054321  1
  V  V72  1  0.87228834  0.49907511  0.37441402  1
  Zn  Zn73  1  0.62975772  0.11990876  0.02186280  1
  Zn  Zn74  1  0.74867421  0.24848662  0.01101424  1
  Zn  Zn75  1  0.00918661  0.62602241  0.13289355  1
  Zn  Zn76  1  0.70444275  0.03799925  0.18349892  1
  Zn  Zn77  1  0.76244463  0.10906658  0.87419654  1
  Zn  Zn78  1  0.74987030  0.87522584  0.11142732  1
  Zn  Zn79  1  0.37367843  0.50570441  0.88658777  1
  Zn  Zn80  1  0.86280122  0.12917731  0.74493207  1
  Zn  Zn81  1  0.74458377  0.51815973  0.77220901  1
  Zn  Zn82  1  0.18666982  0.06420491  0.19321086  1
  Zn  Zn83  1  0.18899998  0.18650710  0.68652785  1
  Zn  Zn84  1  0.21202751  0.66053040  0.20449503  1
  Zn  Zn85  1  0.18269475  0.68539805  0.68008856  1
  Zn  Zn86  1  0.68131842  0.20557275  0.19046997  1
  Zn  Zn87  1  0.69128235  0.19285560  0.68868078  1
  Zn  Zn88  1  0.69459606  0.69639465  0.18830963  1
  Zn  Zn89  1  0.68310952  0.68022506  0.69011227  1
  Zn  Zn90  1  0.30785786  0.30297613  0.30767683  1
  Zn  Zn91  1  0.31765273  0.31092484  0.82347828  1
  Zn  Zn92  1  0.29277808  0.82886548  0.34690908  1
  Zn  Zn93  1  0.31285301  0.81167839  0.81606320  1
  Zn  Zn94  1  0.80813941  0.31606742  0.30774704  1
  Zn  Zn95  1  0.84345774  0.28273878  0.82926805  1
  Zn  Zn96  1  0.81223073  0.81354279  0.31680347  1
  Zn  Zn97  1  0.81720586  0.70048551  0.80108422  1
  Zn  Zn98  1  0.18201881  0.45784326  0.43172960  1
  Zn  Zn99  1  0.19174808  0.43240890  0.94011995  1
  Zn  Zn100  1  0.17589442  0.93232080  0.42766907  1
  Zn  Zn101  1  0.19326882  0.93759320  0.93784404  1
  Zn  Zn102  1  0.68310117  0.45264500  0.43564670  1
  Zn  Zn103  1  0.69219230  0.43547312  0.95087028  1
  Zn  Zn104  1  0.67955363  0.94095995  0.43657289  1
  Zn  Zn105  1  0.68307238  0.93216675  0.94208431  1
  Zn  Zn106  1  0.31288854  0.05835285  0.05964248  1
  Zn  Zn107  1  0.30975946  0.06847690  0.56046262  1
  Zn  Zn108  1  0.31704456  0.55827034  0.07764881  1
  Zn  Zn109  1  0.29935857  0.58226169  0.56725392  1
  Zn  Zn110  1  0.81734840  0.06522868  0.05297350  1
  Zn  Zn111  1  0.80622730  0.07091859  0.55716081  1
  Zn  Zn112  1  0.82708278  0.55133855  0.06532173  1
  Zn  Zn113  1  0.81663866  0.56582700  0.56851654  1
  Zn  Zn114  1  0.43789266  0.44410453  0.18222157  1
  Zn  Zn115  1  0.43595955  0.44546612  0.69421563  1
  Zn  Zn116  1  0.42777829  0.93338682  0.20191386  1
  Zn  Zn117  1  0.44858734  0.94496385  0.69440560  1
  Zn  Zn118  1  0.94158286  0.43425128  0.18538456  1
  Zn  Zn119  1  0.95919319  0.41265929  0.65378699  1
  Zn  Zn120  1  0.90713588  0.95320891  0.17727443  1
  Zn  Zn121  1  0.93818947  0.93005342  0.68556479  1
  Zn  Zn122  1  0.05205673  0.05665837  0.31570107  1
  Zn  Zn123  1  0.06672892  0.05604401  0.81375172  1
  Zn  Zn124  1  0.07108747  0.57112197  0.31127575  1
  Zn  Zn125  1  0.06173284  0.42418972  0.80864524  1
  Zn  Zn126  1  0.56011517  0.06546356  0.30604612  1
  Zn  Zn127  1  0.60323614  0.04523294  0.82988040  1
  Zn  Zn128  1  0.56713189  0.57291029  0.30099527  1
  Zn  Zn129  1  0.56638532  0.56372916  0.81257437  1
  Zn  Zn130  1  0.42877009  0.19174580  0.43744102  1
  Zn  Zn131  1  0.44607199  0.18181148  0.94212376  1
  Zn  Zn132  1  0.43629857  0.69192823  0.43731396  1
  Zn  Zn133  1  0.43973789  0.69121796  0.93794536  1
  Zn  Zn134  1  0.93567670  0.19000932  0.44001515  1
  Zn  Zn135  1  0.94199308  0.18026379  0.94178140  1
  Zn  Zn136  1  0.93033445  0.69297653  0.43426475  1
  Zn  Zn137  1  0.95008857  0.67864292  0.93849835  1
  Zn  Zn138  1  0.06427547  0.30212245  0.06131199  1
  Zn  Zn139  1  0.07198936  0.32705532  0.56009891  1
  Zn  Zn140  1  0.05751341  0.81646172  0.07977424  1
  Zn  Zn141  1  0.06855834  0.80412743  0.52581481  1
  Zn  Zn142  1  0.56030932  0.31581172  0.05916047  1
  Zn  Zn143  1  0.57119915  0.31668949  0.58707498  1
  Zn  Zn144  1  0.56174418  0.82277874  0.05849332  1
  Zn  Zn145  1  0.55399605  0.80931932  0.57176637  1
  O  O146  1  0.13647967  0.12795308  0.11016206  1
  O  O147  1  0.13060441  0.11619912  0.61239946  1
  O  O148  1  0.13252491  0.61324864  0.11835620  1
  O  O149  1  0.11010957  0.60087135  0.64410872  1
  O  O150  1  0.63985633  0.11745135  0.13591820  1
  O  O151  1  0.61730065  0.12675496  0.61790402  1
  O  O152  1  0.61976523  0.64013300  0.11625442  1
  O  O153  1  0.61221940  0.61477945  0.62666593  1
  O  O154  1  0.34103733  0.40133254  0.37441776  1
  O  O155  1  0.38384938  0.37933008  0.89272921  1
  O  O156  1  0.38149837  0.89791425  0.36725491  1
  O  O157  1  0.36995080  0.88490792  0.88868612  1
  O  O158  1  0.88237281  0.38744405  0.36399813  1
  O  O159  1  0.88486684  0.35981799  0.90145277  1
  O  O160  1  0.86326812  0.89462375  0.38368602  1
  O  O161  1  0.90186485  0.86229390  0.88820536  1
  O  O162  1  0.24972870  0.01409786  0.38114925  1
  O  O163  1  0.25707469  0.00742791  0.85888248  1
  O  O164  1  0.28958237  0.45674858  0.36588935  1
  O  O165  1  0.24858626  0.50959825  0.86649787  1
  O  O166  1  0.75414388  0.01692455  0.38547411  1
  O  O167  1  0.70563855  0.01193599  0.86848088  1
  O  O168  1  0.75260803  0.51340903  0.36567198  1
  O  O169  1  0.76258401  0.51522680  0.89129354  1
  O  O170  1  0.23328756  0.47830225  0.11399998  1
  O  O171  1  0.24099380  0.50377614  0.63546335  1
  O  O172  1  0.25680423  0.99058030  0.13515140  1
  O  O173  1  0.24795961  1.00324660  0.63464027  1
  O  O174  1  0.74905824  0.50414659  0.13397051  1
  O  O175  1  0.75152607  0.48948786  0.62382518  1
  O  O176  1  0.79060678  0.98524937  0.13227011  1
  O  O177  1  0.73532212  1.00239877  0.62390372  1
  O  O178  1  0.00866857  0.36803617  0.26049325  1
  O  O179  1  -0.04105311  0.41438810  0.76509464  1
  O  O180  1  -0.02923021  0.89190623  0.25778428  1
  O  O181  1  0.00498430  0.87675042  0.76507736  1
  O  O182  1  0.50723040  0.37038883  0.24226389  1
  O  O183  1  0.48816574  0.36979504  0.76625229  1
  O  O184  1  0.51310772  0.86257917  0.24514169  1
  O  O185  1  0.50877018  0.85704114  0.73613084  1
  O  O186  1  0.49091300  0.14330374  0.25618994  1
  O  O187  1  0.48626068  0.13840282  0.74205293  1
  O  O188  1  0.50818699  0.64130649  0.22873384  1
  O  O189  1  0.48949881  0.63273798  0.75078964  1
  O  O190  1  0.99748788  0.14334534  0.26666798  1
  O  O191  1  0.97786029  0.08038581  0.74368380  1
  O  O192  1  0.97771112  0.61483960  0.25096254  1
  O  O193  1  0.95736470  0.57669300  0.75712023  1
  O  O194  1  0.39103000  0.26599789  0.00300128  1
  O  O195  1  0.35782635  0.25565447  0.50604535  1
  O  O196  1  0.38275066  0.76947932  0.00685824  1
  O  O197  1  0.37086473  0.74961140  0.50891406  1
  O  O198  1  0.88527480  0.25654312  0.01653081  1
  O  O199  1  0.85800837  0.25056593  0.50455257  1
  O  O200  1  0.87907856  0.74918787  0.00194599  1
  O  O201  1  0.87700791  0.77073347  0.50615654  1
  O  O202  1  0.13099627  0.24805249  0.49665187  1
  O  O203  1  0.12089884  0.23095364  0.98867303  1
  O  O204  1  0.11834705  0.73321957  0.44871624  1
  O  O205  1  0.12426248  0.73446585  1.01564210  1
  O  O206  1  0.62879111  0.25293448  0.49029535  1
  O  O207  1  0.62641277  0.25125676  0.99170405  1
  O  O208  1  0.60525243  0.76035123  0.48112206  1
  O  O209  1  0.62299738  0.76814834  0.98036251  1
  O  O210  1  0.50185381  0.25019593  0.13641911  1
  O  O211  1  0.49292336  0.24826216  0.63616134  1
  O  O212  1  0.50059330  0.74873864  0.12826407  1
  O  O213  1  0.50712292  0.73030557  0.64068707  1
  O  O214  1  1.00136351  0.24741223  0.14373251  1
  O  O215  1  0.98593485  0.26010730  0.60302622  1
  O  O216  1  0.98335490  0.74125705  0.12610997  1
  O  O217  1  1.00360628  0.76108838  0.61133992  1
  O  O218  1  0.00418493  0.26040671  0.37548825  1
  O  O219  1  0.01477031  0.24389499  0.87277597  1
  O  O220  1  -0.02786469  0.77371703  0.36669888  1
  O  O221  1  0.01826955  0.75452453  0.88206119  1
  O  O222  1  0.49716623  0.25962074  0.36997804  1
  O  O223  1  0.50333259  0.26115002  0.87222358  1
  O  O224  1  0.50778816  0.73671578  0.35816988  1
  O  O225  1  0.50756699  0.74953902  0.86157303  1
  O  O226  1  0.24023268  0.13564332  0.48992079  1
  O  O227  1  0.23873911  0.11076082  0.98737476  1
  O  O228  1  0.23872821  0.65373462  0.50169212  1
  O  O229  1  0.23979784  0.61483264  0.99258325  1
  O  O230  1  0.73218548  0.14361685  0.49690987  1
  O  O231  1  0.74677642  0.13127046  0.99148589  1
  O  O232  1  0.75098278  0.62118475  0.48421245  1
  O  O233  1  0.79263088  0.58591445  0.93077709  1
  O  O234  1  0.26579140  0.37213828  0.00671922  1
  O  O235  1  0.23499638  0.36846581  0.49972781  1
  O  O236  1  0.26820277  0.88856704  0.01279848  1
  O  O237  1  0.24302604  0.84613451  0.46490494  1
  O  O238  1  0.76820410  0.37086081  0.00598461  1
  O  O239  1  0.74454698  0.36584020  0.48570232  1
  O  O240  1  0.77292308  0.88203891  -0.00869054  1
  O  O241  1  0.75391130  0.88594822  0.51168392  1
  O  O242  1  0.12002222  0.48515652  0.24133072  1
  O  O243  1  0.14265644  0.49216415  0.74978353  1
  O  O244  1  0.13436038  1.00533898  0.26875874  1
  O  O245  1  0.14127874  0.99878845  0.73746895  1
  O  O246  1  0.63278618  0.49357634  0.24866429  1
  O  O247  1  0.63313296  0.50719998  0.73887033  1
  O  O248  1  0.62601814  0.98480268  0.25545665  1
  O  O249  1  0.60626465  0.97980202  0.73389960  1
  O  O250  1  0.38596994  0.02130871  0.26760248  1
  O  O251  1  0.36979718  0.00832893  0.75177726  1
  O  O252  1  0.41515665  0.51008888  0.28030238  1
  O  O253  1  0.36546586  0.51207176  0.75867924  1
  O  O254  1  0.86870521  0.01573649  0.26977827  1
  O  O255  1  0.91463999  0.02045576  0.75654818  1
  O  O256  1  0.86022216  0.50543724  0.25226643  1
  O  O257  1  0.91218413  0.51933567  0.76337880  1
  O  O258  1  0.11957974  0.37283156  0.36947927  1
  O  O259  1  0.13099608  0.35839381  0.87443161  1
  O  O260  1  0.09461831  0.88123004  0.36609881  1
  O  O261  1  0.12627906  0.85710711  0.88163186  1
  O  O262  1  0.61525341  0.38438590  0.36789529  1
  O  O263  1  0.61051792  0.37186460  0.88734033  1
  O  O264  1  0.63014438  0.86242057  0.36550415  1
  O  O265  1  0.62557612  0.86862737  0.85602804  1
  O  O266  1  0.36540852  0.12181567  0.14340566  1
  O  O267  1  0.37923707  0.13883386  0.62948745  1
  O  O268  1  0.39268473  0.65114851  0.10495851  1
  O  O269  1  0.38697140  0.61468534  0.63759947  1
  O  O270  1  0.88063789  0.14223287  0.11921619  1
  O  O271  1  0.86791588  0.14414050  0.61966703  1
  O  O272  1  0.87205629  0.63302544  0.13134830  1
  O  O273  1  0.88059726  0.65106112  0.60378235  1
  O  O274  1  0.25190661  0.25783923  0.11591769  1
  O  O275  1  0.25376755  0.25100462  0.61275430  1
  O  O276  1  0.26607247  0.75318875  0.13562139  1
  O  O277  1  0.24336663  0.75963188  0.61654364  1
  O  O278  1  0.76814435  0.25411187  0.13188415  1
  O  O279  1  0.74351761  0.26949718  0.61236323  1
  O  O280  1  0.77048446  0.75553380  0.12452408  1
  O  O281  1  0.73585781  0.76075225  0.61541512  1
  O  O282  1  0.24136723  0.24949146  0.38794451  1
  O  O283  1  0.24613705  0.23497702  0.87253864  1
  O  O284  1  0.26924486  0.71841084  0.36711474  1
  O  O285  1  0.23967903  0.74189583  0.87241708  1
  O  O286  1  0.75594989  0.24147830  0.38369546  1
  O  O287  1  0.72883569  0.26785154  0.86874141  1
  O  O288  1  0.73706186  0.73934182  0.37370761  1
  O  O289  1  0.73979434  0.75252463  0.86815031  1
  O  O290  1  0.01609583  0.10671405  -0.00731648  1
  O  O291  1  0.00994642  0.11583479  0.49110277  1
  O  O292  1  0.01767721  0.61085858  0.00511860  1
  O  O293  1  0.00292580  0.61644910  0.47752642  1
  O  O294  1  0.50663975  0.10697302  0.00184508  1
  O  O295  1  0.50824818  0.14561668  0.50945894  1
  O  O296  1  0.50313833  0.61905746  0.00353452  1
  O  O297  1  0.49659674  0.62881946  0.51600474  1
  O  O298  1  0.51278623  0.36368517  0.49550105  1
  O  O299  1  0.49104083  0.38969446  1.00153010  1
  O  O300  1  0.45943970  0.87949516  0.54264886  1
  O  O301  1  0.48273408  0.89334695  1.01003575  1
  O  O302  1  1.00423801  0.39128518  0.48318619  1
  O  O303  1  1.00520339  0.38256253  1.00335698  1
  O  O304  1  0.98733826  0.88788983  0.48484806  1
  O  O305  1  1.00241228  0.88259886  0.99918336  1
  O  O306  1  0.47110081  0.50720294  0.33306236  1
  O  O307  1  0.49875531  0.49846624  0.88757775  1
  O  O308  1  0.49724349  1.01025685  0.38461961  1
  O  O309  1  0.49111355  1.00446521  0.86115516  1
  O  O310  1  0.99230015  0.49719908  0.37486673  1
  O  O311  1  1.01633668  0.49913718  0.89267171  1
  O  O312  1  0.97757597  0.99953678  0.38492921  1
  O  O313  1  1.02035036  0.97742802  0.88666453  1
  O  O314  1  -0.00181644  -0.00409922  0.11253840  1
  O  O315  1  0.01087282  -0.01121127  0.61067436  1
  O  O316  1  0.01505902  0.50128598  0.12050328  1
  O  O317  1  -0.02835848  0.51362853  0.59586152  1
  O  O318  1  0.49135672  0.00303403  0.12960880  1
  O  O319  1  0.50539239  0.02178131  0.62668232  1
  O  O320  1  0.49720349  0.52238730  0.11755893  1
  O  O321  1  0.51073575  0.50691639  0.63223603  1
  O  O322  1  0.23960375  0.36273823  0.23667271  1
  O  O323  1  0.26500418  0.38937260  0.75697171  1
  O  O324  1  0.25664605  0.87137834  0.24487073  1
  O  O325  1  0.26115197  0.88837355  0.74820297  1
  O  O326  1  0.73547791  0.38942691  0.25492396  1
  O  O327  1  0.76817728  0.39386789  0.74811731  1
  O  O328  1  0.73886893  0.87036542  0.24920503  1
  O  O329  1  0.73059550  0.87321677  0.72806139  1
  O  O330  1  0.26207642  0.13316534  0.26682139  1
  O  O331  1  0.26353377  0.12020537  0.75359771  1
  O  O332  1  0.29482447  0.58662630  0.18914403  1
  O  O333  1  0.25706215  0.62211634  0.75715887  1
  O  O334  1  0.74320310  0.13149862  0.26807119  1
  O  O335  1  0.74787066  0.12626838  0.75548245  1
  O  O336  1  0.75368399  0.61424605  0.25233458  1
  O  O337  1  0.76701300  0.62237448  0.73453538  1
  O  O338  1  0.36208904  0.12256261  0.37441621  1
  O  O339  1  0.37174312  0.12006497  0.86841328  1
  O  O340  1  0.37124044  0.58695344  0.41563987  1
  O  O341  1  0.36450522  0.62926723  0.87113391  1
  O  O342  1  0.85790471  0.11862122  0.39049729  1
  O  O343  1  0.86293795  0.16676695  0.86244803  1
  O  O344  1  0.85992208  0.62320731  0.36209676  1
  O  O345  1  0.85826435  0.61734686  0.88549638  1
  O  O346  1  0.13309259  0.36997451  0.13071423  1
  O  O347  1  0.08280787  0.40498444  0.64321104  1
  O  O348  1  0.14721742  0.86691905  0.12551986  1
  O  O349  1  0.12907825  0.88303152  0.59916279  1
  O  O350  1  0.62659434  0.37527073  0.13576172  1
  O  O351  1  0.64244413  0.38761993  0.63703518  1
  O  O352  1  0.63325053  0.86919094  0.13815254  1
  O  O353  1  0.63012435  0.88415073  0.61785548  1
  O  O354  1  0.11238255  0.25905834  0.26609943  1
  O  O355  1  0.12456043  0.24257246  0.75999977  1
  O  O356  1  0.13754634  0.67605076  0.29036228  1
  O  O357  1  0.12268507  0.74418982  0.75957549  1
  O  O358  1  0.61170136  0.26914767  0.25620309  1
  O  O359  1  0.60881729  0.25276828  0.75808765  1
  O  O360  1  0.61900926  0.75912994  0.25753309  1
  O  O361  1  0.61654761  0.75604762  0.75507133  1
  O  O362  1  0.38745114  0.24434064  0.25376489  1
  O  O363  1  0.37866054  0.24616967  0.74483387  1
  O  O364  1  0.39357390  0.75617046  0.23508750  1
  O  O365  1  0.38656633  0.74445884  0.75564560  1
  O  O366  1  0.88705480  0.25856572  0.24352265  1
  O  O367  1  0.87982452  0.25599864  0.72470123  1
  O  O368  1  0.86673774  0.73565814  0.24766387  1
  O  O369  1  0.88882354  0.75167624  0.72839493  1
  O  O370  1  0.36628051  0.53812699  0.47398044  1
  O  O371  1  0.38557772  0.49444928  1.00497730  1
  O  O372  1  0.37358201  1.01124862  0.48718678  1
  O  O373  1  0.38800024  0.99952191  0.99128908  1
  O  O374  1  0.87940920  0.51024749  0.47844275  1
  O  O375  1  0.89622327  0.48421710  1.00857073  1
  O  O376  1  0.87903109  0.99542557  0.50440916  1
  O  O377  1  0.89509250  0.98993369  0.99135972  1
  O  O378  1  0.12223679  0.00538990  0.00292976  1
  O  O379  1  0.11860205  0.00751256  0.50157106  1
  O  O380  1  0.12115649  0.49921513  0.00690696  1
  O  O381  1  0.11165320  0.49755335  0.52161103  1
  O  O382  1  0.60736608  -0.01221309  0.01388146  1
  O  O383  1  0.62315311  0.01617890  0.50797101  1
  O  O384  1  0.60920103  0.49548024  0.00389332  1
  O  O385  1  0.62948790  0.49827274  0.52413260  1
  O  O386  1  0.36351756  0.37973322  0.12091951  1
  O  O387  1  0.38060757  0.36655569  0.62962259  1
  O  O388  1  0.36689507  0.86939030  0.12119863  1
  O  O389  1  0.40388365  0.88585448  0.59550654  1
  O  O390  1  0.88875478  0.36110227  0.11591274  1
  O  O391  1  0.85914034  0.36521366  0.61522003  1
  O  O392  1  0.88498504  0.86059291  0.10269778  1
  O  O393  1  0.86034191  0.86794615  0.62168225  1
  O  O394  1  0.13424573  0.13712752  0.38414701  1
  O  O395  1  0.13368549  0.12985190  0.87529628  1
  O  O396  1  0.16186166  0.56583858  0.39099182  1
  O  O397  1  0.13260502  0.64057645  0.89123946  1
  O  O398  1  0.63462616  0.12266279  0.38241390  1
  O  O399  1  0.61473722  0.14932362  0.87714245  1
  O  O400  1  0.63354735  0.63413279  0.37126517  1
  O  O401  1  0.62538124  0.64002744  0.87477420  1
