# generated using pymatgen
data_V73Zn73O256
_symmetry_space_group_name_H-M   'P 1'
_cell_length_a   16.83107021
_cell_length_b   16.86369220
_cell_length_c   16.85357814
_cell_angle_alpha   90.03928208
_cell_angle_beta   90.19780231
_cell_angle_gamma   89.92628929
_symmetry_Int_Tables_number   1
_chemical_formula_structural   V73Zn73O256
_chemical_formula_sum   'V73 Zn73 O256'
_cell_volume   4783.58471116
_cell_formula_units_Z   1
loop_
 _symmetry_equiv_pos_site_id
 _symmetry_equiv_pos_as_xyz
  1  'x, y, z'
loop_
 _atom_site_type_symbol
 _atom_site_label
 _atom_site_symmetry_multiplicity
 _atom_site_fract_x
 _atom_site_fract_y
 _atom_site_fract_z
 _atom_site_occupancy
  V  V0  1  0.11838853  0.50450464  0.62323179  1
  V  V1  1  0.37710528  0.75079046  0.12124172  1
  V  V2  1  0.88065733  0.25268429  0.62224296  1
  V  V3  1  0.49486797  0.51065396  0.50208938  1
  V  V4  1  0.75499784  0.00873884  0.76166269  1
  V  V5  1  0.13255874  0.85988171  0.23629527  1
  V  V6  1  0.62392302  0.51289369  0.61837323  1
  V  V7  1  0.74715210  0.49776629  0.76041204  1
  V  V8  1  0.49657690  0.00202320  0.49896749  1
  V  V9  1  0.63464699  0.73817773  0.38424020  1
  V  V10  1  0.86694440  0.74187773  0.61759900  1
  V  V11  1  0.63659018  0.88664266  0.24122796  1
  V  V12  1  0.12990117  0.24942732  0.88453405  1
  V  V13  1  0.35754192  0.35847113  -0.00418940  1
  V  V14  1  0.74363160  0.37433093  0.62674391  1
  V  V15  1  -0.01125736  0.50106777  -0.00314654  1
  V  V16  1  0.24570844  0.12560536  0.88207598  1
  V  V17  1  0.49188120  0.86755173  0.37717053  1
  V  V18  1  0.50997108  0.37572496  0.88222892  1
  V  V19  1  0.52331059  0.01362203  0.00795726  1
  V  V20  1  0.63267516  0.22895514  0.87491030  1
  V  V21  1  0.75747002  0.11499639  0.37291576  1
  V  V22  1  0.87823982  0.87117111  0.01669991  1
  V  V23  1  0.75007565  0.87110262  0.61654436  1
  V  V24  1  0.35936677  0.24712360  0.14271819  1
  V  V25  1  0.77903881  0.37095414  0.11401150  1
  V  V26  1  -0.00148002  0.74160830  0.74874662  1
  V  V27  1  0.25406171  0.74990679  -0.01269373  1
  V  V28  1  0.14342906  0.50687498  0.12869063  1
  V  V29  1  0.12531336  0.63656726  0.49114330  1
  V  V30  1  -0.01134819  0.63472891  0.12527372  1
  V  V31  1  0.87765947  0.14554415  0.24203541  1
  V  V32  1  -0.00115707  0.50374332  0.48639406  1
  V  V33  1  0.11281364  0.25815838  0.38039385  1
  V  V34  1  0.63907217  0.74937309  0.88331768  1
  V  V35  1  0.50611953  0.87933940  0.87913493  1
  V  V36  1  0.13424268  0.62391626  -0.01501439  1
  V  V37  1  0.62288783  0.00722977  0.61519604  1
  V  V38  1  0.25430774  0.86460775  0.62367580  1
  V  V39  1  0.36971515  0.01230105  0.37551086  1
  V  V40  1  0.11247114  -0.01109543  0.63334172  1
  V  V41  1  0.62944753  0.87738586  0.75660280  1
  V  V42  1  0.62936791  0.61391741  0.00598947  1
  V  V43  1  0.26452901  0.75061642  0.48389442  1
  V  V44  1  0.50575621  0.61462931  0.11846559  1
  V  V45  1  0.49830926  0.25554965  0.74282666  1
  V  V46  1  0.75670395  0.75319619  0.02175331  1
  V  V47  1  0.13913406  0.37370583  0.74487058  1
  V  V48  1  0.88728170  0.37656347  0.48726613  1
  V  V49  1  -0.00288973  0.87789065  0.87057195  1
  V  V50  1  0.00187521  0.25131109  0.74837625  1
  V  V51  1  0.25093018  -0.00692602  0.75077125  1
  V  V52  1  0.50199940  0.74971227  0.24598006  1
  V  V53  1  0.25963797  0.51923651  0.74699218  1
  V  V54  1  0.36664664  0.88815843  0.00239119  1
  V  V55  1  0.36672220  0.37161213  0.51834304  1
  V  V56  1  0.88183391  0.88943283  0.49237169  1
  V  V57  1  0.12279202  0.38129284  0.24887266  1
  V  V58  1  0.86027977  0.62399144  0.76746311  1
  V  V59  1  0.87379012  0.12832017  0.75947895  1
  V  V60  1  0.37324138  0.50526772  0.88212560  1
  V  V61  1  0.12024405  0.10072771  0.48826166  1
  V  V62  1  0.62579065  0.38111500  0.24397876  1
  V  V63  1  0.00087002  0.00675581  0.00350341  1
  V  V64  1  0.48818352  0.37617474  0.37309708  1
  V  V65  1  0.62121509  0.24683324  0.37192123  1
  V  V66  1  0.12396090  0.01758328  0.12513583  1
  V  V67  1  0.01645807  0.86971895  0.36777638  1
  V  V68  1  -0.00772887  0.38068517  0.87573348  1
  V  V69  1  0.25336623  0.00991080  0.24704573  1
  V  V70  1  0.86718335  0.62862581  0.27055739  1
  V  V71  1  0.74693000  0.24801439  0.49758220  1
  V  V72  1  0.50412712  0.13312169  0.14648236  1
  Zn  Zn73  1  0.36921385  0.12947899  0.73858302  1
  Zn  Zn74  1  0.44216886  0.68242984  0.71443065  1
  Zn  Zn75  1  0.73698573  0.23558278  0.01284174  1
  Zn  Zn76  1  0.13190470  0.75236258  0.85751673  1
  Zn  Zn77  1  -0.00539635  0.11150296  0.61868803  1
  Zn  Zn78  1  0.38390169  0.00817040  0.87483167  1
  Zn  Zn79  1  0.74972964  0.50544708  0.23481920  1
  Zn  Zn80  1  0.25430026  0.23051508  0.49847880  1
  Zn  Zn81  1  0.48783848  0.13412844  0.61960293  1
  Zn  Zn82  1  0.18549152  0.19210521  0.19376419  1
  Zn  Zn83  1  0.19925898  0.17141285  0.67020694  1
  Zn  Zn84  1  0.17658667  0.69961362  0.15819230  1
  Zn  Zn85  1  0.18761713  0.68361367  0.67861166  1
  Zn  Zn86  1  0.69047430  0.18965629  0.19187500  1
  Zn  Zn87  1  0.68293601  0.19092320  0.68896656  1
  Zn  Zn88  1  0.68732209  0.69055300  0.19616367  1
  Zn  Zn89  1  0.64766595  0.66925866  0.71014206  1
  Zn  Zn90  1  0.29012815  0.32013086  0.32181811  1
  Zn  Zn91  1  0.31719373  0.31193512  0.81140482  1
  Zn  Zn92  1  0.31118594  0.81828151  0.30453352  1
  Zn  Zn93  1  0.31653035  0.81788042  0.80541755  1
  Zn  Zn94  1  0.81072800  0.31333506  0.30661263  1
  Zn  Zn95  1  0.81066144  0.31333136  0.81305189  1
  Zn  Zn96  1  0.81316811  0.80360539  0.31172663  1
  Zn  Zn97  1  0.81565153  0.81676595  0.81666160  1
  Zn  Zn98  1  0.18251229  0.43039749  0.42635344  1
  Zn  Zn99  1  0.18934416  0.44085266  0.93045253  1
  Zn  Zn100  1  0.19128066  0.93441891  0.43799412  1
  Zn  Zn101  1  0.17849085  0.93630973  0.93607331  1
  Zn  Zn102  1  0.68186165  0.42763060  0.44315120  1
  Zn  Zn103  1  0.69801378  0.42568514  0.94678094  1
  Zn  Zn104  1  0.68373633  0.92807526  0.42879897  1
  Zn  Zn105  1  0.69842990  0.94201514  0.94651646  1
  Zn  Zn106  1  0.31048880  0.07395829  0.06943234  1
  Zn  Zn107  1  0.30870478  0.05367348  0.56197943  1
  Zn  Zn108  1  0.32275823  0.56501592  0.05364305  1
  Zn  Zn109  1  0.31319590  0.56647626  0.57000136  1
  Zn  Zn110  1  0.81075482  0.05788454  0.07172188  1
  Zn  Zn111  1  0.80931157  0.06531601  0.56517229  1
  Zn  Zn112  1  0.80638286  0.55837753  0.06209766  1
  Zn  Zn113  1  0.81036646  0.55700977  0.55921451  1
  Zn  Zn114  1  0.46751265  0.40819417  0.15983326  1
  Zn  Zn115  1  0.44019200  0.43961896  0.69123355  1
  Zn  Zn116  1  0.44329867  0.94203109  0.18654651  1
  Zn  Zn117  1  0.45748536  0.88106972  0.66594572  1
  Zn  Zn118  1  0.94251012  0.45125463  0.19412235  1
  Zn  Zn119  1  0.93541831  0.44000945  0.68675358  1
  Zn  Zn120  1  0.94843661  0.93314871  0.19254902  1
  Zn  Zn121  1  0.92886927  0.93142629  0.69275602  1
  Zn  Zn122  1  0.04727040  0.04550190  0.31158104  1
  Zn  Zn123  1  0.06139048  0.06379187  0.81239524  1
  Zn  Zn124  1  0.05935392  0.57352594  0.30830033  1
  Zn  Zn125  1  0.05736290  0.56294227  0.80573052  1
  Zn  Zn126  1  0.56471043  0.06142304  0.31631870  1
  Zn  Zn127  1  0.56017320  0.06432047  0.80582188  1
  Zn  Zn128  1  0.55575880  0.56041549  0.31081840  1
  Zn  Zn129  1  0.56031763  0.55418370  0.81473262  1
  Zn  Zn130  1  0.43488317  0.18998045  0.44004040  1
  Zn  Zn131  1  0.43814631  0.18707231  0.92816461  1
  Zn  Zn132  1  0.44245938  0.69660984  0.55584296  1
  Zn  Zn133  1  0.42741097  0.70953124  0.90178063  1
  Zn  Zn134  1  0.94623201  0.17724530  0.43192396  1
  Zn  Zn135  1  0.89308857  0.16165860  0.97115676  1
  Zn  Zn136  1  0.94132926  0.69272869  0.43999915  1
  Zn  Zn137  1  0.93649152  0.68853842  0.93819986  1
  Zn  Zn138  1  0.07741411  0.32649740  0.06245546  1
  Zn  Zn139  1  0.10154214  0.28951373  0.57909384  1
  Zn  Zn140  1  0.06508276  0.81458913  0.05740893  1
  Zn  Zn141  1  0.05514453  0.81625282  0.56612188  1
  Zn  Zn142  1  0.55514986  0.29655568  0.05783551  1
  Zn  Zn143  1  0.56009453  0.31881153  0.55776078  1
  Zn  Zn144  1  0.56286555  0.81996923  0.06190588  1
  Zn  Zn145  1  0.56988699  0.81178252  0.55997540  1
  O  O146  1  0.12027642  0.11693525  0.13007163  1
  O  O147  1  0.11675192  0.10254538  0.61877708  1
  O  O148  1  0.11593179  0.61697044  0.10979195  1
  O  O149  1  0.12608321  0.61020312  0.61266955  1
  O  O150  1  0.60536484  0.14092181  0.13132877  1
  O  O151  1  0.61876120  0.10875851  0.62716744  1
  O  O152  1  0.61928776  0.62798855  0.11725403  1
  O  O153  1  0.63760713  0.61166771  0.60996252  1
  O  O154  1  0.38753511  0.37172282  0.37227543  1
  O  O155  1  0.38019876  0.37917824  0.88253713  1
  O  O156  1  0.38883335  0.88397848  0.36428990  1
  O  O157  1  0.38760287  0.88342751  0.88984448  1
  O  O158  1  0.87008196  0.37364412  0.38902627  1
  O  O159  1  0.89361883  0.36747901  0.87468143  1
  O  O160  1  0.85666542  0.87185169  0.39607509  1
  O  O161  1  0.88948653  0.87180077  0.88789014  1
  O  O162  1  0.26370689  -0.00638241  0.36734112  1
  O  O163  1  0.23370043  0.00978994  0.86329991  1
  O  O164  1  0.27590865  0.57641029  0.35134330  1
  O  O165  1  0.26210202  0.49867727  0.86066972  1
  O  O166  1  0.74078648  0.01796344  0.38602302  1
  O  O167  1  0.74978160  0.00163549  0.86033752  1
  O  O168  1  0.74730754  0.52281932  0.40632012  1
  O  O169  1  0.74545928  0.48833372  0.85884060  1
  O  O170  1  0.24271921  0.51631383  0.12251514  1
  O  O171  1  0.24040307  0.50340825  0.64040607  1
  O  O172  1  0.23897645  1.00629204  0.13446749  1
  O  O173  1  0.23775606  0.98853394  0.63673235  1
  O  O174  1  0.74958610  0.47502132  0.11671160  1
  O  O175  1  0.74039126  0.49155409  0.62328389  1
  O  O176  1  0.78866935  0.98328077  0.16206671  1
  O  O177  1  0.73780194  0.99369619  0.62809600  1
  O  O178  1  0.02404347  0.39873036  0.25769346  1
  O  O179  1  0.00590420  0.37509795  0.75959280  1
  O  O180  1  0.02108473  0.86777746  0.25282691  1
  O  O181  1  -0.01265137  0.86093589  0.76337665  1
  O  O182  1  0.50767276  0.38207176  0.26823290  1
  O  O183  1  0.49656926  0.36315881  0.76198882  1
  O  O184  1  0.50573079  0.87015133  0.25539600  1
  O  O185  1  0.51830245  0.88795332  0.76537751  1
  O  O186  1  0.49648522  0.12293019  0.24577487  1
  O  O187  1  0.49388178  0.13575028  0.74612036  1
  O  O188  1  0.50641950  0.63800700  0.23123069  1
  O  O189  1  0.54187445  0.63986585  0.74833380  1
  O  O190  1  0.96863453  0.09806632  0.25022447  1
  O  O191  1  0.99424377  0.13632762  0.74522421  1
  O  O192  1  0.98658711  0.61957198  0.23234709  1
  O  O193  1  0.97892329  0.63365491  0.75309839  1
  O  O194  1  0.36862355  0.25688797  -0.01221756  1
  O  O195  1  0.36845905  0.26539716  0.49554388  1
  O  O196  1  0.37269898  0.76360378  -0.00143648  1
  O  O197  1  0.36340403  0.74902409  0.49155918  1
  O  O198  1  0.93304633  0.25889345  0.03126581  1
  O  O199  1  0.87576568  0.25924643  0.50506731  1
  O  O200  1  0.86460031  0.75622975  -0.00090304  1
  O  O201  1  0.87709998  0.75925766  0.51602474  1
  O  O202  1  0.11028467  0.22500210  0.48417932  1
  O  O203  1  0.12614064  0.25851006  0.98322305  1
  O  O204  1  0.11788849  0.73746565  0.50580897  1
  O  O205  1  0.13703533  0.73641187  1.00353873  1
  O  O206  1  0.63734441  0.26106098  0.48898446  1
  O  O207  1  0.62417285  0.24989648  0.98113261  1
  O  O208  1  0.61970199  0.74870504  0.48488097  1
  O  O209  1  0.64277734  0.75943121  0.99825204  1
  O  O210  1  0.48206475  0.23914103  0.12583472  1
  O  O211  1  0.51258339  0.25220834  0.63817875  1
  O  O212  1  0.49380176  0.74852186  0.12645062  1
  O  O213  1  0.49007343  0.77358282  0.63012877  1
  O  O214  1  0.98601675  0.24855367  0.08612370  1
  O  O215  1  0.99694532  0.25755819  0.63578175  1
  O  O216  1  1.00756161  0.73241623  0.11420403  1
  O  O217  1  0.97869844  0.76002334  0.64080753  1
  O  O218  1  0.02185708  0.21822831  0.35481579  1
  O  O219  1  0.01573269  0.26439185  0.86295426  1
  O  O220  1  -0.01100762  0.77046546  0.37392833  1
  O  O221  1  -0.00184312  0.75351676  0.86212365  1
  O  O222  1  0.51328973  0.26109090  0.38573885  1
  O  O223  1  0.51213874  0.25703542  0.86706632  1
  O  O224  1  0.49613380  0.76267816  0.36238638  1
  O  O225  1  0.52584785  0.77349016  0.89829640  1
  O  O226  1  0.22775493  0.11542922  0.50471981  1
  O  O227  1  0.24721582  0.11734546  0.98086630  1
  O  O228  1  0.23845996  0.64067367  0.50545801  1
  O  O229  1  0.24137717  0.63133885  0.99496746  1
  O  O230  1  0.75796621  0.14007848  0.49063345  1
  O  O231  1  0.78610106  0.13570968  0.99484002  1
  O  O232  1  0.74799375  0.58177481  0.45608400  1
  O  O233  1  0.74057151  0.64144279  1.01036603  1
  O  O234  1  0.25712986  0.37174816  -0.00681767  1
  O  O235  1  0.26979372  0.39411656  0.48983973  1
  O  O236  1  0.26167985  0.87116462  -0.00553531  1
  O  O237  1  0.24063492  0.85811475  0.51144947  1
  O  O238  1  0.76734704  0.36054950  0.00782059  1
  O  O239  1  0.76292402  0.36741360  0.50767532  1
  O  O240  1  0.76811707  0.87095565  0.00558509  1
  O  O241  1  0.75190847  0.87800469  0.51392175  1
  O  O242  1  0.12567930  0.51382376  0.23048765  1
  O  O243  1  0.13299692  0.49562225  0.74453475  1
  O  O244  1  0.12914951  0.99302295  0.23581006  1
  O  O245  1  0.12934977  1.00025559  0.74043503  1
  O  O246  1  0.63003424  0.48606708  0.25858840  1
  O  O247  1  0.64006004  0.50225012  0.73547180  1
  O  O248  1  0.62510881  0.98657675  0.25831666  1
  O  O249  1  0.63709504  0.99576073  0.74136454  1
  O  O250  1  0.36154381  -0.00328016  0.25378581  1
  O  O251  1  0.35406916  -0.00537924  0.75833958  1
  O  O252  1  0.36649978  0.47699374  0.22982107  1
  O  O253  1  0.36540974  0.50016177  0.75773371  1
  O  O254  1  0.84374806  -0.00937733  0.21728949  1
  O  O255  1  0.86316703  0.01182251  0.74356127  1
  O  O256  1  0.86818190  0.51839857  0.24453668  1
  O  O257  1  0.86303178  0.51658567  0.74016648  1
  O  O258  1  0.09627014  0.35731647  0.39216941  1
  O  O259  1  0.12328790  0.36914862  0.86233066  1
  O  O260  1  0.12109673  0.87717890  0.36540551  1
  O  O261  1  0.10570119  0.86341292  0.88311586  1
  O  O262  1  0.62057130  0.36716288  0.36753445  1
  O  O263  1  0.61111924  0.38110681  0.88118548  1
  O  O264  1  0.61210197  0.86415261  0.36551430  1
  O  O265  1  0.62732358  0.87790877  0.87387311  1
  O  O266  1  0.38150808  0.13905596  0.12845191  1
  O  O267  1  0.37400293  0.11991919  0.62413971  1
  O  O268  1  0.39295563  0.64099590  0.10743087  1
  O  O269  1  0.38359003  0.63140306  0.63015172  1
  O  O270  1  0.85808755  0.13608376  0.14299152  1
  O  O271  1  0.87733797  0.13967043  0.62995675  1
  O  O272  1  0.88897784  0.62483666  0.10941132  1
  O  O273  1  0.85891281  0.64000650  0.62204981  1
  O  O274  1  0.26026293  0.23894131  0.11922265  1
  O  O275  1  0.21200167  0.25786975  0.60331003  1
  O  O276  1  0.26967627  0.74320360  0.10792930  1
  O  O277  1  0.24947277  0.76113594  0.62550221  1
  O  O278  1  0.73945649  0.27109325  0.12728856  1
  O  O279  1  0.75810756  0.25411205  0.61924121  1
  O  O280  1  0.75030552  0.75556737  0.11993386  1
  O  O281  1  0.75696436  0.76670707  0.63299659  1
  O  O282  1  0.22397822  0.24798929  0.38247629  1
  O  O283  1  0.23873241  0.23871870  0.86420310  1
  O  O284  1  0.25247805  0.75885975  0.38472447  1
  O  O285  1  0.24734689  0.75761438  0.88317814  1
  O  O286  1  0.74155020  0.24800965  0.38197124  1
  O  O287  1  0.73404275  0.25531383  0.87008868  1
  O  O288  1  0.73430309  0.74564088  0.37557470  1
  O  O289  1  0.74305832  0.75958063  0.88935057  1
  O  O290  1  -0.00703938  0.10484863  -0.00895314  1
  O  O291  1  0.00992051  0.11344258  0.50336024  1
  O  O292  1  0.01036636  0.61593799  -0.00198720  1
  O  O293  1  0.00902438  0.61239259  0.50148996  1
  O  O294  1  0.49739835  0.11231520  -0.00576654  1
  O  O295  1  0.49763944  0.10790624  0.50098430  1
  O  O296  1  0.52088034  0.63086050  0.00990719  1
  O  O297  1  0.49594206  0.60943316  0.49676440  1
  O  O298  1  0.48507434  0.37892308  0.49310719  1
  O  O299  1  0.48932376  0.36776788  0.98543922  1
  O  O300  1  0.50419906  0.88375497  0.48283903  1
  O  O301  1  0.49597997  0.89700439  0.99838261  1
  O  O302  1  0.99002483  0.38420544  0.50240553  1
  O  O303  1  1.01357706  0.39163433  0.98665450  1
  O  O304  1  0.98884289  0.87477606  0.48962728  1
  O  O305  1  0.99262185  0.87507254  0.99103326  1
  O  O306  1  0.50668005  0.48649115  0.39162817  1
  O  O307  1  0.48721328  0.48372358  0.86541864  1
  O  O308  1  0.49116724  0.99308042  0.37883204  1
  O  O309  1  0.50474813  0.99675856  0.88825592  1
  O  O310  1  1.00585133  0.50192997  0.38797935  1
  O  O311  1  1.00494899  0.49062219  0.88014408  1
  O  O312  1  0.97838391  0.96573621  0.36070391  1
  O  O313  1  1.00884705  0.98666919  0.88547499  1
  O  O314  1  0.01256209  -0.00429670  0.11524661  1
  O  O315  1  0.00803688  -0.01031836  0.63514969  1
  O  O316  1  0.01057660  0.50687281  0.10639213  1
  O  O317  1  0.01401121  0.49911549  0.62327885  1
  O  O318  1  0.49398653  0.01858082  0.11422251  1
  O  O319  1  0.51410217  -0.01743928  0.61632480  1
  O  O320  1  0.49431584  0.51633683  0.12646545  1
  O  O321  1  0.51529526  0.49527935  0.62019803  1
  O  O322  1  0.21038604  0.41069796  0.30850783  1
  O  O323  1  0.24041992  0.37933070  0.75225740  1
  O  O324  1  0.23693698  0.88990231  0.25211425  1
  O  O325  1  0.24388207  0.88145372  0.74358554  1
  O  O326  1  0.73844030  0.37822672  0.23916144  1
  O  O327  1  0.76486502  0.38987465  0.73765428  1
  O  O328  1  0.73503386  0.86777153  0.25744335  1
  O  O329  1  0.75102818  0.89093663  0.74357387  1
  O  O330  1  0.23832406  0.10834429  0.25668501  1
  O  O331  1  0.24732491  0.11044348  0.75316046  1
  O  O332  1  0.26744626  0.61401036  0.28935738  1
  O  O333  1  0.24762372  0.61821162  0.75331023  1
  O  O334  1  0.75861406  0.13094232  0.26543147  1
  O  O335  1  0.75704799  0.11566637  0.74166621  1
  O  O336  1  0.75837537  0.62058991  0.24936571  1
  O  O337  1  0.75202087  0.61440963  0.75053626  1
  O  O338  1  0.37937504  0.11176781  0.37331406  1
  O  O339  1  0.35674739  0.12335511  0.86715020  1
  O  O340  1  0.39997910  0.52394270  0.27617774  1
  O  O341  1  0.38724764  0.60343151  0.89164455  1
  O  O342  1  0.86201825  0.12647086  0.36984458  1
  O  O343  1  0.88204737  0.14075978  0.85720087  1
  O  O344  1  0.88093443  0.62457097  0.37063049  1
  O  O345  1  0.86597634  0.62657223  0.86637905  1
  O  O346  1  0.13383100  0.39227783  0.13733807  1
  O  O347  1  0.12189404  0.38873937  0.63964514  1
  O  O348  1  0.12733716  0.87586872  0.13295443  1
  O  O349  1  0.13117166  0.88228241  0.62466008  1
  O  O350  1  0.59409168  0.37041345  0.14523179  1
  O  O351  1  0.64019821  0.37636787  0.62261155  1
  O  O352  1  0.62190066  0.87636148  0.14023996  1
  O  O353  1  0.63734368  0.87969233  0.63541289  1
  O  O354  1  0.13405192  0.27592088  0.25424867  1
  O  O355  1  0.11909044  0.26510087  0.74944363  1
  O  O356  1  0.14400760  0.75911041  0.24558777  1
  O  O357  1  0.10266718  0.73533141  0.74223009  1
  O  O358  1  0.62882819  0.26387340  0.26660137  1
  O  O359  1  0.61389495  0.24623200  0.76257085  1
  O  O360  1  0.61411592  0.75948074  0.25622695  1
  O  O361  1  0.64218897  0.76811292  0.77124138  1
  O  O362  1  0.35585797  0.26713199  0.24129594  1
  O  O363  1  0.39178425  0.24856392  0.75397681  1
  O  O364  1  0.38074867  0.75883809  0.22835172  1
  O  O365  1  0.39984220  0.74724192  0.79514737  1
  O  O366  1  0.88619460  0.24561456  0.25692724  1
  O  O367  1  0.88197448  0.24918247  0.74049969  1
  O  O368  1  0.87126914  0.72911743  0.24859793  1
  O  O369  1  0.87165265  0.73767988  0.74466769  1
  O  O370  1  0.38904128  0.49246688  0.51082002  1
  O  O371  1  0.36876220  0.48271784  0.98744893  1
  O  O372  1  0.37904114  0.99614548  0.48363991  1
  O  O373  1  0.36815551  0.99283617  1.00140280  1
  O  O374  1  0.88978397  0.48999067  0.50745065  1
  O  O375  1  0.89012944  0.50407596  0.99563191  1
  O  O376  1  0.87303742  0.98840039  0.50964169  1
  O  O377  1  0.89010978  0.98422068  1.01181274  1
  O  O378  1  0.11578466  -0.00444895  0.01431541  1
  O  O379  1  0.12667533  -0.00501460  0.51516268  1
  O  O380  1  0.12837400  0.51249722  0.00270410  1
  O  O381  1  0.11872691  0.49860789  0.50750977  1
  O  O382  1  0.62323505  0.00498206  0.00737800  1
  O  O383  1  0.61942117  -0.00683999  0.51065115  1
  O  O384  1  0.63812355  0.51630358  -0.00744302  1
  O  O385  1  0.61221476  0.48903069  0.51224646  1
  O  O386  1  0.37997448  0.35699332  0.10592478  1
  O  O387  1  0.37422356  0.37562597  0.61807731  1
  O  O388  1  0.38521819  0.86641797  0.10819859  1
  O  O389  1  0.35271263  0.88524111  0.62372848  1
  O  O390  1  0.87706370  0.37316483  0.13499982  1
  O  O391  1  0.86946806  0.36611160  0.61876078  1
  O  O392  1  0.89340438  0.86297852  0.11454419  1
  O  O393  1  0.86301640  0.87103131  0.61827387  1
  O  O394  1  0.12038605  0.09191494  0.38711710  1
  O  O395  1  0.12934995  0.14107724  0.86893730  1
  O  O396  1  0.12341131  0.62093488  0.39130088  1
  O  O397  1  0.11985497  0.62863701  0.88308114  1
  O  O398  1  0.63347649  0.14123516  0.37051493  1
  O  O399  1  0.62975735  0.12922907  0.87311969  1
  O  O400  1  0.61239374  0.64094112  0.36571129  1
  O  O401  1  0.62544414  0.64459054  0.89217383  1
