# generated using pymatgen
data_V73Zn73O256
_symmetry_space_group_name_H-M   'P 1'
_cell_length_a   16.85790556
_cell_length_b   16.85899538
_cell_length_c   16.85770783
_cell_angle_alpha   89.86243196
_cell_angle_beta   89.91208443
_cell_angle_gamma   90.04343800
_symmetry_Int_Tables_number   1
_chemical_formula_structural   V73Zn73O256
_chemical_formula_sum   'V73 Zn73 O256'
_cell_volume   4791.06366292
_cell_formula_units_Z   1
loop_
 _symmetry_equiv_pos_site_id
 _symmetry_equiv_pos_as_xyz
  1  'x, y, z'
loop_
 _atom_site_type_symbol
 _atom_site_label
 _atom_site_symmetry_multiplicity
 _atom_site_fract_x
 _atom_site_fract_y
 _atom_site_fract_z
 _atom_site_occupancy
  V  V0  1  0.21806397  0.49258353  0.70762608  1
  V  V1  1  0.51168634  0.50348718  0.00299452  1
  V  V2  1  0.00796717  0.36439583  0.37863341  1
  V  V3  1  0.50520994  0.25714329  0.24958086  1
  V  V4  1  0.51128355  0.63192124  0.13256135  1
  V  V5  1  0.50042080  -0.03697084  -0.00387387  1
  V  V6  1  0.36710684  -0.02254697  0.87392073  1
  V  V7  1  0.25044354  0.23920412  0.48537348  1
  V  V8  1  0.00719750  0.62040417  0.12001436  1
  V  V9  1  0.36767589  0.37856912  0.50605699  1
  V  V10  1  0.62838504  0.89801496  0.23670000  1
  V  V11  1  0.01216218  0.49687024  -0.00032473  1
  V  V12  1  0.61411152  0.75490724  0.35987757  1
  V  V13  1  0.25833668  0.14048082  0.86721671  1
  V  V14  1  0.60087780  0.49845188  0.61962916  1
  V  V15  1  0.25075987  0.88074808  0.63508324  1
  V  V16  1  0.87953188  -0.00555423  0.36985417  1
  V  V17  1  0.77102423  0.36521676  0.11825891  1
  V  V18  1  0.25080263  0.00149568  0.26627201  1
  V  V19  1  0.52032473  0.12056384  0.61660996  1
  V  V20  1  0.75185776  0.74482482  -0.02302815  1
  V  V21  1  -0.01090512  0.01391331  0.00554713  1
  V  V22  1  0.86268258  0.50041908  0.88020946  1
  V  V23  1  0.37554620  0.49849156  0.36875047  1
  V  V24  1  0.48799900  0.64865023  0.62377053  1
  V  V25  1  0.62613305  0.37506403  0.75232723  1
  V  V26  1  0.50705347  0.37895221  0.38161634  1
  V  V27  1  0.37365473  0.37043378  0.00419733  1
  V  V28  1  0.48577638  -0.01423305  0.49675554  1
  V  V29  1  0.00195231  0.24645699  0.22665721  1
  V  V30  1  0.75294859  0.62813313  0.37099297  1
  V  V31  1  0.24628255  0.39743293  0.12506128  1
  V  V32  1  0.13133707  0.38664525  0.25436221  1
  V  V33  1  0.26072377  0.75956046  0.50493748  1
  V  V34  1  0.74403362  0.24446774  0.50323990  1
  V  V35  1  0.36146778  0.24474812  0.12606935  1
  V  V36  1  0.25091379  0.62141303  0.37104617  1
  V  V37  1  -0.00508684  0.63685603  0.63040434  1
  V  V38  1  0.13550759  0.14028395  0.00758713  1
  V  V39  1  0.00478515  0.50091252  0.50864901  1
  V  V40  1  -0.00554580  -0.01943927  0.50032328  1
  V  V41  1  0.51331130  0.11237410  0.12303096  1
  V  V42  1  0.01493319  0.76123502  0.76197173  1
  V  V43  1  0.37102232  0.50986976  0.87835272  1
  V  V44  1  -0.01067220  0.74590643  0.25474722  1
  V  V45  1  0.73641656  0.21467425  -0.03124976  1
  V  V46  1  0.24258067  0.74891610  0.00773373  1
  V  V47  1  0.37209507  0.24275815  0.63269114  1
  V  V48  1  0.60552852  0.74309519  0.87069484  1
  V  V49  1  0.61877565  0.86500276  0.74097449  1
  V  V50  1  0.50413835  0.36563515  0.87379097  1
  V  V51  1  0.00357492  0.37326335  0.86228658  1
  V  V52  1  0.11322248  0.13113775  0.48959221  1
  V  V53  1  0.13483978  0.00311294  0.11980696  1
  V  V54  1  0.12106949  0.00125129  0.63342222  1
  V  V55  1  0.86528327  0.62711844  0.75543161  1
  V  V56  1  0.74759718  0.12090274  0.36996314  1
  V  V57  1  0.87777526  0.50198885  0.37226520  1
  V  V58  1  0.87356921  0.74959577  0.11025422  1
  V  V59  1  0.75700451  0.75578250  0.50525852  1
  V  V60  1  0.87782398  0.37469753  0.50475506  1
  V  V61  1  0.75088439  0.38885760  0.63095893  1
  V  V62  1  0.89271730  0.12385378  0.75947386  1
  V  V63  1  0.12259385  0.87774009  0.24985840  1
  V  V64  1  0.75015465  0.48975986  0.25319190  1
  V  V65  1  0.36597809  0.12371233  0.26488863  1
  V  V66  1  0.00216794  0.88593188  0.88724277  1
  V  V67  1  0.62876490  0.48413229  0.13279465  1
  V  V68  1  0.38182889  0.64000253  0.24925946  1
  V  V69  1  0.12441526  0.62451326  0.50422288  1
  V  V70  1  0.74392070  0.00473588  0.74912202  1
  V  V71  1  0.12130167  0.75705857  0.37539575  1
  V  V72  1  0.88393950  0.24539358  0.63625365  1
  Zn  Zn73  1  0.38185356  0.11597585  0.74990506  1
  Zn  Zn74  1  0.61871533  0.62406200  0.49610548  1
  Zn  Zn75  1  0.75868106  0.88051696  0.61923618  1
  Zn  Zn76  1  0.75755762  0.87444593  0.12040465  1
  Zn  Zn77  1  0.88081518  0.13088019  0.25153715  1
  Zn  Zn78  1  0.62604095  0.25081550  0.37646609  1
  Zn  Zn79  1  0.36383117  0.62660505  0.73751242  1
  Zn  Zn80  1  0.56013973  0.19629929  0.79762323  1
  Zn  Zn81  1  0.12391099  0.25817099  0.87754355  1
  Zn  Zn82  1  0.18138238  0.19038630  0.19849088  1
  Zn  Zn83  1  0.19810684  0.17661355  0.67210576  1
  Zn  Zn84  1  0.18368812  0.67962827  0.19569974  1
  Zn  Zn85  1  0.19093082  0.68195257  0.68646953  1
  Zn  Zn86  1  0.68952719  0.18915632  0.18387440  1
  Zn  Zn87  1  0.69783347  0.18993059  0.68914152  1
  Zn  Zn88  1  0.69584258  0.67608363  0.18540282  1
  Zn  Zn89  1  0.67901186  0.68233736  0.68769107  1
  Zn  Zn90  1  0.31327160  0.31548693  0.31184963  1
  Zn  Zn91  1  0.30716380  0.32529547  0.81030235  1
  Zn  Zn92  1  0.30735549  0.81802182  0.32769043  1
  Zn  Zn93  1  0.27629082  0.81030217  0.80768319  1
  Zn  Zn94  1  0.81949295  0.30954895  0.31251329  1
  Zn  Zn95  1  0.81317742  0.31651083  0.81899664  1
  Zn  Zn96  1  0.80380033  0.82005877  0.30753823  1
  Zn  Zn97  1  0.82668060  0.82084500  0.79896446  1
  Zn  Zn98  1  0.18996805  0.43710663  0.44238716  1
  Zn  Zn99  1  0.18643316  0.43822781  0.93575370  1
  Zn  Zn100  1  0.18151602  0.94115037  0.44396545  1
  Zn  Zn101  1  0.17509930  0.95888263  0.91470932  1
  Zn  Zn102  1  0.68885007  0.43819512  0.44344495  1
  Zn  Zn103  1  0.68970361  0.42809710  0.94264001  1
  Zn  Zn104  1  0.68139336  0.93525577  0.43297806  1
  Zn  Zn105  1  0.69160791  0.92029126  0.93104339  1
  Zn  Zn106  1  0.31809259  0.05898630  0.05775616  1
  Zn  Zn107  1  0.31069905  0.06039919  0.55738526  1
  Zn  Zn108  1  0.32653523  0.56494029  0.06276302  1
  Zn  Zn109  1  0.31138908  0.56222667  0.55894800  1
  Zn  Zn110  1  0.81376746  0.05660523  -0.07893048  1
  Zn  Zn111  1  0.81667206  0.06127073  0.56615870  1
  Zn  Zn112  1  0.81712532  0.56710170  0.06384762  1
  Zn  Zn113  1  0.81295124  0.57114493  0.56024444  1
  Zn  Zn114  1  0.43635015  0.43684903  0.19055877  1
  Zn  Zn115  1  0.42501246  0.43303504  0.69645457  1
  Zn  Zn116  1  0.42317234  0.89238795  0.22945174  1
  Zn  Zn117  1  0.43790237  0.93972205  0.68172120  1
  Zn  Zn118  1  0.94380320  0.43831449  0.19067049  1
  Zn  Zn119  1  0.93631319  0.44361752  0.69284407  1
  Zn  Zn120  1  0.93997514  0.93794263  0.18605306  1
  Zn  Zn121  1  0.93502024  0.93812776  0.68817404  1
  Zn  Zn122  1  0.05942643  0.06609416  0.31293431  1
  Zn  Zn123  1  0.06597595  0.07039203  0.81993870  1
  Zn  Zn124  1  0.05973682  0.56480647  0.31425989  1
  Zn  Zn125  1  0.06977621  0.55771573  0.81213872  1
  Zn  Zn126  1  0.56043610  0.06793753  0.31512325  1
  Zn  Zn127  1  0.55103620  0.02571044  0.81462946  1
  Zn  Zn128  1  0.56680624  0.55981987  0.31207626  1
  Zn  Zn129  1  0.55663714  0.56284014  0.80260765  1
  Zn  Zn130  1  0.44086103  0.18846677  0.44318091  1
  Zn  Zn131  1  0.46413739  0.15311844  0.92905140  1
  Zn  Zn132  1  0.44168509  0.68764083  0.44142802  1
  Zn  Zn133  1  0.40746065  0.71861894  0.88246779  1
  Zn  Zn134  1  0.93139852  0.18413492  0.44141511  1
  Zn  Zn135  1  0.93301128  0.19840199  0.95203315  1
  Zn  Zn136  1  0.93586262  0.69072413  0.43909758  1
  Zn  Zn137  1  0.94647613  0.68465930  0.93182158  1
  Zn  Zn138  1  0.06438371  0.32402726  0.06255103  1
  Zn  Zn139  1  0.06742514  0.30697898  0.56825523  1
  Zn  Zn140  1  0.05152280  0.82494212  0.07197578  1
  Zn  Zn141  1  0.06435206  0.81333090  0.56579582  1
  Zn  Zn142  1  0.56556838  0.30274013  0.05953847  1
  Zn  Zn143  1  0.55759686  0.30985402  0.56862284  1
  Zn  Zn144  1  0.57974713  0.81052184  0.06281993  1
  Zn  Zn145  1  0.57314684  0.81506185  0.55204095  1
  O  O146  1  0.13041444  0.12000490  0.11559366  1
  O  O147  1  0.13308858  0.10833551  0.60786605  1
  O  O148  1  0.10807162  0.62508855  0.13306642  1
  O  O149  1  0.11219340  0.62970011  0.61024659  1
  O  O150  1  0.61182986  0.11896496  0.14187851  1
  O  O151  1  0.61944193  0.13291751  0.62218597  1
  O  O152  1  0.61582297  0.60559223  0.13593203  1
  O  O153  1  0.60884245  0.60876355  0.62830374  1
  O  O154  1  0.37993252  0.38129864  0.38276910  1
  O  O155  1  0.38627393  0.38325042  0.88594673  1
  O  O156  1  0.39239783  0.88540824  0.33643910  1
  O  O157  1  0.34033736  0.88153034  0.87510731  1
  O  O158  1  0.88574247  0.38099911  0.38858186  1
  O  O159  1  0.88641617  0.39202119  0.86975947  1
  O  O160  1  0.86578082  0.89568716  0.37043441  1
  O  O161  1  0.90262710  0.88157967  0.86179572  1
  O  O162  1  0.24071348  0.00401149  0.36482476  1
  O  O163  1  0.26315190  0.02135860  0.88438840  1
  O  O164  1  0.25857810  0.51451357  0.38451165  1
  O  O165  1  0.27083961  0.49898326  0.89128518  1
  O  O166  1  0.76194369  0.01543189  0.38548690  1
  O  O167  1  0.75863181  -0.01771642  0.85573174  1
  O  O168  1  0.75734360  0.50268385  0.37351176  1
  O  O169  1  0.76300617  0.49441858  0.88113566  1
  O  O170  1  0.25617042  0.49612394  0.12758690  1
  O  O171  1  0.23320928  0.49134494  0.60562401  1
  O  O172  1  0.23815025  1.00691121  0.13090949  1
  O  O173  1  0.23546798  0.99026646  0.61444458  1
  O  O174  1  0.74871553  0.49502116  0.13452881  1
  O  O175  1  0.74984020  0.49079287  0.61942981  1
  O  O176  1  0.76115476  1.03118602  0.11895099  1
  O  O177  1  0.75701878  0.99922645  0.63959842  1
  O  O178  1  0.01013110  0.36812450  0.25828285  1
  O  O179  1  -0.00143682  0.37622311  0.76210593  1
  O  O180  1  0.01246844  0.86033837  0.24496001  1
  O  O181  1  0.00718435  0.86264665  0.74898838  1
  O  O182  1  0.48953035  0.36404973  0.26673427  1
  O  O183  1  0.50256765  0.37847594  0.76804327  1
  O  O184  1  0.53096922  0.86646775  0.23507373  1
  O  O185  1  0.51930836  0.88201496  0.73876709  1
  O  O186  1  0.48567100  0.13404723  0.24196403  1
  O  O187  1  0.49904633  0.11985185  0.72808507  1
  O  O188  1  0.49207350  0.61940090  0.24475268  1
  O  O189  1  0.49024099  0.62329594  0.72865152  1
  O  O190  1  1.00548997  0.14201149  0.24482267  1
  O  O191  1  0.99228017  0.12940232  0.75257129  1
  O  O192  1  1.00253653  0.63886884  0.24307396  1
  O  O193  1  1.00334852  0.62724203  0.73572506  1
  O  O194  1  0.37879483  0.26324923  0.01991239  1
  O  O195  1  0.36468197  0.25626286  0.50198899  1
  O  O196  1  0.34626855  0.74921086  -0.00753850  1
  O  O197  1  0.35883102  0.74969378  0.49273070  1
  O  O198  1  0.83568072  0.22219516  0.00339074  1
  O  O199  1  0.86992298  0.26077177  0.51188746  1
  O  O200  1  0.87606319  0.74943695  0.00614118  1
  O  O201  1  0.85812844  0.74860530  0.49381238  1
  O  O202  1  0.13927035  0.24224069  0.50808322  1
  O  O203  1  0.12375828  0.24192280  1.00521959  1
  O  O204  1  0.12531406  0.74215816  0.49068575  1
  O  O205  1  0.13884526  0.75037346  1.02155087  1
  O  O206  1  0.64204257  0.25879946  0.50227211  1
  O  O207  1  0.65157145  0.24428474  1.02170293  1
  O  O208  1  0.63692862  0.74703851  0.47687094  1
  O  O209  1  0.63920083  0.75244865  0.97823975  1
  O  O210  1  0.48702241  0.26330067  0.14379444  1
  O  O211  1  0.48441768  0.23521696  0.61562404  1
  O  O212  1  0.51739332  0.72901442  0.12097173  1
  O  O213  1  0.50265321  0.74668401  0.62144920  1
  O  O214  1  0.99713412  0.25575325  0.12727521  1
  O  O215  1  0.98215158  0.25912619  0.62725106  1
  O  O216  1  0.99360574  0.74391967  0.13349624  1
  O  O217  1  0.99940761  0.74034757  0.62987314  1
  O  O218  1  -0.00116572  0.26470559  0.38498263  1
  O  O219  1  -0.00192775  0.27012609  0.88747772  1
  O  O220  1  0.00868082  0.74143714  0.36382488  1
  O  O221  1  0.00666043  0.76371756  0.87014939  1
  O  O222  1  0.49967666  0.25721565  0.36641693  1
  O  O223  1  0.49544175  0.26587494  0.88021428  1
  O  O224  1  0.51511041  0.74158040  0.37154676  1
  O  O225  1  0.50845025  0.76000242  0.88515281  1
  O  O226  1  0.24451600  0.13474859  0.49443774  1
  O  O227  1  0.24062013  0.12964051  0.99404927  1
  O  O228  1  0.24162354  0.63707848  0.49337389  1
  O  O229  1  0.24769542  0.64336858  1.01072932  1
  O  O230  1  0.75828522  0.14120453  0.49718397  1
  O  O231  1  0.72357308  0.11375297  0.96083920  1
  O  O232  1  0.74515486  0.62830817  0.48646913  1
  O  O233  1  0.75529374  0.64561841  1.00466675  1
  O  O234  1  0.25805007  0.38145482  0.01678494  1
  O  O235  1  0.26157761  0.36422305  0.49638239  1
  O  O236  1  0.24487630  0.85277747  0.01010147  1
  O  O237  1  0.24589351  0.86247604  0.49773338  1
  O  O238  1  0.75439537  0.37355032  0.01772809  1
  O  O239  1  0.76213938  0.36924803  0.50725553  1
  O  O240  1  0.75320697  0.85361656  0.00510270  1
  O  O241  1  0.74350525  0.86130335  0.50021559  1
  O  O242  1  0.11628315  0.48629217  0.25019729  1
  O  O243  1  0.11942134  0.49319775  0.73291501  1
  O  O244  1  0.13012043  1.00111663  0.24251341  1
  O  O245  1  0.11467124  1.00883610  0.73265664  1
  O  O246  1  0.63794432  0.49571970  0.24662355  1
  O  O247  1  0.61740791  0.48623602  0.73449400  1
  O  O248  1  0.62603450  0.99729130  0.25290411  1
  O  O249  1  0.63773678  0.98477107  0.75155571  1
  O  O250  1  0.35903947  0.01530576  0.24807732  1
  O  O251  1  0.38238861  -0.00045297  0.77049118  1
  O  O252  1  0.37514483  0.50381761  0.26473162  1
  O  O253  1  0.38701922  0.50954060  0.77377379  1
  O  O254  1  0.89142509  0.01117105  0.26340220  1
  O  O255  1  0.87431182  0.02026549  0.74536439  1
  O  O256  1  0.87295180  0.49439256  0.26709674  1
  O  O257  1  0.87996909  0.51529893  0.76256121  1
  O  O258  1  0.12191394  0.37994850  0.36535039  1
  O  O259  1  0.11232475  0.37523853  0.87683303  1
  O  O260  1  0.12649562  0.86419768  0.36889697  1
  O  O261  1  0.10932099  0.88216172  0.87115763  1
  O  O262  1  0.61093998  0.37374476  0.38355791  1
  O  O263  1  0.61235894  0.38187766  0.86898523  1
  O  O264  1  0.63662465  0.86002218  0.35410881  1
  O  O265  1  0.63391004  0.85567426  0.85345588  1
  O  O266  1  0.37685188  0.13795539  0.13165181  1
  O  O267  1  0.36988075  0.13365796  0.63055163  1
  O  O268  1  0.38986656  0.61978822  0.14233726  1
  O  O269  1  0.38230918  0.62797129  0.61823817  1
  O  O270  1  0.80762158  0.08822626  0.12059267  1
  O  O271  1  0.87247939  0.14125797  0.63354925  1
  O  O272  1  0.88912736  0.64069767  0.12756412  1
  O  O273  1  0.88835478  0.61957954  0.63501176  1
  O  O274  1  0.26052806  0.25383398  0.13317919  1
  O  O275  1  0.26626833  0.24820915  0.60936138  1
  O  O276  1  0.25372175  0.74664176  0.11268725  1
  O  O277  1  0.24004305  0.76163057  0.61174459  1
  O  O278  1  0.75894481  0.26808902  0.14593087  1
  O  O279  1  0.75914949  0.26135693  0.61528107  1
  O  O280  1  0.76897086  0.74303744  0.12698290  1
  O  O281  1  0.74078718  0.73529200  0.60365202  1
  O  O282  1  0.25193925  0.25246342  0.38567745  1
  O  O283  1  0.24443432  0.24788210  0.87028899  1
  O  O284  1  0.24079152  0.74318493  0.38404953  1
  O  O285  1  0.22503471  0.74786203  0.90515641  1
  O  O286  1  0.75435559  0.24823924  0.38996467  1
  O  O287  1  0.73425435  0.25905919  0.87500653  1
  O  O288  1  0.75269466  0.73515177  0.37469937  1
  O  O289  1  0.76516090  0.75008684  0.87733897  1
  O  O290  1  0.01745474  0.11898454  -0.00651543  1
  O  O291  1  0.01214912  0.13557864  0.50625342  1
  O  O292  1  0.00145212  0.62064035  0.01254848  1
  O  O293  1  0.00308928  0.62144927  0.50774012  1
  O  O294  1  0.50230674  0.15873594  0.03402905  1
  O  O295  1  0.49868483  0.12057191  0.51138643  1
  O  O296  1  0.49733753  0.60400444  0.02271266  1
  O  O297  1  0.50290948  0.62605021  0.51596924  1
  O  O298  1  0.48546232  0.36260755  0.48628055  1
  O  O299  1  0.49687295  0.37841764  0.99540981  1
  O  O300  1  0.49436359  0.88550287  0.51130523  1
  O  O301  1  0.48861023  0.86714437  1.01907735  1
  O  O302  1  1.00105247  0.38168751  0.50029246  1
  O  O303  1  0.99759338  0.39307000  1.00023187  1
  O  O304  1  0.99934212  0.88148278  0.49502221  1
  O  O305  1  1.00057227  0.89207870  0.99526616  1
  O  O306  1  0.49441166  0.48594681  0.37316803  1
  O  O307  1  0.49934991  0.49383344  0.89289898  1
  O  O308  1  0.50773813  1.00354347  0.39158185  1
  O  O309  1  0.47939848  0.96452559  0.88522376  1
  O  O310  1  0.99385900  0.49436050  0.38563550  1
  O  O311  1  0.99938855  0.49146036  0.88453882  1
  O  O312  1  0.99038549  1.00498215  0.38717991  1
  O  O313  1  1.00960296  0.99822857  0.89230680  1
  O  O314  1  0.01005013  0.00166105  0.11269980  1
  O  O315  1  0.00811781  -0.00532536  0.61009945  1
  O  O316  1  -0.00827600  0.51219787  0.11514714  1
  O  O317  1  -0.00279640  0.50734571  0.61273297  1
  O  O318  1  0.49482488  0.01399389  0.10116147  1
  O  O319  1  0.49863317  0.01270409  0.61199855  1
  O  O320  1  0.51044949  0.49090172  0.12142723  1
  O  O321  1  0.50148935  0.48820193  0.62160170  1
  O  O322  1  0.23938428  0.37566756  0.24337181  1
  O  O323  1  0.26430232  0.40924171  0.74705436  1
  O  O324  1  0.23619404  0.89095678  0.25547958  1
  O  O325  1  0.22865947  0.87498456  0.73300795  1
  O  O326  1  0.75773317  0.38546631  0.24954344  1
  O  O327  1  0.74089904  0.37353595  0.73985450  1
  O  O328  1  0.74083497  0.87932215  0.23778319  1
  O  O329  1  0.74873871  0.88204139  0.74146966  1
  O  O330  1  0.25630732  0.11941335  0.25147770  1
  O  O331  1  0.24945929  0.12867256  0.76474575  1
  O  O332  1  0.26376413  0.63047768  0.26155768  1
  O  O333  1  0.24890830  0.59342092  0.73125133  1
  O  O334  1  0.75916612  0.13795885  0.26682550  1
  O  O335  1  0.74994793  0.11059237  0.75289658  1
  O  O336  1  0.75536778  0.60909505  0.26501407  1
  O  O337  1  0.76705391  0.63315475  0.74459638  1
  O  O338  1  0.37729625  0.13122139  0.36238533  1
  O  O339  1  0.36507110  0.13960700  0.87177420  1
  O  O340  1  0.37252789  0.61930781  0.36847353  1
  O  O341  1  0.38715415  0.60732629  0.90009580  1
  O  O342  1  0.86627039  0.11960453  0.37605099  1
  O  O343  1  0.88132652  0.13272973  0.86262026  1
  O  O344  1  0.86511117  0.61187746  0.38500884  1
  O  O345  1  0.88279383  0.61495163  0.86418487  1
  O  O346  1  0.13973209  0.37857981  0.13422644  1
  O  O347  1  0.12689124  0.32960939  0.67454959  1
  O  O348  1  0.12298330  0.89365728  0.13441498  1
  O  O349  1  0.13090816  0.89237322  0.61203937  1
  O  O350  1  0.63653243  0.38195267  0.12751337  1
  O  O351  1  0.62903103  0.38382471  0.62847667  1
  O  O352  1  0.63948369  0.88087571  0.12864804  1
  O  O353  1  0.63969196  0.86137145  0.63632069  1
  O  O354  1  0.11038157  0.26571450  0.24593979  1
  O  O355  1  0.13082503  0.26706066  0.72062372  1
  O  O356  1  0.12321304  0.75833811  0.25695827  1
  O  O357  1  0.11346452  0.74118525  0.74660818  1
  O  O358  1  0.60684381  0.24842279  0.25168485  1
  O  O359  1  0.62221049  0.26774390  0.73734748  1
  O  O360  1  0.63395574  0.73656624  0.26079232  1
  O  O361  1  0.62375120  0.75437629  0.75603853  1
  O  O362  1  0.37655742  0.24203026  0.24404338  1
  O  O363  1  0.36969183  0.25887535  0.73350682  1
  O  O364  1  0.37713785  0.73828355  0.25498848  1
  O  O365  1  0.34520146  0.72596970  0.78979589  1
  O  O366  1  0.89779117  0.25084936  0.25527821  1
  O  O367  1  0.86621959  0.24209227  0.74189834  1
  O  O368  1  0.88899043  0.75409529  0.25564644  1
  O  O369  1  0.89815765  0.73155255  0.75822070  1
  O  O370  1  0.37188977  0.48432740  0.49136740  1
  O  O371  1  0.38971692  0.48623264  1.00347364  1
  O  O372  1  0.38470973  1.00301206  0.49586493  1
  O  O373  1  0.39011420  1.01128576  0.98340923  1
  O  O374  1  0.88299523  0.49047041  0.49657021  1
  O  O375  1  0.88561323  0.51335863  0.98406739  1
  O  O376  1  0.88978978  1.00652740  0.49388182  1
  O  O377  1  0.88992067  1.01891550  1.00176450  1
  O  O378  1  0.12671410  0.01061267  0.01175339  1
  O  O379  1  0.10712637  0.01156552  0.49696810  1
  O  O380  1  0.11224284  0.50130583  0.00033714  1
  O  O381  1  0.11506843  0.51354538  0.48849731  1
  O  O382  1  0.60011496  -0.02466870  -0.01704108  1
  O  O383  1  0.60249659  0.00109831  0.47943061  1
  O  O384  1  0.61620616  0.49345931  0.01111696  1
  O  O385  1  0.62558780  0.49915781  0.51658663  1
  O  O386  1  0.36159184  0.36975413  0.12775549  1
  O  O387  1  0.38434514  0.36478619  0.61030359  1
  O  O388  1  0.36921053  0.88722681  0.13524092  1
  O  O389  1  0.35173000  0.88329463  0.63262846  1
  O  O390  1  0.87012072  0.38145996  0.12706996  1
  O  O391  1  0.86927418  0.37196078  0.62312563  1
  O  O392  1  0.87871192  0.85639368  0.13070031  1
  O  O393  1  0.86845404  0.86218356  0.64093399  1
  O  O394  1  0.12061876  0.12780708  0.38938859  1
  O  O395  1  0.13774090  0.13406713  0.88548961  1
  O  O396  1  0.13264483  0.63363862  0.37869032  1
  O  O397  1  0.11400418  0.62708881  0.88524613  1
  O  O398  1  0.64325954  0.13219261  0.37312819  1
  O  O399  1  0.56029171  0.11836654  0.87771711  1
  O  O400  1  0.63871133  0.62602668  0.37469312  1
  O  O401  1  0.61490774  0.64115435  0.86162911  1
