# generated using pymatgen
data_V73Zn73O256
_symmetry_space_group_name_H-M   'P 1'
_cell_length_a   16.90274112
_cell_length_b   16.90164939
_cell_length_c   16.88041285
_cell_angle_alpha   89.92633368
_cell_angle_beta   89.96209706
_cell_angle_gamma   90.10654350
_symmetry_Int_Tables_number   1
_chemical_formula_structural   V73Zn73O256
_chemical_formula_sum   'V73 Zn73 O256'
_cell_volume   4822.45392268
_cell_formula_units_Z   1
loop_
 _symmetry_equiv_pos_site_id
 _symmetry_equiv_pos_as_xyz
  1  'x, y, z'
loop_
 _atom_site_type_symbol
 _atom_site_label
 _atom_site_symmetry_multiplicity
 _atom_site_fract_x
 _atom_site_fract_y
 _atom_site_fract_z
 _atom_site_occupancy
  V  V0  1  0.00746801  0.87374062  0.87045026  1
  V  V1  1  0.25322871  0.87300836  0.62142904  1
  V  V2  1  0.13478086  -0.00299052  0.15111485  1
  V  V3  1  0.37458493  0.61560118  0.26024977  1
  V  V4  1  0.74009551  0.12986781  0.88500883  1
  V  V5  1  0.36998690  -0.00009746  0.37817719  1
  V  V6  1  0.24725200  0.12699648  0.88158753  1
  V  V7  1  0.51351633  0.12491407  0.62095076  1
  V  V8  1  0.24844032  0.50600483  0.74062813  1
  V  V9  1  0.74354721  0.88734037  0.63624795  1
  V  V10  1  0.00627654  0.76205836  0.25208340  1
  V  V11  1  0.50396368  0.86572925  0.38302266  1
  V  V12  1  0.37890064  -0.00934732  0.88655030  1
  V  V13  1  0.50177834  0.24890347  0.75190224  1
  V  V14  1  0.36536204  0.11828120  0.25027948  1
  V  V15  1  0.00889003  0.75251928  0.74861617  1
  V  V16  1  -0.00107276  0.38158619  0.87403975  1
  V  V17  1  0.63530280  0.37356934  0.24375304  1
  V  V18  1  0.12480296  0.47899307  0.13846266  1
  V  V19  1  0.63035748  0.51110450  0.62495826  1
  V  V20  1  0.00879816  0.50804420  -0.00702551  1
  V  V21  1  0.49616992  0.37895368  0.38133285  1
  V  V22  1  -0.00200379  0.24837074  0.74837826  1
  V  V23  1  0.62025439  0.52124968  0.11992902  1
  V  V24  1  0.75079850  0.37533782  0.62206169  1
  V  V25  1  0.24402319  0.61226855  0.37959953  1
  V  V26  1  0.49945802  0.74474878  0.23113520  1
  V  V27  1  0.23315318  0.25407039  0.01135857  1
  V  V28  1  0.73666123  0.74808889  0.00602378  1
  V  V29  1  0.75188104  0.50272014  0.75463687  1
  V  V30  1  0.87668262  0.25308150  0.62335955  1
  V  V31  1  0.87793112  0.62471990  0.75943505  1
  V  V32  1  0.12509677  0.24703041  0.87617728  1
  V  V33  1  0.24724827  -0.00929269  0.75224474  1
  V  V34  1  0.24827911  0.75258361  0.49743764  1
  V  V35  1  0.87264022  0.13119793  0.25069891  1
  V  V36  1  0.62622200  0.37332804  0.75677222  1
  V  V37  1  0.73545643  0.63357514  0.87928899  1
  V  V38  1  0.51849970  -0.00239842  0.00974062  1
  V  V39  1  0.86725449  0.12006880  0.75029029  1
  V  V40  1  0.51436142  0.00274191  0.50151631  1
  V  V41  1  0.00690455  0.61391708  0.61191057  1
  V  V42  1  0.38646826  0.74769348  0.62413629  1
  V  V43  1  0.11605266  -0.01166614  0.62548178  1
  V  V44  1  0.87252867  0.74960449  0.62508408  1
  V  V45  1  0.25557079  0.86368196  0.12856282  1
  V  V46  1  0.75000761  0.51170709  0.25172936  1
  V  V47  1  0.49128515  0.50360134  0.50378407  1
  V  V48  1  0.60304770  0.87555841  0.75806949  1
  V  V49  1  -0.00276775  0.12088527  0.61489172  1
  V  V50  1  0.01292226  0.00416397  0.00026244  1
  V  V51  1  0.38269135  0.62637334  0.75087133  1
  V  V52  1  0.63264637  0.25119980  0.39045391  1
  V  V53  1  0.63077374  0.62617950  0.48249108  1
  V  V54  1  0.37081518  0.12833420  0.74039022  1
  V  V55  1  0.88022583  0.49953989  0.37986174  1
  V  V56  1  0.87313915  0.63528836  0.24888402  1
  V  V57  1  0.74782439  0.74843048  0.48791356  1
  V  V58  1  0.87634398  0.86804200  0.00433300  1
  V  V59  1  0.88499087  0.88666144  0.49133604  1
  V  V60  1  0.74409800  0.88847162  0.12633944  1
  V  V61  1  0.87042548  -0.00176213  0.87245479  1
  V  V62  1  0.13229290  0.74554538  0.88919427  1
  V  V63  1  0.75081214  0.10545905  0.37768578  1
  V  V64  1  0.36778837  0.38059725  -0.02494634  1
  V  V65  1  0.13775227  0.12601454  0.49202362  1
  V  V66  1  0.12814236  0.38136099  0.73074924  1
  V  V67  1  0.62311794  0.88280770  0.24318927  1
  V  V68  1  0.75608866  0.25035563  0.49762323  1
  V  V69  1  0.12273476  0.77209433  0.37583935  1
  V  V70  1  0.38081353  0.25696149  0.12705546  1
  V  V71  1  0.02552166  0.25354097  0.26103829  1
  V  V72  1  0.01300001  0.63360523  0.12367174  1
  Zn  Zn73  1  0.24493014  0.61406750  0.89011853  1
  Zn  Zn74  1  0.51096876  0.12310487  0.12191187  1
  Zn  Zn75  1  0.84467411  0.46536831  0.92342381  1
  Zn  Zn76  1  0.36490241  0.74102999  0.12004853  1
  Zn  Zn77  1  -0.00099663  0.13058673  0.11685088  1
  Zn  Zn78  1  0.49842514  0.36830624  0.87383792  1
  Zn  Zn79  1  0.99103271  0.37627097  0.37269712  1
  Zn  Zn80  1  0.50762228  0.24735509  0.25408523  1
  Zn  Zn81  1  0.82589886  0.32636773  0.05234236  1
  Zn  Zn82  1  0.18211004  0.17639545  0.18732687  1
  Zn  Zn83  1  0.17864019  0.17453189  0.69273406  1
  Zn  Zn84  1  0.18835206  0.68361798  0.19853376  1
  Zn  Zn85  1  0.18432884  0.68629360  0.68333444  1
  Zn  Zn86  1  0.70446049  0.18685381  0.21057082  1
  Zn  Zn87  1  0.68830186  0.18835874  0.69184433  1
  Zn  Zn88  1  0.68349010  0.69653550  0.18705187  1
  Zn  Zn89  1  0.68915821  0.69487638  0.68815952  1
  Zn  Zn90  1  0.32855661  0.33369312  0.27686479  1
  Zn  Zn91  1  0.30844587  0.31385142  0.69331682  1
  Zn  Zn92  1  0.31537454  0.81870428  0.30659631  1
  Zn  Zn93  1  0.31762376  0.80909077  0.81202824  1
  Zn  Zn94  1  0.84511224  0.34259269  0.25561412  1
  Zn  Zn95  1  0.79667937  0.32553768  0.84724096  1
  Zn  Zn96  1  0.81301762  0.81772659  0.30927764  1
  Zn  Zn97  1  0.81435865  0.81136177  0.81442245  1
  Zn  Zn98  1  0.20908770  0.41774148  0.43046083  1
  Zn  Zn99  1  0.18357036  0.43769759  0.93347538  1
  Zn  Zn100  1  0.18506049  0.94557339  0.43881159  1
  Zn  Zn101  1  0.19579328  0.93008672  0.94172343  1
  Zn  Zn102  1  0.69506808  0.43898408  0.43462713  1
  Zn  Zn103  1  0.68055758  0.43772325  0.94262624  1
  Zn  Zn104  1  0.68254151  0.92538777  0.44203292  1
  Zn  Zn105  1  0.68797048  0.93753959  0.93095686  1
  Zn  Zn106  1  0.30837135  0.06669144  0.06708339  1
  Zn  Zn107  1  0.31271058  0.05745752  0.55776130  1
  Zn  Zn108  1  0.30865094  0.55116640  0.08227034  1
  Zn  Zn109  1  0.30433808  0.56777595  0.56647338  1
  Zn  Zn110  1  0.81712171  0.06097573  0.06093903  1
  Zn  Zn111  1  0.80943517  0.06321011  0.55916544  1
  Zn  Zn112  1  0.81710079  0.56895157  0.07214446  1
  Zn  Zn113  1  0.81692380  0.56595324  0.56263023  1
  Zn  Zn114  1  0.44242035  0.44237290  0.19842189  1
  Zn  Zn115  1  0.44286906  0.44912181  0.69340684  1
  Zn  Zn116  1  0.43522378  0.93284577  0.18056096  1
  Zn  Zn117  1  0.43414600  0.94005668  0.68736801  1
  Zn  Zn118  1  0.94997821  0.44430359  0.18631192  1
  Zn  Zn119  1  0.93755377  0.43785443  0.68793866  1
  Zn  Zn120  1  0.93565277  0.94021141  0.17913919  1
  Zn  Zn121  1  0.93081746  0.93303464  0.68579097  1
  Zn  Zn122  1  0.05030315  0.05932700  0.31497892  1
  Zn  Zn123  1  0.06056694  0.06010068  0.81034675  1
  Zn  Zn124  1  0.06233612  0.56758875  0.31502594  1
  Zn  Zn125  1  0.06917629  0.56797069  0.80561068  1
  Zn  Zn126  1  0.55983576  0.06533881  0.31034499  1
  Zn  Zn127  1  0.56174880  0.05371243  0.81034427  1
  Zn  Zn128  1  0.56085918  0.56171821  0.31178200  1
  Zn  Zn129  1  0.55446917  0.69568220  0.80742858  1
  Zn  Zn130  1  0.44353586  0.18091993  0.43029908  1
  Zn  Zn131  1  0.44188800  0.17485064  0.93416128  1
  Zn  Zn132  1  0.43270037  0.68266992  0.44443364  1
  Zn  Zn133  1  0.42101472  0.67564575  0.93853575  1
  Zn  Zn134  1  0.93632202  0.18662931  0.43250723  1
  Zn  Zn135  1  0.92868344  0.18947617  0.93885409  1
  Zn  Zn136  1  0.93528355  0.69123551  0.43228695  1
  Zn  Zn137  1  0.94077292  0.68913879  0.94062369  1
  Zn  Zn138  1  0.01005687  0.31463319  0.07004407  1
  Zn  Zn139  1  0.17904894  0.29067126  0.56179528  1
  Zn  Zn140  1  0.07043272  0.82043867  0.06502368  1
  Zn  Zn141  1  0.06115808  0.80800876  0.55980368  1
  Zn  Zn142  1  0.53547134  0.36926584  0.07896217  1
  Zn  Zn143  1  0.44063070  0.31635954  0.56627473  1
  Zn  Zn144  1  0.55007245  0.81965587  -0.05620429  1
  Zn  Zn145  1  0.56873302  0.81299187  0.56477274  1
  O  O146  1  0.11509648  0.10237295  0.13061889  1
  O  O147  1  0.11414554  0.11392060  0.61626799  1
  O  O148  1  0.11428594  0.61740872  0.13613463  1
  O  O149  1  0.10628445  0.62892509  0.62297499  1
  O  O150  1  0.63608851  0.16173805  0.11368843  1
  O  O151  1  0.61181393  0.12244102  0.63360098  1
  O  O152  1  0.61423863  0.62005059  0.12977695  1
  O  O153  1  0.63433677  0.61375907  0.62411209  1
  O  O154  1  0.39797249  0.37083997  0.36156839  1
  O  O155  1  0.37421632  0.38590976  0.87608284  1
  O  O156  1  0.39583989  0.89153759  0.36332887  1
  O  O157  1  0.36963025  0.89165691  0.87071780  1
  O  O158  1  0.87104508  0.39525787  0.35869849  1
  O  O159  1  0.89647451  0.38512865  0.85237307  1
  O  O160  1  0.86511753  0.87137984  0.39310697  1
  O  O161  1  0.88346812  0.88072341  0.88136864  1
  O  O162  1  0.27118031  -0.00985407  0.37800623  1
  O  O163  1  0.25147846  0.00619902  0.86926098  1
  O  O164  1  0.24900046  0.51315898  0.39115444  1
  O  O165  1  0.23413145  0.50366053  0.85570425  1
  O  O166  1  0.74240729  0.00818192  0.38860332  1
  O  O167  1  0.76663060  0.00348889  0.87598685  1
  O  O168  1  0.75647084  0.50650881  0.35996802  1
  O  O169  1  0.75135500  0.51732878  0.87053920  1
  O  O170  1  0.22521826  0.49039480  0.12745164  1
  O  O171  1  0.24630572  0.49968586  0.63764549  1
  O  O172  1  0.23801039  1.00056761  0.12970140  1
  O  O173  1  0.24435671  0.99045817  0.63175133  1
  O  O174  1  0.73681431  0.51489698  0.13981668  1
  O  O175  1  0.75034386  0.49428054  0.63106962  1
  O  O176  1  0.74561154  0.98693949  0.11965264  1
  O  O177  1  0.75147140  0.98605612  0.62214870  1
  O  O178  1  0.00531755  0.35895999  0.25430589  1
  O  O179  1  0.01049930  0.36805010  0.74997999  1
  O  O180  1  -0.00821009  0.85905478  0.24118571  1
  O  O181  1  -0.00982548  0.86484339  0.76034881  1
  O  O182  1  0.51911531  0.37438837  0.26463294  1
  O  O183  1  0.50820110  0.36814540  0.75137205  1
  O  O184  1  0.50749323  0.86289423  0.25379060  1
  O  O185  1  0.50254212  0.87139222  0.74770769  1
  O  O186  1  0.50186860  0.13277374  0.23811920  1
  O  O187  1  0.49001762  0.12445931  0.74052356  1
  O  O188  1  0.48935441  0.63876825  0.26668797  1
  O  O189  1  0.48229523  0.62083311  0.75385399  1
  O  O190  1  0.98121084  0.14184201  0.26851892  1
  O  O191  1  0.99448864  0.13235979  0.74279432  1
  O  O192  1  0.99538284  0.63684559  0.24181230  1
  O  O193  1  0.99327424  0.63278184  0.74120925  1
  O  O194  1  0.36148513  0.26413369  0.01708465  1
  O  O195  1  0.36877477  0.24885239  0.49417313  1
  O  O196  1  0.33585998  0.69941494  0.00855524  1
  O  O197  1  0.36214291  0.74680011  0.51497481  1
  O  O198  1  0.91563739  0.26219608  0.02027579  1
  O  O199  1  0.86967001  0.24642076  0.51399268  1
  O  O200  1  0.87110283  0.76415720  -0.00491803  1
  O  O201  1  0.86187679  0.75283988  0.50599508  1
  O  O202  1  0.11947259  0.22648555  0.49116273  1
  O  O203  1  0.12970637  0.25427951  0.99192092  1
  O  O204  1  0.13192917  0.75435531  0.48558412  1
  O  O205  1  0.12102360  0.75241719  0.98819786  1
  O  O206  1  0.63697473  0.24821838  0.49153771  1
  O  O207  1  0.66941885  0.22121544  1.06647617  1
  O  O208  1  0.63482243  0.73582528  0.50640649  1
  O  O209  1  0.63929973  0.75568069  0.99681631  1
  O  O210  1  0.48396632  0.26154823  0.12295129  1
  O  O211  1  0.49273632  0.23108072  0.63168968  1
  O  O212  1  0.49041650  0.74259915  0.13299317  1
  O  O213  1  0.48497749  0.75331093  0.61625939  1
  O  O214  1  1.00982610  0.23793033  0.15558335  1
  O  O215  1  0.99049564  0.23886200  0.63365903  1
  O  O216  1  1.01397949  0.74253173  0.13697485  1
  O  O217  1  0.98943361  0.74839650  0.63227972  1
  O  O218  1  -0.00980427  0.25941175  0.36604994  1
  O  O219  1  0.00426268  0.25589359  0.86527351  1
  O  O220  1  0.01360391  0.74891416  0.36617623  1
  O  O221  1  0.00812694  0.75565028  0.86861408  1
  O  O222  1  0.51680459  0.25900252  0.38047464  1
  O  O223  1  0.49453191  0.24317877  0.85622038  1
  O  O224  1  0.49324169  0.76628085  0.38780614  1
  O  O225  1  0.49583559  0.73838213  0.89234784  1
  O  O226  1  0.23824194  0.11980367  0.50011315  1
  O  O227  1  0.25453118  0.14233573  0.99105086  1
  O  O228  1  0.25118531  0.63963622  0.48986589  1
  O  O229  1  0.27798636  0.63624280  1.00472358  1
  O  O230  1  0.75494973  0.13648405  0.48773115  1
  O  O231  1  0.75824763  0.11908892  0.98471029  1
  O  O232  1  0.74237770  0.63767471  0.50309608  1
  O  O233  1  0.75672909  0.63692144  0.99045400  1
  O  O234  1  0.25320763  0.35822063  -0.01145015  1
  O  O235  1  0.27051753  0.34389957  0.49718994  1
  O  O236  1  0.24649123  0.87735440  0.02344242  1
  O  O237  1  0.24607669  0.86907722  0.51215016  1
  O  O238  1  0.77497531  0.37594161  -0.04040837  1
  O  O239  1  0.74799529  0.36656713  0.51279171  1
  O  O240  1  0.75429336  0.86685806  0.00661727  1
  O  O241  1  0.74745586  0.86061348  0.51331760  1
  O  O242  1  0.10604201  0.49352333  0.23821915  1
  O  O243  1  0.12508139  0.48735199  0.74211818  1
  O  O244  1  0.11971355  0.99567214  0.25015661  1
  O  O245  1  0.13693034  1.00918220  0.73723912  1
  O  O246  1  0.62951786  0.49552171  0.24453017  1
  O  O247  1  0.64207529  0.49585809  0.74104142  1
  O  O248  1  0.61672308  0.98194246  0.25075322  1
  O  O249  1  0.61923530  0.97652842  0.74880024  1
  O  O250  1  0.38674900  0.01267978  0.25557440  1
  O  O251  1  0.36690903  0.00847006  0.75976308  1
  O  O252  1  0.38626411  0.51525440  0.26415287  1
  O  O253  1  0.36197480  0.51577192  0.74423656  1
  O  O254  1  0.89977510  0.00440780  0.27372637  1
  O  O255  1  0.88640102  0.00984109  0.76014777  1
  O  O256  1  0.86828447  0.51627097  0.25256899  1
  O  O257  1  0.86113060  0.51089262  0.74444380  1
  O  O258  1  0.17655017  0.35591427  0.33631091  1
  O  O259  1  0.11320224  0.36458508  0.86669197  1
  O  O260  1  0.12145178  0.87139772  0.37711433  1
  O  O261  1  0.11253083  0.86805693  0.87722669  1
  O  O262  1  0.62302390  0.36612441  0.37394380  1
  O  O263  1  0.61737878  0.38632442  0.86185425  1
  O  O264  1  0.61194962  0.87466734  0.36326599  1
  O  O265  1  0.62296549  0.87019519  0.86471430  1
  O  O266  1  0.37355879  0.14044217  0.13418241  1
  O  O267  1  0.37464924  0.11432955  0.63917615  1
  O  O268  1  0.36387556  0.62454628  0.15403727  1
  O  O269  1  0.36892165  0.63935235  0.63355172  1
  O  O270  1  0.88307943  0.09688847  0.14919770  1
  O  O271  1  0.87813131  0.12952184  0.63209544  1
  O  O272  1  0.89288938  0.62714077  0.14080321  1
  O  O273  1  0.87832115  0.63486768  0.63546694  1
  O  O274  1  0.24507142  0.24534286  0.11445128  1
  O  O275  1  0.24702572  0.24053202  0.63519208  1
  O  O276  1  0.24284596  0.75862308  0.13320009  1
  O  O277  1  0.24500799  0.75833855  0.61585010  1
  O  O278  1  0.73834603  0.24605323  0.10474222  1
  O  O279  1  0.75675733  0.25378969  0.61947053  1
  O  O280  1  0.74949566  0.75457421  0.11004174  1
  O  O281  1  0.76226334  0.75523814  0.62149215  1
  O  O282  1  0.30501403  0.28009016  0.45213871  1
  O  O283  1  0.23660308  0.24133346  0.88248543  1
  O  O284  1  0.23992627  0.76030103  0.38202302  1
  O  O285  1  0.23180139  0.75859735  0.86940264  1
  O  O286  1  0.74301284  0.25451980  0.38655287  1
  O  O287  1  0.74850364  0.22952851  0.86989556  1
  O  O288  1  0.74904955  0.75504474  0.38962248  1
  O  O289  1  0.75557292  0.73963255  0.88430727  1
  O  O290  1  -0.00875188  0.10592562  -0.00113737  1
  O  O291  1  -0.00617084  0.12255552  0.51337981  1
  O  O292  1  0.00377600  0.62606609  0.01450365  1
  O  O293  1  -0.01088420  0.63408366  0.51430653  1
  O  O294  1  0.49463970  0.11091605  0.00723856  1
  O  O295  1  0.50012239  0.11891676  0.51186835  1
  O  O296  1  0.48655970  0.56054124  -0.03875116  1
  O  O297  1  0.51686233  0.61308564  0.49298069  1
  O  O298  1  0.49799706  0.38584967  0.49081908  1
  O  O299  1  0.47667071  0.36440128  0.98700669  1
  O  O300  1  0.50868272  0.88667559  0.49135185  1
  O  O301  1  0.49363494  0.89907951  0.99838558  1
  O  O302  1  1.05165167  0.38581187  0.47983899  1
  O  O303  1  0.99823874  0.39773812  0.98609706  1
  O  O304  1  0.98415193  0.86929227  0.50273806  1
  O  O305  1  0.99442917  0.88107615  0.99197873  1
  O  O306  1  0.51191228  0.48773442  0.38983266  1
  O  O307  1  0.50388765  0.52364679  0.89945020  1
  O  O308  1  0.50036055  0.99892295  0.38831056  1
  O  O309  1  0.48312106  1.01097352  0.88576320  1
  O  O310  1  0.98660260  0.49815271  0.36985665  1
  O  O311  1  1.01104975  0.50084329  0.88363264  1
  O  O312  1  0.95229137  0.99338647  0.33344491  1
  O  O313  1  0.99468152  0.99245311  0.88036495  1
  O  O314  1  0.01332179  -0.00906927  0.10913051  1
  O  O315  1  0.01096416  0.00369880  0.63654275  1
  O  O316  1  0.00851255  0.51412261  0.11447660  1
  O  O317  1  -0.01030860  0.51431591  0.62344832  1
  O  O318  1  0.50031520  0.00222550  0.11529062  1
  O  O319  1  0.49132315  0.00979835  0.61119006  1
  O  O320  1  0.51924072  0.48239699  0.12529495  1
  O  O321  1  0.51770013  0.49275847  0.60996034  1
  O  O322  1  0.21995286  0.37024614  0.27234236  1
  O  O323  1  0.23306321  0.38452961  0.75076956  1
  O  O324  1  0.25370507  0.88030408  0.23419797  1
  O  O325  1  0.25176393  0.88534435  0.74176562  1
  O  O326  1  0.73706587  0.39200454  0.25596210  1
  O  O327  1  0.74576931  0.38402796  0.75375433  1
  O  O328  1  0.73878413  0.86694582  0.23783037  1
  O  O329  1  0.75611396  0.87300121  0.73781634  1
  O  O330  1  0.26646499  0.12479854  0.25050177  1
  O  O331  1  0.25858548  0.11536123  0.75805951  1
  O  O332  1  0.26079120  0.62724258  0.26953696  1
  O  O333  1  0.24524683  0.61327306  0.74611680  1
  O  O334  1  0.76034155  0.10489414  0.26398056  1
  O  O335  1  0.76364290  0.12503729  0.75332552  1
  O  O336  1  0.76583309  0.63207242  0.24410552  1
  O  O337  1  0.75675303  0.62442766  0.76211131  1
  O  O338  1  0.38373153  0.11383086  0.36092029  1
  O  O339  1  0.36229027  0.11838886  0.86581343  1
  O  O340  1  0.35880081  0.63427613  0.37216498  1
  O  O341  1  0.35569477  0.63532180  0.85210044  1
  O  O342  1  0.85772196  0.12656493  0.36911031  1
  O  O343  1  0.87180186  0.11759355  0.86729697  1
  O  O344  1  0.88414023  0.61664004  0.35801054  1
  O  O345  1  0.87734702  0.62915565  0.86292515  1
  O  O346  1  0.09938281  0.38294424  0.11709639  1
  O  O347  1  0.12371162  0.36667582  0.63276245  1
  O  O348  1  0.13243253  0.89057288  0.12771394  1
  O  O349  1  0.12853890  0.88406568  0.62623911  1
  O  O350  1  0.62985560  0.37073656  0.14203491  1
  O  O351  1  0.64327933  0.38701587  0.63890893  1
  O  O352  1  0.63637803  0.87393835  0.13566008  1
  O  O353  1  0.63795618  0.86975875  0.63584122  1
  O  O354  1  0.12246630  0.23045411  0.26906385  1
  O  O355  1  0.11468928  0.25607784  0.75583564  1
  O  O356  1  0.11615394  0.75262323  0.26398643  1
  O  O357  1  0.11137510  0.74925174  0.75329305  1
  O  O358  1  0.63402348  0.26442063  0.26180881  1
  O  O359  1  0.61577011  0.26273363  0.74212005  1
  O  O360  1  0.60726825  0.75725725  0.24743749  1
  O  O361  1  0.62188178  0.76184678  0.74627220  1
  O  O362  1  0.38089678  0.23504111  0.24641988  1
  O  O363  1  0.38082530  0.23192084  0.74906967  1
  O  O364  1  0.38981032  0.74553362  0.25395153  1
  O  O365  1  0.36796617  0.74037361  0.73506993  1
  O  O366  1  0.85046372  0.22918199  0.24081474  1
  O  O367  1  0.88448049  0.23952213  0.74301296  1
  O  O368  1  0.88930028  0.74220461  0.26120198  1
  O  O369  1  0.88296844  0.74321375  0.74382654  1
  O  O370  1  0.39350056  0.51355367  0.50909951  1
  O  O371  1  0.36004821  0.47344853  1.01363713  1
  O  O372  1  0.38669703  1.00614339  0.48388835  1
  O  O373  1  0.36314650  1.00549187  0.98595856  1
  O  O374  1  0.86337085  0.50547662  0.47921106  1
  O  O375  1  0.89720756  0.51804341  1.00546968  1
  O  O376  1  0.87380208  0.98609653  0.50496361  1
  O  O377  1  0.88508900  0.98782874  0.99090641  1
  O  O378  1  0.11196371  0.00028348  -0.01266736  1
  O  O379  1  0.12765036  0.00254850  0.52208664  1
  O  O380  1  0.11347094  0.50300684  0.00850475  1
  O  O381  1  0.10293381  0.44339711  0.48367464  1
  O  O382  1  0.61830253  -0.00113827  -0.00257549  1
  O  O383  1  0.61345613  0.00200217  0.50080489  1
  O  O384  1  0.63430261  0.50039079  0.02116929  1
  O  O385  1  0.63294994  0.51365340  0.50521582  1
  O  O386  1  0.36514944  0.35777292  0.16025261  1
  O  O387  1  0.37932996  0.37747117  0.63547343  1
  O  O388  1  0.36434419  0.86291808  0.12517193  1
  O  O389  1  0.36292640  0.86176006  0.63161466  1
  O  O390  1  0.86872670  0.37632793  0.14647341  1
  O  O391  1  0.86345781  0.36279184  0.63762645  1
  O  O392  1  0.85946787  0.88079886  0.11638870  1
  O  O393  1  0.86480543  0.86734447  0.61618347  1
  O  O394  1  0.11470370  0.09321026  0.39868886  1
  O  O395  1  0.13290160  0.13503076  0.86505943  1
  O  O396  1  0.14107605  0.63352299  0.37036586  1
  O  O397  1  0.12701909  0.64083050  0.87418149  1
  O  O398  1  0.64110590  0.14117605  0.36439167  1
  O  O399  1  0.64267097  0.11120661  0.86610685  1
  O  O400  1  0.63117269  0.62356339  0.38409598  1
  O  O401  1  0.63812087  0.62983499  0.87168117  1
