# generated using pymatgen
data_V73Zn73O256
_symmetry_space_group_name_H-M   'P 1'
_cell_length_a   16.82431771
_cell_length_b   16.79483208
_cell_length_c   16.84766375
_cell_angle_alpha   90.06783448
_cell_angle_beta   90.03987752
_cell_angle_gamma   89.90715391
_symmetry_Int_Tables_number   1
_chemical_formula_structural   V73Zn73O256
_chemical_formula_sum   'V73 Zn73 O256'
_cell_volume   4760.49193450
_cell_formula_units_Z   1
loop_
 _symmetry_equiv_pos_site_id
 _symmetry_equiv_pos_as_xyz
  1  'x, y, z'
loop_
 _atom_site_type_symbol
 _atom_site_label
 _atom_site_symmetry_multiplicity
 _atom_site_fract_x
 _atom_site_fract_y
 _atom_site_fract_z
 _atom_site_occupancy
  V  V0  1  0.50271787  0.00965165  0.49880673  1
  V  V1  1  0.13674816  0.88417961  0.24359591  1
  V  V2  1  0.87734012  0.49153666  0.89704978  1
  V  V3  1  0.37262964  0.86847325  0.50358796  1
  V  V4  1  0.74945208  0.13125299  0.38812276  1
  V  V5  1  0.11851239  0.88911479  0.75673203  1
  V  V6  1  0.11833855  0.63055887  -0.00942649  1
  V  V7  1  0.74580307  0.75570898  0.50956247  1
  V  V8  1  0.12550976  0.36873348  0.25441808  1
  V  V9  1  0.36385553  0.12627122  0.25092934  1
  V  V10  1  0.87364806  -0.00079690  0.37673873  1
  V  V11  1  0.87408630  0.13175540  0.75164751  1
  V  V12  1  0.01165918  0.37678235  0.88500266  1
  V  V13  1  0.87946466  0.62163085  0.75261547  1
  V  V14  1  0.87301685  0.75270272  0.62736538  1
  V  V15  1  0.50449103  0.37329455  0.37366462  1
  V  V16  1  0.12285468  0.49101106  0.61994422  1
  V  V17  1  0.25635148  0.51604221  0.24881388  1
  V  V18  1  0.89015641  -0.00250042  0.87082080  1
  V  V19  1  0.24175090  0.23634782  0.48492186  1
  V  V20  1  0.01421440  0.25783451  0.75115604  1
  V  V21  1  0.75819934  -0.00634502  0.75016827  1
  V  V22  1  0.87946949  0.87879877  -0.00536335  1
  V  V23  1  0.71065361  0.47590932  0.22589227  1
  V  V24  1  0.01540677  0.11848484  0.62128532  1
  V  V25  1  0.88162360  0.74946434  0.12874999  1
  V  V26  1  0.74308089  0.87493405  0.13515056  1
  V  V27  1  0.63514225  -0.00626661  0.61800885  1
  V  V28  1  0.50215020  0.12614202  0.63871325  1
  V  V29  1  0.62450838  0.74987213  0.36271753  1
  V  V30  1  0.00318965  0.38729809  0.38111189  1
  V  V31  1  0.01572103  -0.00540506  0.50398862  1
  V  V32  1  0.26140616  0.12733011  0.87197740  1
  V  V33  1  0.01108259  0.62363314  0.61392762  1
  V  V34  1  0.25345850  0.63088326  0.39631419  1
  V  V35  1  -0.01439278  0.24963766  0.24260007  1
  V  V36  1  0.62015726  -0.01304149  0.13733594  1
  V  V37  1  0.50018314  -0.00594702  -0.00791747  1
  V  V38  1  0.50430755  0.25155508  0.24651270  1
  V  V39  1  0.62656838  0.87185620  0.76592180  1
  V  V40  1  -0.00308340  0.62685723  0.13947876  1
  V  V41  1  0.75166891  0.37052671  0.61790596  1
  V  V42  1  0.75091790  0.49569352  0.74803267  1
  V  V43  1  0.50319819  0.87282040  0.36558852  1
  V  V44  1  -0.00277857  0.86631460  0.36708323  1
  V  V45  1  0.12269999  0.50642293  0.12612310  1
  V  V46  1  0.37861796  0.24107547  0.62617608  1
  V  V47  1  0.12812504  0.13655487  0.00407118  1
  V  V48  1  0.25423444  0.75356148  0.01308357  1
  V  V49  1  0.26046036  0.37418121  0.61620702  1
  V  V50  1  0.61473956  0.61905522  0.01201691  1
  V  V51  1  0.25660085  0.49632909  0.75646406  1
  V  V52  1  0.37104982  0.87889978  -0.02437026  1
  V  V53  1  0.62624040  0.49615615  0.62661025  1
  V  V54  1  0.87660373  0.40212617  0.49417480  1
  V  V55  1  0.36256147  0.00851997  0.37565024  1
  V  V56  1  0.49982979  0.36293166  0.87376950  1
  V  V57  1  0.37551187  0.49845795  0.37757812  1
  V  V58  1  0.49836255  0.62824832  0.63638720  1
  V  V59  1  0.00841639  0.00441381  0.01571066  1
  V  V60  1  0.62715474  0.62708539  0.49777472  1
  V  V61  1  0.36648393  0.75007274  0.63536903  1
  V  V62  1  0.50331921  0.12474406  0.12647435  1
  V  V63  1  0.27434835  0.00290989  0.74960696  1
  V  V64  1  0.26902981  0.62812637  0.87153086  1
  V  V65  1  0.26698707  0.37188132  0.12314383  1
  V  V66  1  0.00976941  0.74776167  0.76910993  1
  V  V67  1  0.87905036  0.24564593  0.60514095  1
  V  V68  1  0.49576396  0.49456712  0.50224673  1
  V  V69  1  0.74255235  0.75522546  -0.00492974  1
  V  V70  1  0.62677992  0.24235186  0.39228426  1
  V  V71  1  0.74479966  0.62625636  0.88018154  1
  V  V72  1  0.12530721  0.74535731  0.38468122  1
  Zn  Zn73  1  0.25797745  0.26118628  -0.00805006  1
  Zn  Zn74  1  0.83029064  0.56503699  0.30626552  1
  Zn  Zn75  1  0.49922679  0.75289040  0.76250923  1
  Zn  Zn76  1  0.23371011  0.88526530  0.61808026  1
  Zn  Zn77  1  0.74578131  -0.00384315  0.25747421  1
  Zn  Zn78  1  0.87042128  0.12135769  0.24221637  1
  Zn  Zn79  1  0.84375602  0.25694053  0.10433281  1
  Zn  Zn80  1  0.87340564  0.87324135  0.50645777  1
  Zn  Zn81  1  0.73095801  0.21089713  -0.04625828  1
  Zn  Zn82  1  0.18511640  0.18788348  0.18226054  1
  Zn  Zn83  1  0.19443338  0.18531326  0.68660545  1
  Zn  Zn84  1  0.17947393  0.69993296  0.19432923  1
  Zn  Zn85  1  0.18801600  0.68580730  0.69118258  1
  Zn  Zn86  1  0.68910670  0.18136483  0.19775890  1
  Zn  Zn87  1  0.69616323  0.17954931  0.67422552  1
  Zn  Zn88  1  0.69293921  0.67938974  0.18655205  1
  Zn  Zn89  1  0.68584895  0.68584739  0.69240219  1
  Zn  Zn90  1  0.31718039  0.31623543  0.30907655  1
  Zn  Zn91  1  0.30509626  0.30752670  0.80375878  1
  Zn  Zn92  1  0.30746542  0.81730921  0.31988241  1
  Zn  Zn93  1  0.29786980  0.81288452  0.81145221  1
  Zn  Zn94  1  0.82562726  0.36003481  0.28709970  1
  Zn  Zn95  1  0.81983793  0.31548678  0.81062083  1
  Zn  Zn96  1  0.82974963  0.76605168  0.33323235  1
  Zn  Zn97  1  0.81290032  0.81348598  0.81105532  1
  Zn  Zn98  1  0.18706073  0.44064697  0.44038782  1
  Zn  Zn99  1  0.18873231  0.44400529  0.94099197  1
  Zn  Zn100  1  0.18694110  0.93304776  0.43305813  1
  Zn  Zn101  1  0.18572254  0.94033218  0.92980208  1
  Zn  Zn102  1  0.69233247  0.44181369  0.42308799  1
  Zn  Zn103  1  0.68975902  0.43988897  0.94334204  1
  Zn  Zn104  1  0.68813875  0.93233852  0.43749823  1
  Zn  Zn105  1  0.70043866  0.98018117  0.95000237  1
  Zn  Zn106  1  0.31613218  0.06523036  0.05954149  1
  Zn  Zn107  1  0.30873788  0.06280198  0.56067536  1
  Zn  Zn108  1  0.32189661  0.56198840  0.05985335  1
  Zn  Zn109  1  0.31436562  0.56368965  0.56972870  1
  Zn  Zn110  1  0.81532436  0.08972197  0.04375232  1
  Zn  Zn111  1  0.82191549  0.06178140  0.56128718  1
  Zn  Zn112  1  0.79308593  0.56005189  0.09081258  1
  Zn  Zn113  1  0.81117242  0.57190563  0.56445985  1
  Zn  Zn114  1  0.46366817  0.42219277  0.08079902  1
  Zn  Zn115  1  0.43415868  0.43781864  0.68978638  1
  Zn  Zn116  1  0.42900690  0.93914182  0.18898772  1
  Zn  Zn117  1  0.44564561  0.93415921  0.68696579  1
  Zn  Zn118  1  0.93165378  0.43415442  0.16940047  1
  Zn  Zn119  1  0.93769560  0.43627777  0.68446012  1
  Zn  Zn120  1  0.93759218  0.93533083  0.18819807  1
  Zn  Zn121  1  0.94719020  0.93375707  0.68894083  1
  Zn  Zn122  1  0.06646968  0.06573680  0.31046414  1
  Zn  Zn123  1  0.06792403  0.07322482  0.81906120  1
  Zn  Zn124  1  0.06521297  0.56520355  0.31475573  1
  Zn  Zn125  1  0.06781820  0.55240470  0.80931591  1
  Zn  Zn126  1  0.56056294  0.06431974  0.31516244  1
  Zn  Zn127  1  0.55796864  0.05057414  0.80129709  1
  Zn  Zn128  1  0.56319919  0.56344165  0.30738232  1
  Zn  Zn129  1  0.56119062  0.55934765  0.81987631  1
  Zn  Zn130  1  0.42800227  0.19408894  0.44282610  1
  Zn  Zn131  1  0.43569683  0.18326457  0.94505575  1
  Zn  Zn132  1  0.44109938  0.68512214  0.43930497  1
  Zn  Zn133  1  0.43484048  0.69053941  0.94364063  1
  Zn  Zn134  1  0.96552199  0.18157810  0.41966650  1
  Zn  Zn135  1  0.94061896  0.19174178  0.93858789  1
  Zn  Zn136  1  0.93477299  0.67618344  0.43917400  1
  Zn  Zn137  1  0.92957410  0.68253775  0.94488538  1
  Zn  Zn138  1  0.06814160  0.31638543  0.06673566  1
  Zn  Zn139  1  0.06527628  0.31209663  0.56076377  1
  Zn  Zn140  1  0.06605736  0.81475284  0.05883693  1
  Zn  Zn141  1  0.06362754  0.80883336  0.56796858  1
  Zn  Zn142  1  0.66308238  0.34071138  0.08515319  1
  Zn  Zn143  1  0.56208846  0.31183721  0.56186982  1
  Zn  Zn144  1  0.56415509  0.81966434  -0.06695455  1
  Zn  Zn145  1  0.55675233  0.81549255  0.56628129  1
  O  O146  1  0.14196529  0.11719488  0.10450443  1
  O  O147  1  0.11390245  0.12447119  0.62700616  1
  O  O148  1  0.11306067  0.62744268  0.12394638  1
  O  O149  1  0.11501290  0.62325426  0.62487082  1
  O  O150  1  0.60930064  0.10676799  0.13267279  1
  O  O151  1  0.61286205  0.11415793  0.63111633  1
  O  O152  1  0.62003323  0.63622262  0.11126855  1
  O  O153  1  0.61935041  0.61593434  0.61958611  1
  O  O154  1  0.38590998  0.38942613  0.37406203  1
  O  O155  1  0.39384076  0.36419900  0.86898948  1
  O  O156  1  0.38329282  0.88192962  0.38584444  1
  O  O157  1  0.37025995  0.87908073  0.87749457  1
  O  O158  1  0.88205574  0.38004123  0.39105443  1
  O  O159  1  0.88171251  0.38737210  0.87514810  1
  O  O160  1  0.88649935  0.86908466  0.37923605  1
  O  O161  1  0.87307925  0.88276680  0.88452661  1
  O  O162  1  0.26384871  0.00149725  0.38210580  1
  O  O163  1  0.24904883  0.00872414  0.85920537  1
  O  O164  1  0.25271493  0.51199509  0.37176134  1
  O  O165  1  0.24937030  0.50681367  0.86433712  1
  O  O166  1  0.75678280  0.00284931  0.37882891  1
  O  O167  1  0.77036911  0.00050703  0.85663110  1
  O  O168  1  0.72901490  0.50883411  0.34109507  1
  O  O169  1  0.76123432  0.50146101  0.86814486  1
  O  O170  1  0.24806706  0.50155398  0.13798132  1
  O  O171  1  0.24554258  0.49108063  0.62923977  1
  O  O172  1  0.27568783  0.96899550  0.12521728  1
  O  O173  1  0.25608945  1.00197046  0.64219297  1
  O  O174  1  0.73306568  0.46353313  0.12137392  1
  O  O175  1  0.74483680  0.49600347  0.62860156  1
  O  O176  1  0.73429983  0.98851935  0.12529323  1
  O  O177  1  0.74024523  1.00400735  0.62641061  1
  O  O178  1  0.01550665  0.37772050  0.25207069  1
  O  O179  1  -0.00334241  0.36163930  0.74881351  1
  O  O180  1  0.00124105  0.87182255  0.26517687  1
  O  O181  1  0.00731255  0.85732041  0.75142505  1
  O  O182  1  0.49495463  0.35555225  0.26354295  1
  O  O183  1  0.49871332  0.36562298  0.76671153  1
  O  O184  1  0.49189596  0.87965186  0.26704972  1
  O  O185  1  0.52214432  0.88327438  0.75562047  1
  O  O186  1  0.49165315  0.12789533  0.24574197  1
  O  O187  1  0.49253275  0.12059324  0.73739767  1
  O  O188  1  0.48482480  0.63041862  0.23969800  1
  O  O189  1  0.50725136  0.62093963  0.73937551  1
  O  O190  1  0.98971392  0.14530813  0.25661024  1
  O  O191  1  0.99596446  0.13234456  0.73939184  1
  O  O192  1  1.00014098  0.62974861  0.23888692  1
  O  O193  1  0.99383458  0.62963387  0.74892126  1
  O  O194  1  0.37317925  0.26002377  -0.00408915  1
  O  O195  1  0.35875107  0.24975347  0.51471385  1
  O  O196  1  0.36589350  0.76736936  0.00366761  1
  O  O197  1  0.38196511  0.76345922  0.50759100  1
  O  O198  1  0.84444820  0.20834302  -0.00582529  1
  O  O199  1  0.89112229  0.24173072  0.50565678  1
  O  O200  1  0.86722249  0.76002842  0.00618536  1
  O  O201  1  0.86435808  0.74558985  0.51113447  1
  O  O202  1  0.14209729  0.25839716  0.49980836  1
  O  O203  1  0.13375268  0.24098586  1.00415682  1
  O  O204  1  0.13143684  0.76329919  0.48479284  1
  O  O205  1  0.13857746  0.73966374  1.00144196  1
  O  O206  1  0.62122656  0.24206881  0.49229434  1
  O  O207  1  0.63085945  0.25678061  0.99272426  1
  O  O208  1  0.62788775  0.74368427  0.50615535  1
  O  O209  1  0.63881598  0.74861134  0.99249107  1
  O  O210  1  0.50316772  0.23164751  0.13925355  1
  O  O211  1  0.49258189  0.23863100  0.61905340  1
  O  O212  1  0.40919026  0.78636032  0.18077152  1
  O  O213  1  0.49436408  0.74393850  0.63491783  1
  O  O214  1  1.00870678  0.25683296  0.14303204  1
  O  O215  1  0.99824393  0.24037636  0.62955833  1
  O  O216  1  0.98975285  0.74327159  0.11844038  1
  O  O217  1  0.99437693  0.73474573  0.63419622  1
  O  O218  1  -0.00521260  0.27802901  0.35564950  1
  O  O219  1  -0.00469139  0.26220721  0.86065944  1
  O  O220  1  0.01013660  0.75896295  0.38634542  1
  O  O221  1  -0.00814223  0.74251104  0.86704733  1
  O  O222  1  0.50595267  0.25303124  0.37715309  1
  O  O223  1  0.50478791  0.25840365  0.87295839  1
  O  O224  1  0.50643677  0.76332403  0.38020009  1
  O  O225  1  0.49721771  0.75156903  0.87334629  1
  O  O226  1  0.24672541  0.13497288  0.49907857  1
  O  O227  1  0.24674947  0.12334534  0.98963729  1
  O  O228  1  0.24814640  0.62425816  0.49492462  1
  O  O229  1  0.25129891  0.63365643  0.99480272  1
  O  O230  1  0.75499740  0.12159544  0.48845612  1
  O  O231  1  0.72298186  0.09279040  0.97955932  1
  O  O232  1  0.73503922  0.63280651  0.50214645  1
  O  O233  1  0.74553556  0.63475880  0.99745513  1
  O  O234  1  0.24595038  0.38203273  0.01856784  1
  O  O235  1  0.25189571  0.37646299  0.51366744  1
  O  O236  1  0.25587393  0.86351546  -0.00992734  1
  O  O237  1  0.26764411  0.88248221  0.50338525  1
  O  O238  1  0.72929338  0.34591128  -0.01326882  1
  O  O239  1  0.76562164  0.38733404  0.50482617  1
  O  O240  1  0.76004799  0.87506126  0.00705986  1
  O  O241  1  0.75046813  0.86091182  0.50554710  1
  O  O242  1  0.13614058  0.49872069  0.24455054  1
  O  O243  1  0.14302253  0.50978553  0.73331174  1
  O  O244  1  0.11435526  0.98523757  0.25326670  1
  O  O245  1  0.10944603  0.98975977  0.74899181  1
  O  O246  1  0.60975476  0.49792308  0.22896821  1
  O  O247  1  0.63854131  0.50548256  0.73918249  1
  O  O248  1  0.62185302  0.99442058  0.24177381  1
  O  O249  1  0.63880904  0.99417416  0.74165374  1
  O  O250  1  0.37749165  0.00924225  0.26831914  1
  O  O251  1  0.37369917  -0.00414285  0.75265223  1
  O  O252  1  0.35844986  0.50330150  0.26474529  1
  O  O253  1  0.35747499  0.50707262  0.73847451  1
  O  O254  1  0.87675228  -0.00251966  0.26626594  1
  O  O255  1  0.87829246  0.00513499  0.74976271  1
  O  O256  1  0.85768630  0.46803612  0.24743347  1
  O  O257  1  0.86790837  0.50862806  0.74680698  1
  O  O258  1  0.11791560  0.38545784  0.36467827  1
  O  O259  1  0.11105266  0.39094953  0.87244462  1
  O  O260  1  0.11346282  0.87001072  0.37069725  1
  O  O261  1  0.13101263  0.86994861  0.85594195  1
  O  O262  1  0.61428930  0.35919443  0.38451717  1
  O  O263  1  0.60543918  0.37000115  0.87536895  1
  O  O264  1  0.61248693  0.86553571  0.37762976  1
  O  O265  1  0.63721729  0.88791030  0.86878507  1
  O  O266  1  0.38575759  0.11107314  0.14312109  1
  O  O267  1  0.38782914  0.13147780  0.61961857  1
  O  O268  1  0.39644844  0.62853001  0.14045682  1
  O  O269  1  0.38356558  0.64213346  0.62012079  1
  O  O270  1  0.85654276  0.14174575  0.13251332  1
  O  O271  1  0.88705098  0.12924061  0.63161714  1
  O  O272  1  0.88872767  0.63623295  0.11308953  1
  O  O273  1  0.88600057  0.62876155  0.63545738  1
  O  O274  1  0.25098634  0.26986595  0.12874414  1
  O  O275  1  0.25550161  0.26044232  0.62050652  1
  O  O276  1  0.25092170  0.74421602  0.11261542  1
  O  O277  1  0.26379939  0.75165428  0.62981921  1
  O  O278  1  0.72808732  0.25815039  0.12742725  1
  O  O279  1  0.76111166  0.26026843  0.62575498  1
  O  O280  1  0.75841307  0.75920032  0.11510810  1
  O  O281  1  0.76121102  0.73832004  0.62195268  1
  O  O282  1  0.25882583  0.25689016  0.38693687  1
  O  O283  1  0.25008990  0.23592427  0.87166017  1
  O  O284  1  0.24661830  0.73755805  0.37768328  1
  O  O285  1  0.25522482  0.73368085  0.88347977  1
  O  O286  1  0.73562756  0.23897326  0.37665595  1
  O  O287  1  0.75642645  0.23282672  0.84544397  1
  O  O288  1  0.72805452  0.75549975  0.39001671  1
  O  O289  1  0.76404846  0.73744247  0.88371468  1
  O  O290  1  0.01592218  0.11666544  -0.00538849  1
  O  O291  1  -0.00402395  0.10910374  0.51498580  1
  O  O292  1  0.01562618  0.63057436  0.00437184  1
  O  O293  1  -0.00085044  0.62379647  0.51495277  1
  O  O294  1  0.48791136  0.10995673  0.01916853  1
  O  O295  1  0.49577851  0.11315352  0.50269238  1
  O  O296  1  0.51560702  0.63107885  -0.00535851  1
  O  O297  1  0.50748607  0.61747286  0.51347642  1
  O  O298  1  0.50255332  0.38726688  0.49428284  1
  O  O299  1  0.49243647  0.36379893  0.97788835  1
  O  O300  1  0.49056173  0.88658008  0.49607005  1
  O  O301  1  0.48347178  0.88183959  0.99538639  1
  O  O302  1  0.99295534  0.37745155  0.49007070  1
  O  O303  1  1.00553161  0.36622886  0.98431938  1
  O  O304  1  0.99916811  0.88323517  0.49987757  1
  O  O305  1  0.98996696  0.88739036  1.00629421  1
  O  O306  1  0.49618062  0.49593029  0.38182687  1
  O  O307  1  0.50044155  0.47026047  0.87132792  1
  O  O308  1  0.49812663  0.98984541  0.38302704  1
  O  O309  1  0.51006011  1.01272561  0.89457430  1
  O  O310  1  0.99814539  0.48880661  0.36692270  1
  O  O311  1  0.98690864  0.49084047  0.87154078  1
  O  O312  1  0.99332786  0.98457013  0.38770225  1
  O  O313  1  0.99334661  1.00149136  0.87919208  1
  O  O314  1  -0.00682773  0.00523641  0.11464737  1
  O  O315  1  -0.00072310  0.00603712  0.61569776  1
  O  O316  1  0.00868443  0.51584459  0.12826311  1
  O  O317  1  0.01251535  0.51054342  0.63452667  1
  O  O318  1  0.50551944  -0.00202875  0.12502578  1
  O  O319  1  0.50803856  0.01024980  0.61958031  1
  O  O320  1  0.45691226  0.59158450  0.17558471  1
  O  O321  1  0.50653928  0.50179493  0.62180717  1
  O  O322  1  0.24182324  0.38665043  0.24548886  1
  O  O323  1  0.25182375  0.38772242  0.74010368  1
  O  O324  1  0.23792618  0.88221933  0.26119372  1
  O  O325  1  0.24046982  0.89214130  0.74829925  1
  O  O326  1  0.71795348  0.37517819  0.25347715  1
  O  O327  1  0.76409610  0.38637220  0.73177908  1
  O  O328  1  0.75866307  0.87410679  0.23459782  1
  O  O329  1  0.74468297  0.88328048  0.74622724  1
  O  O330  1  0.26441442  0.13272719  0.24719148  1
  O  O331  1  0.24928226  0.11377696  0.75824679  1
  O  O332  1  0.24456817  0.61779357  0.25560842  1
  O  O333  1  0.25078584  0.62101980  0.76551949  1
  O  O334  1  0.75188685  0.11563419  0.26911176  1
  O  O335  1  0.77048472  0.11228977  0.73511424  1
  O  O336  1  0.75976618  0.58997759  0.20764528  1
  O  O337  1  0.75958743  0.61759671  0.75827802  1
  O  O338  1  0.37985770  0.11420211  0.36989763  1
  O  O339  1  0.36248789  0.12261321  0.88040871  1
  O  O340  1  0.36243042  0.61931580  0.38168710  1
  O  O341  1  0.36759386  0.61781806  0.88106156  1
  O  O342  1  0.86740938  0.11603474  0.37550654  1
  O  O343  1  0.88758762  0.11796637  0.85404142  1
  O  O344  1  0.86397602  0.65687563  0.35824532  1
  O  O345  1  0.86957546  0.60981562  0.87100461  1
  O  O346  1  0.13032643  0.38993602  0.13753434  1
  O  O347  1  0.13341667  0.38521957  0.62632356  1
  O  O348  1  0.12244599  0.86292304  0.14471780  1
  O  O349  1  0.12680314  0.85881822  0.64768544  1
  O  O350  1  0.56496880  0.38946258  0.10985701  1
  O  O351  1  0.63676567  0.38412159  0.61600785  1
  O  O352  1  0.63638283  0.87718893  0.12975300  1
  O  O353  1  0.62038576  0.89095806  0.63371333  1
  O  O354  1  0.12574919  0.26614340  0.24927071  1
  O  O355  1  0.11294062  0.24682438  0.74529484  1
  O  O356  1  0.12803557  0.76476837  0.27244600  1
  O  O357  1  0.11119708  0.74120128  0.75872447  1
  O  O358  1  0.60631399  0.23767996  0.26707885  1
  O  O359  1  0.64061937  0.20441692  0.79212209  1
  O  O360  1  0.63183964  0.74132389  0.26431249  1
  O  O361  1  0.62986440  0.76792100  0.75031720  1
  O  O362  1  0.38882900  0.23450825  0.26163831  1
  O  O363  1  0.36751477  0.24801925  0.72679597  1
  O  O364  1  0.37534972  0.75456149  0.23939295  1
  O  O365  1  0.37776869  0.76446673  0.73742845  1
  O  O366  1  0.88227988  0.26661265  0.24365066  1
  O  O367  1  0.88631509  0.24004396  0.73573073  1
  O  O368  1  0.87072356  0.75593329  0.22642642  1
  O  O369  1  0.88210781  0.73895033  0.74703505  1
  O  O370  1  0.38668623  0.50799737  0.49388105  1
  O  O371  1  0.41029606  0.50290394  1.02685505  1
  O  O372  1  0.38292042  0.99416690  0.49202214  1
  O  O373  1  0.38348115  0.98600817  1.00204233  1
  O  O374  1  0.87983592  0.50151632  0.50188629  1
  O  O375  1  0.86744927  0.50339283  0.99406162  1
  O  O376  1  0.88213562  0.99206595  0.49118160  1
  O  O377  1  0.88628150  0.99968222  0.99035874  1
  O  O378  1  0.11081372  -0.00534383  0.00036838  1
  O  O379  1  0.11496508  -0.00537481  0.49986393  1
  O  O380  1  0.13767247  0.51985634  0.01783465  1
  O  O381  1  0.12978461  0.50240274  0.51938142  1
  O  O382  1  0.60471743  -0.01586130  0.01832853  1
  O  O383  1  0.61976453  -0.00629937  0.51195585  1
  O  O384  1  0.62946254  0.51793537  -0.00227365  1
  O  O385  1  0.61820060  0.50750373  0.50630877  1
  O  O386  1  0.36618486  0.38221378  0.13276408  1
  O  O387  1  0.36700416  0.36743206  0.62496291  1
  O  O388  1  0.32907151  0.91210409  0.12737495  1
  O  O389  1  0.38109903  0.86723519  0.61473107  1
  O  O390  1  0.89430999  0.35827504  0.09637648  1
  O  O391  1  0.87514793  0.36923032  0.60691661  1
  O  O392  1  0.86978575  0.86851271  0.11550239  1
  O  O393  1  0.88361105  0.85690776  0.62837672  1
  O  O394  1  0.07129874  0.13802505  0.39279870  1
  O  O395  1  0.13960635  0.12050208  0.89190951  1
  O  O396  1  0.13437660  0.63632397  0.37656645  1
  O  O397  1  0.13045568  0.61498035  0.89006989  1
  O  O398  1  0.63447296  0.12913575  0.37902891  1
  O  O399  1  0.61927772  0.15024533  0.84081697  1
  O  O400  1  0.60520467  0.64128619  0.38654436  1
  O  O401  1  0.64118085  0.62057343  0.87658012  1
