# generated using pymatgen
data_V73Zn73O256
_symmetry_space_group_name_H-M   'P 1'
_cell_length_a   16.92961914
_cell_length_b   17.01508253
_cell_length_c   16.91575000
_cell_angle_alpha   90.03467336
_cell_angle_beta   89.84670292
_cell_angle_gamma   89.93524132
_symmetry_Int_Tables_number   1
_chemical_formula_structural   V73Zn73O256
_chemical_formula_sum   'V73 Zn73 O256'
_cell_volume   4872.71032202
_cell_formula_units_Z   1
loop_
 _symmetry_equiv_pos_site_id
 _symmetry_equiv_pos_as_xyz
  1  'x, y, z'
loop_
 _atom_site_type_symbol
 _atom_site_label
 _atom_site_symmetry_multiplicity
 _atom_site_fract_x
 _atom_site_fract_y
 _atom_site_fract_z
 _atom_site_occupancy
  V  V0  1  0.50109507  0.11955384  0.12324309  1
  V  V1  1  0.88888543  0.74768352  0.12795039  1
  V  V2  1  0.37308128  0.14255526  0.75232302  1
  V  V3  1  0.89342397  0.62999852  0.24918019  1
  V  V4  1  0.74559856  0.74919754  0.00105961  1
  V  V5  1  0.86315364  0.23989764  0.12804299  1
  V  V6  1  0.35265512  0.87145933  0.01480540  1
  V  V7  1  0.12407403  0.38749153  0.75146541  1
  V  V8  1  0.12078192  0.86738117  0.25052454  1
  V  V9  1  0.00553547  0.26405014  0.25484573  1
  V  V10  1  0.35232771  0.53004636  0.36961164  1
  V  V11  1  0.75793510  0.63177209  0.85749175  1
  V  V12  1  0.62496388  0.75145090  0.37574588  1
  V  V13  1  0.50373136  -0.01204908  0.00063006  1
  V  V14  1  0.74637747  0.87376254  0.62873613  1
  V  V15  1  -0.00475517  0.12467600  0.62555066  1
  V  V16  1  0.75660313  0.62312100  0.36785215  1
  V  V17  1  0.74274225  0.34777982  0.64216046  1
  V  V18  1  0.50408288  0.14806224  0.64354600  1
  V  V19  1  0.00072248  0.00397484  -0.00932836  1
  V  V20  1  -0.05336142  0.51846376  -0.00497228  1
  V  V21  1  0.13962201  0.75226139  0.86413405  1
  V  V22  1  0.11849558  0.49334452  0.10913602  1
  V  V23  1  0.50234439  0.74618176  0.75315040  1
  V  V24  1  -0.00913119  0.24721997  0.74777263  1
  V  V25  1  0.12850278  0.13551359  0.49945776  1
  V  V26  1  0.37603541  -0.00113032  0.37442118  1
  V  V27  1  0.00574925  0.87016426  0.86147131  1
  V  V28  1  0.89133575  0.74235222  0.63176508  1
  V  V29  1  0.37313342  0.88170843  0.49766919  1
  V  V30  1  0.62625004  0.76617494  0.86786586  1
  V  V31  1  0.23902296  0.74841605  0.48152950  1
  V  V32  1  0.49927873  0.25343897  0.24471164  1
  V  V33  1  0.14534312  0.63651150  0.00209455  1
  V  V34  1  0.24883052  -0.00865352  0.24796095  1
  V  V35  1  0.63596662  0.22888594  0.36550583  1
  V  V36  1  0.51179237  0.36661883  0.87481948  1
  V  V37  1  0.61506918  0.61714470  0.49525859  1
  V  V38  1  0.75206345  0.38056321  0.12754321  1
  V  V39  1  0.87617897  0.48767026  0.36417199  1
  V  V40  1  0.12819136  -0.00185956  0.12497728  1
  V  V41  1  0.00147872  0.00253240  0.49001236  1
  V  V42  1  0.61025449  0.11508631  0.50192803  1
  V  V43  1  0.87864912  0.87897653  -0.00405852  1
  V  V44  1  -0.03344937  0.36440437  0.88497651  1
  V  V45  1  0.87605310  0.87841676  0.49369426  1
  V  V46  1  0.37238286  0.73091080  0.62218978  1
  V  V47  1  0.37167650  -0.00765233  0.87173534  1
  V  V48  1  0.61363524  -0.00965963  0.63139531  1
  V  V49  1  0.25023642  0.12553570  0.87852353  1
  V  V50  1  0.24536284  0.13220019  0.37557051  1
  V  V51  1  0.26816469  0.38338679  0.62862416  1
  V  V52  1  0.87176542  0.37928588  0.51932911  1
  V  V53  1  0.75231450  0.74775446  0.50125823  1
  V  V54  1  0.74873761  0.88840833  0.13131117  1
  V  V55  1  0.24783463  0.88221456  0.62944272  1
  V  V56  1  0.00152058  0.85836866  0.37052313  1
  V  V57  1  0.36114529  0.25834088  0.11174967  1
  V  V58  1  0.13079626  0.24991034  0.87923328  1
  V  V59  1  0.49258660  0.74689760  0.24604697  1
  V  V60  1  0.13371523  0.00088378  0.63314327  1
  V  V61  1  0.63353360  0.38210693  0.25455549  1
  V  V62  1  0.87551821  0.11522870  0.75608310  1
  V  V63  1  0.77587805  0.51242889  0.74022022  1
  V  V64  1  -0.00699607  0.11832807  0.14046680  1
  V  V65  1  0.74554579  0.12224096  0.87410399  1
  V  V66  1  0.74815884  -0.00531049  0.75300913  1
  V  V67  1  0.00707095  0.50186672  0.50928636  1
  V  V68  1  0.62568618  0.50573804  0.63299075  1
  V  V69  1  0.50042733  0.87937582  0.38098608  1
  V  V70  1  0.49514767  0.37409912  0.38104285  1
  V  V71  1  0.62815078  0.12737961  -0.00003015  1
  V  V72  1  0.78223385  0.21259188  0.48437192  1
  Zn  Zn73  1  0.13163278  0.12962271  0.00491694  1
  Zn  Zn74  1  0.12412609  0.62621425  0.48023565  1
  Zn  Zn75  1  0.37148450  0.12427054  0.24555075  1
  Zn  Zn76  1  0.31275644  0.44071995  0.03808978  1
  Zn  Zn77  1  0.28260740  0.26228547  0.51781979  1
  Zn  Zn78  1  0.75525028  0.26133303  -0.01331110  1
  Zn  Zn79  1  0.62961475  0.88070588  0.24558415  1
  Zn  Zn80  1  0.48814387  0.48823347  0.50634501  1
  Zn  Zn81  1  0.61165956  0.51217671  0.10314366  1
  Zn  Zn82  1  0.18315667  0.18398300  0.18919526  1
  Zn  Zn83  1  0.18970213  0.19690323  0.69325234  1
  Zn  Zn84  1  0.14075691  0.66437285  0.19813766  1
  Zn  Zn85  1  0.21283918  0.70904499  0.69812410  1
  Zn  Zn86  1  0.67880655  0.17619110  0.19192455  1
  Zn  Zn87  1  0.70290682  0.17543389  0.66773143  1
  Zn  Zn88  1  0.68073634  0.68791486  0.19282034  1
  Zn  Zn89  1  0.68142331  0.68828235  0.68158138  1
  Zn  Zn90  1  0.31719031  0.31081465  0.30846401  1
  Zn  Zn91  1  0.30817317  0.42167073  0.83317573  1
  Zn  Zn92  1  0.29956075  0.70463956  0.28742858  1
  Zn  Zn93  1  0.32508662  0.81149813  0.80774407  1
  Zn  Zn94  1  0.81904141  0.29878514  0.30722197  1
  Zn  Zn95  1  0.79725126  0.30085253  0.79778668  1
  Zn  Zn96  1  0.81648156  0.81266208  0.31086822  1
  Zn  Zn97  1  0.82126416  0.81421151  0.81066865  1
  Zn  Zn98  1  0.19843500  0.43559863  0.44516313  1
  Zn  Zn99  1  0.15876006  0.41743716  0.96123164  1
  Zn  Zn100  1  0.18650606  0.94074929  0.43685605  1
  Zn  Zn101  1  0.18818416  0.93749189  0.93262794  1
  Zn  Zn102  1  0.69273746  0.43316083  0.43160875  1
  Zn  Zn103  1  0.74413899  0.46555151  0.95649358  1
  Zn  Zn104  1  0.68369635  0.93988360  0.44331219  1
  Zn  Zn105  1  0.68902579  0.93999423  0.93976066  1
  Zn  Zn106  1  0.31615855  0.06400368  0.06127518  1
  Zn  Zn107  1  0.34180991  0.09275976  0.54621615  1
  Zn  Zn108  1  0.29456228  0.59733250  0.12006646  1
  Zn  Zn109  1  0.30266507  0.55644578  0.54890613  1
  Zn  Zn110  1  0.81575915  0.06140135  0.06004641  1
  Zn  Zn111  1  0.81195992  0.05694115  0.55928542  1
  Zn  Zn112  1  0.77921851  0.58311192  0.08545680  1
  Zn  Zn113  1  0.81765334  0.56390677  0.55787049  1
  Zn  Zn114  1  0.41502530  0.45845046  0.16916724  1
  Zn  Zn115  1  0.44389258  0.44471322  0.69313909  1
  Zn  Zn116  1  0.43741484  0.92717932  0.19168446  1
  Zn  Zn117  1  0.42986289  0.92236574  0.69768615  1
  Zn  Zn118  1  0.93133457  0.43542650  0.17701377  1
  Zn  Zn119  1  0.94534529  0.43777762  0.69037076  1
  Zn  Zn120  1  0.93089824  0.93776445  0.19029872  1
  Zn  Zn121  1  0.93574408  0.93682123  0.67830833  1
  Zn  Zn122  1  0.06593617  0.06239509  0.31369380  1
  Zn  Zn123  1  0.06663870  0.06209777  0.81102829  1
  Zn  Zn124  1  0.04837684  0.52792990  0.30286027  1
  Zn  Zn125  1  0.07557084  0.54206094  0.86734359  1
  Zn  Zn126  1  0.56210299  0.05995416  0.30570310  1
  Zn  Zn127  1  0.56125614  0.05575459  0.81644000  1
  Zn  Zn128  1  0.52458048  0.53734718  0.27596571  1
  Zn  Zn129  1  0.58125545  0.57306447  0.92730699  1
  Zn  Zn130  1  0.44430904  0.18861180  0.43180613  1
  Zn  Zn131  1  0.43625875  0.18377338  0.93914265  1
  Zn  Zn132  1  0.43264887  0.69257421  0.43328516  1
  Zn  Zn133  1  0.43847738  0.70219885  0.94255557  1
  Zn  Zn134  1  0.95015636  0.19480626  0.44000192  1
  Zn  Zn135  1  0.93136663  0.18425264  0.93796110  1
  Zn  Zn136  1  0.93932355  0.68244276  0.44301138  1
  Zn  Zn137  1  0.93383273  0.70163503  0.92706225  1
  Zn  Zn138  1  0.04827710  0.30460619  0.06300178  1
  Zn  Zn139  1  0.06104707  0.31691343  0.56538279  1
  Zn  Zn140  1  0.06853773  0.81667351  0.05791788  1
  Zn  Zn141  1  0.06671464  0.81599544  0.55909396  1
  Zn  Zn142  1  0.57259809  0.30792067  0.07087241  1
  Zn  Zn143  1  0.57773994  0.30811179  0.55471597  1
  Zn  Zn144  1  0.56876917  0.81611681  0.06491144  1
  Zn  Zn145  1  0.55727839  0.80797066  0.56352777  1
  O  O146  1  0.10962342  0.11584537  0.12173951  1
  O  O147  1  0.12236449  0.11529998  0.61998371  1
  O  O148  1  0.10669664  0.61178786  0.10239016  1
  O  O149  1  0.12994590  0.63211762  0.63340004  1
  O  O150  1  0.61540941  0.11908803  0.11392962  1
  O  O151  1  0.61174493  0.11291654  0.63185842  1
  O  O152  1  0.67188312  0.60639760  0.12133084  1
  O  O153  1  0.62674133  0.61617896  0.60687900  1
  O  O154  1  0.39489072  0.36074668  0.37655070  1
  O  O155  1  0.40569544  0.36204227  0.87620737  1
  O  O156  1  0.38407554  0.88378804  0.38350122  1
  O  O157  1  0.36057659  0.89221590  0.88912786  1
  O  O158  1  0.86105927  0.38882346  0.36916965  1
  O  O159  1  0.86755125  0.36015470  0.86933046  1
  O  O160  1  0.88789314  0.87061609  0.38239359  1
  O  O161  1  0.89118601  0.86954811  0.88623099  1
  O  O162  1  0.25689924  0.00463882  0.36595811  1
  O  O163  1  0.26114551  0.01171482  0.87741549  1
  O  O164  1  0.25486046  0.50716002  0.37517826  1
  O  O165  1  0.26891963  0.58486108  0.81931999  1
  O  O166  1  0.71221243  -0.00178509  0.34515686  1
  O  O167  1  0.74634445  0.00718888  0.86321044  1
  O  O168  1  0.76671958  0.51345120  0.38317727  1
  O  O169  1  0.75481117  0.52170660  0.85376445  1
  O  O170  1  0.21920393  0.49537941  0.11472104  1
  O  O171  1  0.24983477  0.48507657  0.61903562  1
  O  O172  1  0.23758362  1.01356802  0.13442989  1
  O  O173  1  0.23972834  0.99316010  0.61682486  1
  O  O174  1  0.76788154  0.47594465  0.13766908  1
  O  O175  1  0.74595058  0.51162817  0.63284525  1
  O  O176  1  0.76082693  0.98693104  0.12540728  1
  O  O177  1  0.74069935  0.99022671  0.63127738  1
  O  O178  1  -0.00803631  0.36262390  0.24082204  1
  O  O179  1  -0.00549007  0.36337318  0.76330517  1
  O  O180  1  0.00466983  0.88156854  0.26395695  1
  O  O181  1  -0.00445064  0.88789176  0.76416180  1
  O  O182  1  0.51482537  0.36582494  0.26459514  1
  O  O183  1  0.50640839  0.36654697  0.77063681  1
  O  O184  1  0.51129555  0.87185966  0.26363527  1
  O  O185  1  0.43744666  0.82936034  0.76644561  1
  O  O186  1  0.50270049  0.13168797  0.23876403  1
  O  O187  1  0.49647756  0.12634263  0.74947100  1
  O  O188  1  0.50974064  0.64843521  0.26340597  1
  O  O189  1  0.46655286  0.65866336  0.76285406  1
  O  O190  1  1.00042652  0.12329756  0.24058611  1
  O  O191  1  0.99373741  0.12555848  0.74584258  1
  O  O192  1  0.99273355  0.62565525  0.25025249  1
  O  O193  1  1.07124909  0.61566063  0.67553772  1
  O  O194  1  0.37539155  0.24466713  0.01279436  1
  O  O195  1  0.37274537  0.20102327  0.51361997  1
  O  O196  1  0.37499719  0.77417024  -0.00793656  1
  O  O197  1  0.36555514  0.75998246  0.50665826  1
  O  O198  1  0.86489965  0.23165733  0.01905827  1
  O  O199  1  0.87751491  0.27662758  0.49130272  1
  O  O200  1  0.86783156  0.76220375  0.00739280  1
  O  O201  1  0.86795947  0.75995165  0.50312390  1
  O  O202  1  0.12051847  0.23579154  0.50601966  1
  O  O203  1  0.10934771  0.24288691  0.98215317  1
  O  O204  1  0.13475397  0.75375069  0.49143095  1
  O  O205  1  0.12320896  0.74083809  0.99629990  1
  O  O206  1  0.62841966  0.22832374  0.48545079  1
  O  O207  1  0.63656674  0.23012881  1.00873113  1
  O  O208  1  0.63119356  0.73959158  0.49785544  1
  O  O209  1  0.63917976  0.76248182  0.98773290  1
  O  O210  1  0.49371043  0.24437518  0.12813946  1
  O  O211  1  0.51986832  0.24519349  0.63623468  1
  O  O212  1  0.51818418  0.76181397  0.14776677  1
  O  O213  1  0.48044951  0.75559856  0.63656007  1
  O  O214  1  0.98882041  0.23194907  0.12841714  1
  O  O215  1  1.00869328  0.23437363  0.63675460  1
  O  O216  1  0.98640998  0.75313320  0.11522370  1
  O  O217  1  0.99020876  0.75986510  0.61745048  1
  O  O218  1  -0.00432023  0.24612147  0.35458840  1
  O  O219  1  -0.00478334  0.25060546  0.86493050  1
  O  O220  1  0.00217187  0.76059783  0.37854306  1
  O  O221  1  0.00941800  0.76650449  0.87305347  1
  O  O222  1  0.51350958  0.24931540  0.36399209  1
  O  O223  1  0.50996064  0.26158710  0.88020726  1
  O  O224  1  0.50738305  0.76124687  0.37176036  1
  O  O225  1  0.52198191  0.75447054  0.87179150  1
  O  O226  1  0.24120739  0.11709439  0.48564042  1
  O  O227  1  0.24915955  0.12327189  0.98540486  1
  O  O228  1  0.23802894  0.64211059  0.50143675  1
  O  O229  1  0.24274159  0.63200717  1.01077993  1
  O  O230  1  0.72264021  0.12182629  0.51894750  1
  O  O231  1  0.73716209  0.10925560  0.99191496  1
  O  O232  1  0.74979413  0.63669447  0.49085545  1
  O  O233  1  0.75797253  0.64951304  0.98414014  1
  O  O234  1  0.26826887  0.42224828  -0.06132865  1
  O  O235  1  0.25258086  0.37050606  0.51746266  1
  O  O236  1  0.25261270  0.88290371  0.00957643  1
  O  O237  1  0.25713946  0.87048400  0.49796619  1
  O  O238  1  0.74193802  0.36851316  0.02115679  1
  O  O239  1  0.76664767  0.38720436  0.50972315  1
  O  O240  1  0.76147208  0.87434784  0.00532172  1
  O  O241  1  0.75784344  0.87037385  0.50368455  1
  O  O242  1  0.08917366  0.48961466  0.20620589  1
  O  O243  1  0.10344716  0.48360679  0.77441396  1
  O  O244  1  0.12904446  0.99726651  0.24219285  1
  O  O245  1  0.12511473  1.00316463  0.73222450  1
  O  O246  1  0.63785015  0.47869214  0.27179505  1
  O  O247  1  0.63129078  0.50912012  0.72990666  1
  O  O248  1  0.65465788  0.99160659  0.28633790  1
  O  O249  1  0.63793662  1.00138195  0.74495947  1
  O  O250  1  0.36501348  -0.00287761  0.25579421  1
  O  O251  1  0.38366880  -0.00050721  0.77052384  1
  O  O252  1  0.38670825  0.49760473  0.27827678  1
  O  O253  1  0.38487218  0.48342964  0.77909015  1
  O  O254  1  0.87747589  0.01233774  0.25104368  1
  O  O255  1  0.86333658  0.00657215  0.74008887  1
  O  O256  1  0.88331416  0.50902374  0.25925275  1
  O  O257  1  0.87431952  0.51713186  0.73692466  1
  O  O258  1  0.16542626  0.37159554  0.33978196  1
  O  O259  1  0.10775463  0.35915726  0.87132272  1
  O  O260  1  0.11078474  0.88241512  0.36409737  1
  O  O261  1  0.11550565  0.86601872  0.87888018  1
  O  O262  1  0.63084390  0.35312146  0.36648493  1
  O  O263  1  0.61404745  0.36841322  0.86542512  1
  O  O264  1  0.61535657  0.86274674  0.39017141  1
  O  O265  1  0.63682646  0.86574482  0.86839040  1
  O  O266  1  0.38669132  0.13311252  0.12589743  1
  O  O267  1  0.39514622  0.11436529  0.64676468  1
  O  O268  1  0.47162845  0.61313034  0.11112018  1
  O  O269  1  0.37499169  0.63498409  0.60172819  1
  O  O270  1  0.88666440  0.12368539  0.12630525  1
  O  O271  1  0.88958347  0.11536199  0.63159009  1
  O  O272  1  0.86892557  0.64155561  0.13371117  1
  O  O273  1  0.87627105  0.64491326  0.61164844  1
  O  O274  1  0.26368059  0.23710132  0.12943039  1
  O  O275  1  0.24138577  0.27386690  0.63055934  1
  O  O276  1  0.25585241  0.67207309  0.18947560  1
  O  O277  1  0.25200042  0.76838280  0.60334665  1
  O  O278  1  0.75937985  0.23438363  0.13396808  1
  O  O279  1  0.75859379  0.25148106  0.58621723  1
  O  O280  1  0.75434056  0.75987265  0.10848363  1
  O  O281  1  0.75098231  0.75732691  0.61410981  1
  O  O282  1  0.26028049  0.23107042  0.37345311  1
  O  O283  1  0.23104244  0.24502671  0.87545065  1
  O  O284  1  0.25574280  0.75658316  0.38349469  1
  O  O285  1  0.23970169  0.76181498  0.87034168  1
  O  O286  1  0.75221912  0.25754563  0.39629438  1
  O  O287  1  0.75207616  0.22741072  0.87596800  1
  O  O288  1  0.74641788  0.74949941  0.38574959  1
  O  O289  1  0.74656942  0.75561356  0.87815636  1
  O  O290  1  -0.00067562  0.10949304  0.00111057  1
  O  O291  1  0.00860893  0.12067775  0.50845192  1
  O  O292  1  -0.02677992  0.61436620  -0.01241399  1
  O  O293  1  0.00984313  0.60997534  0.49369148  1
  O  O294  1  0.51151972  0.12112590  0.00488395  1
  O  O295  1  0.50732025  0.12293855  0.53221518  1
  O  O296  1  0.51266130  0.64081705  0.05770767  1
  O  O297  1  0.51457606  0.62369582  0.48661367  1
  O  O298  1  0.51278603  0.36867407  0.48516732  1
  O  O299  1  0.51750527  0.36549539  0.98050635  1
  O  O300  1  0.48656063  0.86823313  0.49316459  1
  O  O301  1  0.49951844  0.88778504  1.00497814  1
  O  O302  1  0.98385841  0.38388909  0.50996134  1
  O  O303  1  0.97425274  0.34952937  0.98325820  1
  O  O304  1  0.99778145  0.88288401  0.48569942  1
  O  O305  1  0.99627853  0.88672837  0.99578420  1
  O  O306  1  0.50942700  0.47703352  0.37730985  1
  O  O307  1  0.50673684  0.47000772  0.88091320  1
  O  O308  1  0.48878727  0.98966310  0.36584012  1
  O  O309  1  0.48513718  1.00619711  0.89168382  1
  O  O310  1  0.98090605  0.49305996  0.38620723  1
  O  O311  1  0.98018545  0.47661564  0.89760516  1
  O  O312  1  0.99949554  1.00573065  0.38796725  1
  O  O313  1  1.01128587  0.99135897  0.88635842  1
  O  O314  1  0.00506738  0.00833718  0.11841638  1
  O  O315  1  0.01223317  0.00527847  0.61537974  1
  O  O316  1  -0.01731578  0.48551908  0.08639717  1
  O  O317  1  -0.00540422  0.50091254  0.60963651  1
  O  O318  1  0.49148153  0.00946745  0.11302130  1
  O  O319  1  0.51454912  -0.02281593  0.64492834  1
  O  O320  1  0.52159076  0.49650664  0.16720936  1
  O  O321  1  0.52048022  0.48513730  0.61890072  1
  O  O322  1  0.21651226  0.37183557  0.28242947  1
  O  O323  1  0.23146078  0.38569762  0.74933987  1
  O  O324  1  0.22901777  0.88804376  0.25365549  1
  O  O325  1  0.25433402  0.87296659  0.72734070  1
  O  O326  1  0.73871783  0.35513929  0.24206264  1
  O  O327  1  0.76496287  0.40453277  0.73756272  1
  O  O328  1  0.75469606  0.86865409  0.23385670  1
  O  O329  1  0.75955962  0.88252566  0.73785877  1
  O  O330  1  0.24748653  0.11412622  0.26252934  1
  O  O331  1  0.26340760  0.13218756  0.76064954  1
  O  O332  1  0.17177435  0.62754580  0.30832752  1
  O  O333  1  0.23635676  0.58950569  0.75345216  1
  O  O334  1  0.68829384  0.16187574  0.30548887  1
  O  O335  1  0.75679966  0.11466568  0.75245849  1
  O  O336  1  0.76313460  0.63695244  0.26561502  1
  O  O337  1  0.74921061  0.62522415  0.74935277  1
  O  O338  1  0.36809524  0.11222411  0.36907868  1
  O  O339  1  0.37060470  0.12145057  0.86799480  1
  O  O340  1  0.36130023  0.63368538  0.36433112  1
  O  O341  1  0.47495245  0.60099980  0.93831645  1
  O  O342  1  0.84911272  0.13936462  0.45781743  1
  O  O343  1  0.86655950  0.11851429  0.86397044  1
  O  O344  1  0.87314337  0.62236842  0.36761366  1
  O  O345  1  0.85695378  0.64875276  0.86249661  1
  O  O346  1  0.11542820  0.39376814  0.06908011  1
  O  O347  1  0.10934428  0.37814216  0.65110122  1
  O  O348  1  0.11014063  0.89000025  0.13843500  1
  O  O349  1  0.13573824  0.89009362  0.61485534  1
  O  O350  1  0.63595547  0.37748463  0.13829299  1
  O  O351  1  0.64884579  0.38726718  0.61284449  1
  O  O352  1  0.64418110  0.88015219  0.12539889  1
  O  O353  1  0.63815826  0.87630023  0.61516501  1
  O  O354  1  0.10440447  0.24884492  0.23505353  1
  O  O355  1  0.11028171  0.25516152  0.76326737  1
  O  O356  1  0.11856598  0.77055281  0.23893441  1
  O  O357  1  0.12830772  0.74432063  0.76402694  1
  O  O358  1  0.60914938  0.26034598  0.24277608  1
  O  O359  1  0.70909909  0.27982797  0.71580643  1
  O  O360  1  0.63038533  0.75831900  0.26768729  1
  O  O361  1  0.61298307  0.75143891  0.75193936  1
  O  O362  1  0.38604552  0.24959139  0.23824113  1
  O  O363  1  0.37953549  0.23687283  0.74926623  1
  O  O364  1  0.39427408  0.76184253  0.25223896  1
  O  O365  1  0.32918386  0.72745294  0.71821735  1
  O  O366  1  0.88654363  0.23971425  0.23635669  1
  O  O367  1  0.88261297  0.23148037  0.74763934  1
  O  O368  1  0.87807121  0.74764585  0.23546775  1
  O  O369  1  0.87450406  0.75433986  0.73055554  1
  O  O370  1  0.38152552  0.51269109  0.47246132  1
  O  O371  1  0.37019458  0.52460594  1.08509382  1
  O  O372  1  0.36868646  0.99439646  0.48658220  1
  O  O373  1  0.38268742  0.99281869  0.99562477  1
  O  O374  1  0.88345153  0.49153177  0.49282688  1
  O  O375  1  0.84492406  0.51330614  1.00141892  1
  O  O376  1  0.88606407  0.98422055  0.50974378  1
  O  O377  1  0.89149854  0.99158642  1.00383607  1
  O  O378  1  0.11451730  -0.00050585  0.00838336  1
  O  O379  1  0.11733157  0.01055626  0.50460739  1
  O  O380  1  0.11487886  0.52662840  -0.01539797  1
  O  O381  1  0.10853454  0.49012352  0.49006154  1
  O  O382  1  0.60915506  0.00466197  -0.00419007  1
  O  O383  1  0.62264985  0.00759926  0.51569541  1
  O  O384  1  0.64076172  0.50391639  -0.00755929  1
  O  O385  1  0.63090952  0.51327501  0.49684101  1
  O  O386  1  0.36488027  0.36367122  0.11929145  1
  O  O387  1  0.36767395  0.37944876  0.63761962  1
  O  O388  1  0.37256560  0.88092919  0.11326804  1
  O  O389  1  0.36137220  0.88033248  0.61235610  1
  O  O390  1  0.86020244  0.35081006  0.13037909  1
  O  O391  1  0.86220774  0.37361847  0.62430933  1
  O  O392  1  0.87050630  0.86497261  0.11771715  1
  O  O393  1  0.86607658  0.86591448  0.61315077  1
  O  O394  1  0.13807098  0.12233310  0.38169981  1
  O  O395  1  0.13216097  0.13317747  0.87175408  1
  O  O396  1  0.11569068  0.60525486  0.36132413  1
  O  O397  1  0.12210213  0.64376672  0.88837289  1
  O  O398  1  0.59043205  0.11753513  0.40161747  1
  O  O399  1  0.62963164  0.11894256  0.88900514  1
  O  O400  1  0.63924606  0.63669914  0.38668380  1
  O  O401  1  0.64738238  0.64914004  0.87276624  1
