# generated using pymatgen
data_V73Zn73O256
_symmetry_space_group_name_H-M   'P 1'
_cell_length_a   16.95186424
_cell_length_b   16.90956867
_cell_length_c   16.83224707
_cell_angle_alpha   90.49388088
_cell_angle_beta   90.21695266
_cell_angle_gamma   90.03450012
_symmetry_Int_Tables_number   1
_chemical_formula_structural   V73Zn73O256
_chemical_formula_sum   'V73 Zn73 O256'
_cell_volume   4824.72713941
_cell_formula_units_Z   1
loop_
 _symmetry_equiv_pos_site_id
 _symmetry_equiv_pos_as_xyz
  1  'x, y, z'
loop_
 _atom_site_type_symbol
 _atom_site_label
 _atom_site_symmetry_multiplicity
 _atom_site_fract_x
 _atom_site_fract_y
 _atom_site_fract_z
 _atom_site_occupancy
  V  V0  1  0.49987397  0.12728208  0.12789781  1
  V  V1  1  0.25408024  0.26669653  0.00128051  1
  V  V2  1  0.50649873  0.12437224  0.62573429  1
  V  V3  1  0.11278161  0.87527331  0.24560795  1
  V  V4  1  0.86185445  0.86341959  0.51291388  1
  V  V5  1  0.25694068  0.62143635  0.37139758  1
  V  V6  1  0.74184023  0.23787376  0.48284356  1
  V  V7  1  0.11347047  0.63251169  0.50290074  1
  V  V8  1  0.63059151  0.36027622  0.25386705  1
  V  V9  1  0.12523471  0.13386116  0.48401920  1
  V  V10  1  0.63078119  0.24535930  0.88002161  1
  V  V11  1  0.50491015  -0.00520906  0.49469438  1
  V  V12  1  0.25957153  0.12098514  0.88404285  1
  V  V13  1  0.49229527  0.25156364  0.75041082  1
  V  V14  1  0.75090939  0.74302420  0.00234539  1
  V  V15  1  0.87241379  0.37163469  0.49827579  1
  V  V16  1  0.87588001  0.87249026  0.00180782  1
  V  V17  1  0.50427305  0.87610147  0.87276917  1
  V  V18  1  0.13577473  -0.00196875  0.63738788  1
  V  V19  1  0.11088225  0.24149749  0.87704176  1
  V  V20  1  0.00769215  0.86841830  0.86796996  1
  V  V21  1  0.49447889  0.62639573  0.12979697  1
  V  V22  1  0.49320093  0.74531351  0.74468194  1
  V  V23  1  -0.00420279  0.00488186  0.49608429  1
  V  V24  1  0.86575190  0.00372669  0.87216961  1
  V  V25  1  0.62438330  0.75992560  0.36429282  1
  V  V26  1  0.74494387  0.87592210  0.13987328  1
  V  V27  1  0.25406677  0.86811304  0.13761456  1
  V  V28  1  0.63539976  0.12506301  -0.00246744  1
  V  V29  1  0.13776132  0.73590122  0.88243567  1
  V  V30  1  0.89438962  0.62747345  0.25207274  1
  V  V31  1  0.36734318  0.12370723  0.74732101  1
  V  V32  1  0.49037983  0.75977107  0.24850402  1
  V  V33  1  0.01025052  -0.00287099  0.01434449  1
  V  V34  1  0.75171618  0.63054330  0.37527460  1
  V  V35  1  0.88305921  0.36453078  -0.01577465  1
  V  V36  1  0.62971335  -0.00042018  0.13898765  1
  V  V37  1  0.62523815  0.50141402  0.61815862  1
  V  V38  1  0.32232617  -0.06609009  0.81839393  1
  V  V39  1  0.38741726  0.36906939  0.50726952  1
  V  V40  1  0.13461235  0.49367683  0.63288933  1
  V  V41  1  0.12119017  0.61205801  0.01202638  1
  V  V42  1  0.37019218  0.12896252  0.25317716  1
  V  V43  1  0.87144868  0.62459251  0.73534730  1
  V  V44  1  0.48958595  0.38664947  0.89073274  1
  V  V45  1  0.62772023  0.61884048  -0.00424037  1
  V  V46  1  0.85693300  0.00840349  0.36972710  1
  V  V47  1  0.36251828  0.87631921  0.51262126  1
  V  V48  1  0.88734127  0.74448202  0.13268963  1
  V  V49  1  -0.00227879  0.86298498  0.37906975  1
  V  V50  1  0.00550504  0.36342703  0.36491342  1
  V  V51  1  0.63081427  -0.01589393  0.63504541  1
  V  V52  1  0.37860823  0.26649100  0.12338674  1
  V  V53  1  0.63253286  0.63228410  0.49945494  1
  V  V54  1  -0.00226630  0.50214470  0.50934912  1
  V  V55  1  0.25338816  0.75098107  0.51349035  1
  V  V56  1  0.25350126  0.49473591  0.23856526  1
  V  V57  1  0.37120594  0.86360403  0.01031902  1
  V  V58  1  0.62294834  0.37984198  0.74949005  1
  V  V59  1  0.62368156  0.49872680  0.11955227  1
  V  V60  1  0.36123402  -0.00721242  0.37039040  1
  V  V61  1  -0.00310067  0.12610227  0.63968433  1
  V  V62  1  0.76174241  0.35844329  0.10971744  1
  V  V63  1  0.63310478  0.75234445  0.87049463  1
  V  V64  1  0.87353311  0.24139049  0.63357454  1
  V  V65  1  0.48728900  0.62386848  0.62042683  1
  V  V66  1  0.27209645  0.52768591  0.75574719  1
  V  V67  1  0.75678806  0.50143847  0.23440338  1
  V  V68  1  0.87560848  0.50225946  0.37328084  1
  V  V69  1  0.74852041  0.37548232  0.62790883  1
  V  V70  1  0.49799325  -0.00137960  -0.00201062  1
  V  V71  1  0.88707116  0.15856749  0.19608131  1
  V  V72  1  0.86633726  0.50885961  0.87419975  1
  Zn  Zn73  1  0.75158814  0.02593116  0.75158419  1
  Zn  Zn74  1  0.01271201  0.38513767  0.83806405  1
  Zn  Zn75  1  0.22596358  0.01515068  0.24326493  1
  Zn  Zn76  1  0.13260870  0.11276068  0.00524457  1
  Zn  Zn77  1  0.12373229  0.74687173  0.37111803  1
  Zn  Zn78  1  0.24675262  0.25120832  0.51648125  1
  Zn  Zn79  1  0.09945847  0.50477636  0.13992295  1
  Zn  Zn80  1  1.00037840  0.74704524  0.74141174  1
  Zn  Zn81  1  0.46136476  0.30608823  0.30134584  1
  Zn  Zn82  1  0.18310008  0.33175831  0.17247276  1
  Zn  Zn83  1  0.17998485  0.18116335  0.69216494  1
  Zn  Zn84  1  0.18177844  0.69022677  0.18878372  1
  Zn  Zn85  1  0.15829694  0.68896728  0.68395217  1
  Zn  Zn86  1  0.70087120  0.17877364  0.18578308  1
  Zn  Zn87  1  0.68497388  0.19122272  0.68277991  1
  Zn  Zn88  1  0.69038807  0.68636127  0.18714369  1
  Zn  Zn89  1  0.68906973  0.68413187  0.69408765  1
  Zn  Zn90  1  0.28590466  0.34346411  0.34944554  1
  Zn  Zn91  1  0.27166456  0.34343310  0.67428950  1
  Zn  Zn92  1  0.30862029  0.80593548  0.31963249  1
  Zn  Zn93  1  0.28495541  0.73879798  0.77404050  1
  Zn  Zn94  1  0.81972448  0.30929023  0.30195343  1
  Zn  Zn95  1  0.81258086  0.30932910  0.81605976  1
  Zn  Zn96  1  0.81693542  0.81233216  0.32147338  1
  Zn  Zn97  1  0.82376016  0.80093912  0.81635439  1
  Zn  Zn98  1  0.18338847  0.43772105  0.44511819  1
  Zn  Zn99  1  0.27850809  0.40652708  0.87124930  1
  Zn  Zn100  1  0.18027018  0.94303377  0.44001529  1
  Zn  Zn101  1  0.18732934  0.92712511  0.94247780  1
  Zn  Zn102  1  0.68728318  0.43879062  0.43627783  1
  Zn  Zn103  1  0.69167490  0.43641358  0.92907965  1
  Zn  Zn104  1  0.68740322  0.93436017  0.44276335  1
  Zn  Zn105  1  0.68809570  0.93621745  0.94594625  1
  Zn  Zn106  1  0.31551190  0.05001546  0.07214207  1
  Zn  Zn107  1  0.30832108  0.06853830  0.55819641  1
  Zn  Zn108  1  0.30144833  0.58088188  0.06510205  1
  Zn  Zn109  1  0.30973267  0.55234823  0.55013015  1
  Zn  Zn110  1  0.81548718  0.06027709  0.06767666  1
  Zn  Zn111  1  0.80779629  0.05873569  0.55660700  1
  Zn  Zn112  1  0.93843316  0.54913483  0.05626336  1
  Zn  Zn113  1  0.80584309  0.55824456  0.56222523  1
  Zn  Zn114  1  0.40262918  0.48191813  0.36922747  1
  Zn  Zn115  1  0.43537686  0.44208989  0.68740408  1
  Zn  Zn116  1  0.44259912  0.93948835  0.18862085  1
  Zn  Zn117  1  0.44433807  0.93499312  0.68513977  1
  Zn  Zn118  1  0.97704044  0.38550789  0.15280412  1
  Zn  Zn119  1  0.93624493  0.43951153  0.69331197  1
  Zn  Zn120  1  0.93195968  0.93689436  0.19322484  1
  Zn  Zn121  1  0.93864180  0.94163745  0.68951782  1
  Zn  Zn122  1  0.04276066  0.06248552  0.30541348  1
  Zn  Zn123  1  0.05992192  0.05884539  0.82251794  1
  Zn  Zn124  1  0.06999455  0.55178687  0.32120372  1
  Zn  Zn125  1  0.05207899  0.56544120  0.81614399  1
  Zn  Zn126  1  0.55581442  0.06917197  0.31582535  1
  Zn  Zn127  1  0.56529991  0.06091539  0.80982648  1
  Zn  Zn128  1  0.56990450  0.55455867  0.30196660  1
  Zn  Zn129  1  0.56178184  0.56262947  0.80994981  1
  Zn  Zn130  1  0.42832640  0.18173236  0.44652764  1
  Zn  Zn131  1  0.43870534  0.18953191  0.93672428  1
  Zn  Zn132  1  0.46616846  0.64464298  0.40948310  1
  Zn  Zn133  1  0.45184046  0.69402580  0.94538672  1
  Zn  Zn134  1  0.93247172  0.18602920  0.43764989  1
  Zn  Zn135  1  0.92892243  0.17481042  0.97231427  1
  Zn  Zn136  1  0.93957100  0.69550278  0.56833223  1
  Zn  Zn137  1  0.94223479  0.68161514  0.93529894  1
  Zn  Zn138  1  0.09992191  0.39166761  0.00291684  1
  Zn  Zn139  1  0.05824574  0.31326514  0.57075245  1
  Zn  Zn140  1  0.06663107  0.81083307  0.06148757  1
  Zn  Zn141  1  0.06459842  0.82253148  0.56596157  1
  Zn  Zn142  1  0.56436122  0.31523799  0.06736837  1
  Zn  Zn143  1  0.56408662  0.30608095  0.55907413  1
  Zn  Zn144  1  0.56387040  0.81057693  0.06547037  1
  Zn  Zn145  1  0.55702581  0.80997802  0.55354774  1
  O  O146  1  0.12284073  0.13317737  0.13676794  1
  O  O147  1  0.10624068  0.12145931  0.61894244  1
  O  O148  1  0.11711054  0.62838892  0.11891681  1
  O  O149  1  0.12589447  0.61146328  0.60632125  1
  O  O150  1  0.61936289  0.11993097  0.11798691  1
  O  O151  1  0.60950337  0.11312920  0.62890753  1
  O  O152  1  0.62900225  0.61861397  0.11339362  1
  O  O153  1  0.63567924  0.61918335  0.61610083  1
  O  O154  1  0.39555019  0.36339113  0.37395787  1
  O  O155  1  0.39054302  0.37697203  0.87684565  1
  O  O156  1  0.37118728  0.88958207  0.38121666  1
  O  O157  1  0.38530264  0.88198330  0.88864361  1
  O  O158  1  0.87722361  0.38599492  0.38078084  1
  O  O159  1  0.87936609  0.38205277  0.87293767  1
  O  O160  1  0.88383063  0.87963993  0.38762044  1
  O  O161  1  0.88095990  0.87624383  0.88672453  1
  O  O162  1  0.25931102  0.00044675  0.36916409  1
  O  O163  1  0.25323469  -0.00722111  0.87006442  1
  O  O164  1  0.23838035  0.51814800  0.37793877  1
  O  O165  1  0.25374615  0.52256805  0.85566948  1
  O  O166  1  0.75724005  -0.00029333  0.38474019  1
  O  O167  1  0.76104085  -0.01323230  0.87399957  1
  O  O168  1  0.76123735  0.50670491  0.36716162  1
  O  O169  1  0.76563084  0.49048108  0.86361649  1
  O  O170  1  0.25636592  0.50458189  0.13645321  1
  O  O171  1  0.24016926  0.50537522  0.63193657  1
  O  O172  1  0.25086346  0.98152327  0.13326665  1
  O  O173  1  0.23412521  1.01635149  0.62584757  1
  O  O174  1  0.74729002  0.49967999  0.13127343  1
  O  O175  1  0.73990440  0.48482444  0.62264737  1
  O  O176  1  0.74554953  0.98332572  0.12088705  1
  O  O177  1  0.73313975  1.00345309  0.62443119  1
  O  O178  1  -0.00648607  0.37410933  0.26594635  1
  O  O179  1  0.00028289  0.35828049  0.73051607  1
  O  O180  1  0.00558965  0.87626485  0.26308628  1
  O  O181  1  -0.00426780  0.87478214  0.76578502  1
  O  O182  1  0.53034068  0.36577467  0.23656435  1
  O  O183  1  0.50514289  0.36636206  0.74701894  1
  O  O184  1  0.50410077  0.85939790  0.24161283  1
  O  O185  1  0.49564805  0.86104138  0.76051249  1
  O  O186  1  0.49244437  0.12197523  0.23406040  1
  O  O187  1  0.49257853  0.12702218  0.74464549  1
  O  O188  1  0.50803922  0.63117207  0.23379373  1
  O  O189  1  0.51270504  0.63619988  0.73538990  1
  O  O190  1  0.97005995  0.11167577  0.23479324  1
  O  O191  1  0.99714453  0.12046451  0.73832610  1
  O  O192  1  0.99071199  0.62559893  0.26652893  1
  O  O193  1  0.98048105  0.62850724  0.75301466  1
  O  O194  1  0.36310498  0.24084213  0.01122747  1
  O  O195  1  0.36854263  0.26015081  0.49839010  1
  O  O196  1  0.38146043  0.76493589  -0.00051064  1
  O  O197  1  0.36080538  0.76810779  0.50538094  1
  O  O198  1  0.86320050  0.26612530  -0.02923500  1
  O  O199  1  0.86601247  0.25888362  0.50756467  1
  O  O200  1  0.86974846  0.75203964  0.01383125  1
  O  O201  1  0.87795884  0.76336577  0.50167195  1
  O  O202  1  0.11534414  0.23547375  0.50346289  1
  O  O203  1  0.15194613  0.23316370  0.99569989  1
  O  O204  1  0.12990226  0.74143408  0.49968752  1
  O  O205  1  0.11647807  0.74234333  0.98886709  1
  O  O206  1  0.64320735  0.25743742  0.49716342  1
  O  O207  1  0.61831596  0.24154778  0.98760540  1
  O  O208  1  0.62184264  0.74000949  0.48555114  1
  O  O209  1  0.63258014  0.74417775  0.99367971  1
  O  O210  1  0.48871730  0.23752545  0.11182067  1
  O  O211  1  0.50568333  0.23179925  0.63248333  1
  O  O212  1  0.50784535  0.73866167  0.13556891  1
  O  O213  1  0.50556836  0.74315272  0.63687955  1
  O  O214  1  1.09004049  0.19707667  0.15459569  1
  O  O215  1  0.98396789  0.23728603  0.61970344  1
  O  O216  1  0.98354531  0.76224471  0.12848174  1
  O  O217  1  1.02279398  0.74289134  0.62887725  1
  O  O218  1  -0.01047595  0.26486088  0.38141742  1
  O  O219  1  0.01617876  0.21699841  0.89274793  1
  O  O220  1  -0.00161532  0.76515235  0.38160749  1
  O  O221  1  -0.00784732  0.76517646  0.87678256  1
  O  O222  1  0.51710893  0.22359494  0.37745457  1
  O  O223  1  0.50385486  0.26014264  0.86733425  1
  O  O224  1  0.51509403  0.73906870  0.36074095  1
  O  O225  1  0.51095961  0.75542850  0.86758985  1
  O  O226  1  0.23135073  0.13045150  0.49577719  1
  O  O227  1  0.25643468  0.10488341  0.98917276  1
  O  O228  1  0.24089297  0.63680872  0.49720950  1
  O  O229  1  0.22317211  0.62881374  1.00438834  1
  O  O230  1  0.75106531  0.13903396  0.49871483  1
  O  O231  1  0.73352433  0.11509497  1.00326279  1
  O  O232  1  0.74494552  0.62223354  0.48746015  1
  O  O233  1  0.73837245  0.63989976  1.00142442  1
  O  O234  1  0.24846593  0.36387231  -0.02200460  1
  O  O235  1  0.25630991  0.35343535  0.46255227  1
  O  O236  1  0.26651253  0.87835186  0.01117713  1
  O  O237  1  0.25329041  0.86664307  0.49404259  1
  O  O238  1  0.75521611  0.38001856  0.00684576  1
  O  O239  1  0.75879142  0.37333161  0.50606338  1
  O  O240  1  0.76017657  0.86347558  0.00780326  1
  O  O241  1  0.76207417  0.87343042  0.50355133  1
  O  O242  1  0.14235454  0.50880016  0.24774746  1
  O  O243  1  0.11960189  0.51293853  0.73177682  1
  O  O244  1  0.11881625  0.98398450  0.26075690  1
  O  O245  1  0.11867263  1.00832965  0.73730371  1
  O  O246  1  0.64074902  0.49182301  0.23756605  1
  O  O247  1  0.62181245  0.48678459  0.73923569  1
  O  O248  1  0.62308041  1.01286401  0.23891694  1
  O  O249  1  0.63011729  0.99528390  0.74082034  1
  O  O250  1  0.38387709  0.00659146  0.26338737  1
  O  O251  1  0.37840829  0.00009406  0.75895975  1
  O  O252  1  0.34936071  0.50636253  0.26819188  1
  O  O253  1  0.37262891  0.51993557  0.74429039  1
  O  O254  1  0.86838982  -0.01569157  0.27102338  1
  O  O255  1  0.86923018  -0.00618487  0.76611341  1
  O  O256  1  0.87025629  0.51547519  0.25746676  1
  O  O257  1  0.87444449  0.51387871  0.75299839  1
  O  O258  1  0.10304217  0.38156140  0.38270363  1
  O  O259  1  0.10913055  0.34831277  0.89404358  1
  O  O260  1  0.11030960  0.87536486  0.37320281  1
  O  O261  1  0.11149960  0.86136548  0.88376795  1
  O  O262  1  0.63896800  0.38049772  0.35341506  1
  O  O263  1  0.61722552  0.36465873  0.86699150  1
  O  O264  1  0.62713462  0.85835015  0.37903577  1
  O  O265  1  0.61639079  0.86045318  0.88659581  1
  O  O266  1  0.38507272  0.12066241  0.13384442  1
  O  O267  1  0.38462577  0.10848489  0.64210130  1
  O  O268  1  0.39715018  0.61907416  0.11209113  1
  O  O269  1  0.39007051  0.61930454  0.60984209  1
  O  O270  1  0.88857345  0.14637131  0.08985450  1
  O  O271  1  0.88107726  0.13368483  0.61904495  1
  O  O272  1  0.88046871  0.63682223  0.13849733  1
  O  O273  1  0.87323325  0.62228851  0.62726705  1
  O  O274  1  0.26188003  0.26497413  0.11228483  1
  O  O275  1  0.24428072  0.24707756  0.63063158  1
  O  O276  1  0.24876793  0.76746129  0.13088025  1
  O  O277  1  0.23793646  0.75054162  0.61236090  1
  O  O278  1  0.74814992  0.26120392  0.11279440  1
  O  O279  1  0.75743690  0.25700181  0.61189626  1
  O  O280  1  0.75457062  0.75929966  0.12025999  1
  O  O281  1  0.74274117  0.79562279  0.66264764  1
  O  O282  1  0.20825220  0.24029761  0.32882377  1
  O  O283  1  0.25634158  0.22600141  0.89016415  1
  O  O284  1  0.24337479  0.74111721  0.38890810  1
  O  O285  1  0.23721552  0.74489530  0.87918220  1
  O  O286  1  0.76382117  0.25426287  0.38452968  1
  O  O287  1  0.72819699  0.25344043  0.87025008  1
  O  O288  1  0.73922789  0.73935871  0.36689172  1
  O  O289  1  0.73850907  0.75803009  0.88349646  1
  O  O290  1  0.01235877  0.10035457  0.00253831  1
  O  O291  1  0.00288128  0.11738303  0.50466100  1
  O  O292  1  0.00650848  0.62462823  0.00520650  1
  O  O293  1  0.00852146  0.61925131  0.49754077  1
  O  O294  1  0.50554706  0.11498825  0.00561302  1
  O  O295  1  0.48577844  0.10804135  0.51913083  1
  O  O296  1  0.52193457  0.63375670  0.01344479  1
  O  O297  1  0.51647633  0.63498615  0.51845269  1
  O  O298  1  0.48802201  0.36998400  0.50665636  1
  O  O299  1  0.50611865  0.37616169  0.99002693  1
  O  O300  1  0.48074477  0.88851020  0.50538563  1
  O  O301  1  0.49422477  0.87668232  0.99509940  1
  O  O302  1  0.98478208  0.38221438  0.49872904  1
  O  O303  1  0.98164385  0.36607327  1.00058160  1
  O  O304  1  0.99887784  0.88575691  0.49112819  1
  O  O305  1  0.99093568  0.87740342  0.99517969  1
  O  O306  1  0.49832224  0.53723472  0.38270645  1
  O  O307  1  0.50998616  0.48461110  0.87123848  1
  O  O308  1  0.49568913  1.00626028  0.39145224  1
  O  O309  1  0.51394005  0.98663957  0.88460244  1
  O  O310  1  0.98825542  0.49489359  0.38615462  1
  O  O311  1  0.98322133  0.49144687  0.86697442  1
  O  O312  1  0.98902409  0.99311829  0.38566966  1
  O  O313  1  0.99126734  0.98425978  0.88607127  1
  O  O314  1  -0.00661420  -0.01461829  0.11282284  1
  O  O315  1  -0.00260385  0.01373774  0.61682756  1
  O  O316  1  -0.01472474  0.49900517  0.14288137  1
  O  O317  1  0.00386919  0.49758060  0.61226399  1
  O  O318  1  0.51135435  0.00489470  0.11827367  1
  O  O319  1  0.51085454  0.00478777  0.62275327  1
  O  O320  1  0.52281108  0.51391507  0.12418198  1
  O  O321  1  0.51247915  0.51710780  0.63033308  1
  O  O322  1  0.24654590  0.38664691  0.25121994  1
  O  O323  1  0.25347764  0.41191169  0.75796778  1
  O  O324  1  0.24351431  0.87676941  0.24620431  1
  O  O325  1  0.28008302  0.86158965  0.76466566  1
  O  O326  1  0.75609849  0.38341204  0.23063547  1
  O  O327  1  0.73426225  0.36054673  0.73681120  1
  O  O328  1  0.75318183  0.86768674  0.23804161  1
  O  O329  1  0.75283594  0.84438346  0.72033777  1
  O  O330  1  0.27155091  0.12080809  0.24154038  1
  O  O331  1  0.26407675  0.12143994  0.76162595  1
  O  O332  1  0.24441931  0.62959200  0.26736894  1
  O  O333  1  0.25036739  0.63237064  0.73594622  1
  O  O334  1  0.79312694  0.12117575  0.21777658  1
  O  O335  1  0.74872759  0.13658777  0.75299342  1
  O  O336  1  0.75297864  0.61596606  0.25687436  1
  O  O337  1  0.76911377  0.63288441  0.75073144  1
  O  O338  1  0.38086530  0.11736428  0.36060488  1
  O  O339  1  0.36921890  0.11790348  0.86629978  1
  O  O340  1  0.35536143  0.62830882  0.39099021  1
  O  O341  1  0.38390726  0.60297117  0.90531878  1
  O  O342  1  0.87545446  0.10799964  0.37774092  1
  O  O343  1  0.87717399  0.10027093  0.89170747  1
  O  O344  1  0.86648346  0.61984267  0.36431244  1
  O  O345  1  0.87211783  0.61342249  0.87424797  1
  O  O346  1  0.09739094  0.37825035  0.11893209  1
  O  O347  1  0.12841400  0.39284012  0.61365943  1
  O  O348  1  0.13182159  0.87207167  0.13892650  1
  O  O349  1  0.12598334  0.89917879  0.61887209  1
  O  O350  1  0.64221817  0.38233623  0.12460406  1
  O  O351  1  0.62788548  0.38088735  0.62816099  1
  O  O352  1  0.63800071  0.88227743  0.12135454  1
  O  O353  1  0.61682840  0.88562807  0.61993468  1
  O  O354  1  0.15261076  0.25136912  0.28050458  1
  O  O355  1  0.12762046  0.23750746  0.77730594  1
  O  O356  1  0.12633953  0.76978124  0.25652678  1
  O  O357  1  0.11499652  0.74179205  0.77527381  1
  O  O358  1  0.64839829  0.26066959  0.24443600  1
  O  O359  1  0.61014887  0.25560757  0.75721808  1
  O  O360  1  0.62230220  0.74692972  0.25935262  1
  O  O361  1  0.62092427  0.74625609  0.76705423  1
  O  O362  1  0.38101542  0.23868419  0.23666041  1
  O  O363  1  0.38537726  0.22993940  0.75035200  1
  O  O364  1  0.39134055  0.75162200  0.25914986  1
  O  O365  1  0.39633913  0.73687792  0.75647179  1
  O  O366  1  0.88716472  0.25628252  0.22601943  1
  O  O367  1  0.86740879  0.25179441  0.73207887  1
  O  O368  1  0.87130242  0.73872036  0.24363333  1
  O  O369  1  0.88234408  0.73587233  0.74827251  1
  O  O370  1  0.36259526  0.47293812  0.48543187  1
  O  O371  1  0.37221073  0.54803472  0.95537973  1
  O  O372  1  0.37373823  0.99634113  0.48788865  1
  O  O373  1  0.39399042  0.98793613  1.00799126  1
  O  O374  1  0.87803947  0.49455563  0.49335269  1
  O  O375  1  0.87286136  0.48844553  0.98154796  1
  O  O376  1  0.88078190  0.99177180  0.49345591  1
  O  O377  1  0.88090111  0.98549435  0.99682757  1
  O  O378  1  0.11435128  -0.01100839  0.00543289  1
  O  O379  1  0.11410546  0.01389879  0.50734908  1
  O  O380  1  0.11874624  0.50826222  0.01193634  1
  O  O381  1  0.11535397  0.51063889  0.50557241  1
  O  O382  1  0.61712353  0.00516761  0.00958195  1
  O  O383  1  0.60788886  -0.00584841  0.50679744  1
  O  O384  1  0.63627484  0.51406888  0.00039771  1
  O  O385  1  0.62905494  0.51019562  0.50966633  1
  O  O386  1  0.39074304  0.36050920  0.12810404  1
  O  O387  1  0.36896729  0.37918358  0.61337627  1
  O  O388  1  0.36936037  0.87463299  0.11989554  1
  O  O389  1  0.36550256  0.89152052  0.61139533  1
  O  O390  1  0.86722324  0.37057351  0.10437238  1
  O  O391  1  0.86531011  0.36750016  0.61767196  1
  O  O392  1  0.86374579  0.86481518  0.12256598  1
  O  O393  1  0.88372717  0.88123255  0.61113416  1
  O  O394  1  0.10932322  0.12025858  0.38515165  1
  O  O395  1  0.14519003  0.11905566  0.87966113  1
  O  O396  1  0.12896992  0.62728976  0.39138036  1
  O  O397  1  0.11489410  0.63152397  0.88937613  1
  O  O398  1  0.58040843  0.17559837  0.36668862  1
  O  O399  1  0.61501380  0.13713097  0.88157808  1
  O  O400  1  0.63745003  0.62758161  0.38098958  1
  O  O401  1  0.61863218  0.63724570  0.88728230  1
