# generated using pymatgen
data_V73Zn73O256
_symmetry_space_group_name_H-M   'P 1'
_cell_length_a   16.88946573
_cell_length_b   16.91441825
_cell_length_c   16.91414471
_cell_angle_alpha   90.23935513
_cell_angle_beta   90.22564683
_cell_angle_gamma   89.73562464
_symmetry_Int_Tables_number   1
_chemical_formula_structural   V73Zn73O256
_chemical_formula_sum   'V73 Zn73 O256'
_cell_volume   4831.82582650
_cell_formula_units_Z   1
loop_
 _symmetry_equiv_pos_site_id
 _symmetry_equiv_pos_as_xyz
  1  'x, y, z'
loop_
 _atom_site_type_symbol
 _atom_site_label
 _atom_site_symmetry_multiplicity
 _atom_site_fract_x
 _atom_site_fract_y
 _atom_site_fract_z
 _atom_site_occupancy
  V  V0  1  0.12736484  0.23889465  0.87285113  1
  V  V1  1  -0.00580201  0.12456628  0.11933745  1
  V  V2  1  0.36260209  0.11237245  0.74924202  1
  V  V3  1  0.65227050  0.37608924  0.74429262  1
  V  V4  1  0.85801533  0.24882272  0.62191196  1
  V  V5  1  0.24950408  0.75359988  0.49230490  1
  V  V6  1  0.49265787  0.12647634  0.12018546  1
  V  V7  1  0.62568827  0.74826323  0.37042443  1
  V  V8  1  0.24878182  0.24770832  0.48332327  1
  V  V9  1  0.63022770  0.12558824  0.00471404  1
  V  V10  1  0.00448784  0.00322688  0.51806225  1
  V  V11  1  -0.00348684  0.75047208  0.24915415  1
  V  V12  1  0.87535610  0.00477231  0.37258497  1
  V  V13  1  -0.00547505  0.21909953  0.74150204  1
  V  V14  1  0.24852000  0.74049174  -0.00020678  1
  V  V15  1  0.63142721  0.12687094  0.48210357  1
  V  V16  1  0.50882081  0.11816637  0.62010121  1
  V  V17  1  0.13213413  0.12519464  -0.00264118  1
  V  V18  1  0.61444758  0.61644867  0.51373834  1
  V  V19  1  0.87208856  0.37941546  0.01349832  1
  V  V20  1  0.49540344  0.26298912  0.25641522  1
  V  V21  1  0.00582233  0.36895649  0.87434500  1
  V  V22  1  0.01201121  0.62275559  0.12789698  1
  V  V23  1  0.51376324  0.76896760  0.74916459  1
  V  V24  1  0.87543091  0.13150603  0.25454159  1
  V  V25  1  0.62180397  -0.00014157  0.12217811  1
  V  V26  1  0.87901956  0.61766963  0.24538322  1
  V  V27  1  0.37371160  0.62725587  0.77778604  1
  V  V28  1  0.49650692  0.26048894  0.75692037  1
  V  V29  1  0.38943609  0.38049869  0.50079509  1
  V  V30  1  0.12728926  0.87044958  0.25520641  1
  V  V31  1  0.12123553  0.13044480  0.49643719  1
  V  V32  1  0.62508761  0.87557400  0.25232769  1
  V  V33  1  0.25122913  0.88070420  0.11969490  1
  V  V34  1  0.01243001  0.49908686  0.00811291  1
  V  V35  1  0.69910356  0.07426574  0.82801840  1
  V  V36  1  0.50006932  0.88911681  0.37632419  1
  V  V37  1  0.24313099  0.61917357  0.37009590  1
  V  V38  1  0.38293479  0.74393036  0.62534892  1
  V  V39  1  0.36360380  -0.00348890  0.89535057  1
  V  V40  1  0.12464505  0.42474033  0.73189758  1
  V  V41  1  0.25540195  0.00345271  0.26638305  1
  V  V42  1  0.39012528  0.49991186  0.37722890  1
  V  V43  1  0.74367864  0.26624559  0.48563294  1
  V  V44  1  0.12771084  0.74921420  0.87840193  1
  V  V45  1  0.38421408  0.40896493  -0.02080354  1
  V  V46  1  0.88550866  0.75763475  0.66128883  1
  V  V47  1  0.00154882  0.87333273  0.87201695  1
  V  V48  1  0.37613742  0.12168622  0.27180979  1
  V  V49  1  0.74714625  0.52551106  0.75438501  1
  V  V50  1  0.73999161  0.76651716  0.50848770  1
  V  V51  1  0.87555344  0.49955816  0.87777931  1
  V  V52  1  0.24498359  0.38943309  0.62591524  1
  V  V53  1  0.91700978  0.62212592  0.75993333  1
  V  V54  1  0.12579321  0.62779452  0.51901426  1
  V  V55  1  0.75664969  0.61570488  0.37669318  1
  V  V56  1  0.74931874  0.25306174  0.00807310  1
  V  V57  1  0.74988199  0.85827826  0.12312249  1
  V  V58  1  0.12064411  0.00242385  0.12477880  1
  V  V59  1  0.62765397  0.26285826  0.87908465  1
  V  V60  1  0.14773498  0.37574365  0.24450652  1
  V  V61  1  0.38163637  0.88750515  0.49225269  1
  V  V62  1  0.50743030  0.88540056  0.89785705  1
  V  V63  1  0.00381014  0.87418874  0.37254941  1
  V  V64  1  0.74947043  0.00997820  0.25250161  1
  V  V65  1  0.88472607  0.86346170  0.01444722  1
  V  V66  1  0.87277840  0.87306361  0.50189167  1
  V  V67  1  0.36645591  0.25115022  0.62949104  1
  V  V68  1  0.37902041  0.75645871  0.12424885  1
  V  V69  1  0.37675998  0.61835418  0.24348503  1
  V  V70  1  0.87540612  0.00530348  0.88243060  1
  V  V71  1  0.24969521  0.88357572  0.63151186  1
  V  V72  1  0.01062162  0.36715807  0.38014908  1
  Zn  Zn73  1  0.02012487  0.24565490  0.25769920  1
  Zn  Zn74  1  0.31937108  0.26761895  0.06295118  1
  Zn  Zn75  1  0.02525116  0.49050547  0.50585117  1
  Zn  Zn76  1  0.61574882  0.60770586  0.03540771  1
  Zn  Zn77  1  0.15010935  0.49547715  0.12398881  1
  Zn  Zn78  1  0.49734052  0.74842004  0.25029582  1
  Zn  Zn79  1  0.11640565  0.88310045  0.74194479  1
  Zn  Zn80  1  0.87211238  0.25656783  0.13227387  1
  Zn  Zn81  1  0.88491598  0.49904223  0.39250691  1
  Zn  Zn82  1  0.19684271  0.19254305  0.19493777  1
  Zn  Zn83  1  0.17761263  0.05702493  0.68520360  1
  Zn  Zn84  1  0.18955035  0.68931336  0.18839915  1
  Zn  Zn85  1  0.19724334  0.70088533  0.69740169  1
  Zn  Zn86  1  0.68041180  0.19858909  0.19246020  1
  Zn  Zn87  1  0.69654905  0.07985571  0.66628587  1
  Zn  Zn88  1  0.68944853  0.67840229  0.19286342  1
  Zn  Zn89  1  0.70372907  0.77436508  0.68366475  1
  Zn  Zn90  1  0.32860954  0.31280468  0.31123473  1
  Zn  Zn91  1  0.32869414  0.28586131  0.85270815  1
  Zn  Zn92  1  0.31330927  0.81205450  0.31076980  1
  Zn  Zn93  1  0.32058333  0.81792734  0.81862161  1
  Zn  Zn94  1  0.82363482  0.31702669  0.32671003  1
  Zn  Zn95  1  0.82087432  0.29921627  0.81876000  1
  Zn  Zn96  1  0.81346114  0.81293874  0.31552266  1
  Zn  Zn97  1  0.82697163  0.80118218  0.83037686  1
  Zn  Zn98  1  0.19182683  0.43850688  0.43709013  1
  Zn  Zn99  1  0.20764893  0.42838847  0.91531593  1
  Zn  Zn100  1  0.18617036  0.94012121  0.44237455  1
  Zn  Zn101  1  0.18569128  0.94434199  0.93745736  1
  Zn  Zn102  1  0.69249805  0.44551846  0.57030192  1
  Zn  Zn103  1  0.68988495  0.44438826  0.93980877  1
  Zn  Zn104  1  0.68488770  0.94861625  0.44126554  1
  Zn  Zn105  1  0.68734576  0.92934331  0.94508722  1
  Zn  Zn106  1  0.29629669  0.08007977  0.07053868  1
  Zn  Zn107  1  0.31512495  0.06763150  0.55766573  1
  Zn  Zn108  1  0.32853082  0.57269419  0.04538263  1
  Zn  Zn109  1  0.31858236  0.56592853  0.55765292  1
  Zn  Zn110  1  0.81013699  0.05448541  0.06213767  1
  Zn  Zn111  1  0.81984723  0.07633323  0.55502958  1
  Zn  Zn112  1  0.67641714  0.49171780  0.13913361  1
  Zn  Zn113  1  0.80209786  0.60250139  0.58233904  1
  Zn  Zn114  1  0.34673833  0.42086206  0.17978896  1
  Zn  Zn115  1  0.42646742  0.44624637  0.69551135  1
  Zn  Zn116  1  0.43775596  0.94043778  0.18767752  1
  Zn  Zn117  1  0.43754053  0.93704698  0.67455300  1
  Zn  Zn118  1  0.94996660  0.43627863  0.19855705  1
  Zn  Zn119  1  0.87476552  0.44620771  0.65175671  1
  Zn  Zn120  1  0.93625077  0.93906666  0.18792660  1
  Zn  Zn121  1  0.81950529  0.93859249  0.69005785  1
  Zn  Zn122  1  0.06515840  0.06412885  0.31659857  1
  Zn  Zn123  1  0.05230195  0.04944527  0.81793468  1
  Zn  Zn124  1  0.06844504  0.55078033  0.31359195  1
  Zn  Zn125  1  0.08183046  0.55735856  0.83599458  1
  Zn  Zn126  1  0.56179546  0.06858447  0.30907329  1
  Zn  Zn127  1  0.53103379  0.05170116  0.80087400  1
  Zn  Zn128  1  0.56646030  0.56627049  0.29876167  1
  Zn  Zn129  1  0.54048168  0.58646708  0.68135107  1
  Zn  Zn130  1  0.44436470  0.19572033  0.44083047  1
  Zn  Zn131  1  0.44047717  0.17493847  0.93328958  1
  Zn  Zn132  1  0.43881922  0.69106623  0.43419540  1
  Zn  Zn133  1  0.49183860  0.68032004  0.92080147  1
  Zn  Zn134  1  0.93419520  0.19187399  0.44495749  1
  Zn  Zn135  1  0.93631852  0.18998014  0.93933029  1
  Zn  Zn136  1  0.94338278  0.68989745  0.43790787  1
  Zn  Zn137  1  0.94181539  0.68666867  0.94729781  1
  Zn  Zn138  1  0.06586993  0.30839397  0.06761029  1
  Zn  Zn139  1  0.06247444  0.30448946  0.56988350  1
  Zn  Zn140  1  0.06742701  0.80956350  0.06863984  1
  Zn  Zn141  1  0.06285267  0.81301528  0.56391025  1
  Zn  Zn142  1  0.49856766  0.32023986  0.06323852  1
  Zn  Zn143  1  0.56733969  0.30329446  0.57259430  1
  Zn  Zn144  1  0.56556076  0.79953601  0.06059659  1
  Zn  Zn145  1  0.56345495  0.81052686  0.55649955  1
  O  O146  1  0.11252506  0.12025334  0.11862272  1
  O  O147  1  0.14093710  0.11273558  0.59505766  1
  O  O148  1  0.11782409  0.61343528  0.13686422  1
  O  O149  1  0.13807685  0.64397314  0.61689706  1
  O  O150  1  0.61720817  0.11855302  0.12340224  1
  O  O151  1  0.60983816  0.13743224  0.62722425  1
  O  O152  1  0.62675156  0.59501951  0.15764611  1
  O  O153  1  0.62225296  0.63442805  0.61367271  1
  O  O154  1  0.37206500  0.38991737  0.38870367  1
  O  O155  1  0.32162575  0.39553180  0.89197947  1
  O  O156  1  0.38502101  0.86762155  0.38439878  1
  O  O157  1  0.38849697  0.89024729  0.87644847  1
  O  O158  1  0.90069088  0.38459849  0.37063505  1
  O  O159  1  0.88798835  0.38098309  0.87962145  1
  O  O160  1  0.88544598  0.88663258  0.37465213  1
  O  O161  1  0.88694288  0.87099960  0.89700629  1
  O  O162  1  0.25283970  -0.00973377  0.36422115  1
  O  O163  1  0.26547102  -0.01343733  0.87025397  1
  O  O164  1  0.26297447  0.51625897  0.38251315  1
  O  O165  1  0.15870077  0.47547187  0.82296350  1
  O  O166  1  0.76184707  -0.00479363  0.36193518  1
  O  O167  1  0.75305481  0.00254432  0.88345450  1
  O  O168  1  0.75924028  0.51820373  0.38089245  1
  O  O169  1  0.76646255  0.49584474  0.86284607  1
  O  O170  1  0.26483799  0.47980273  0.09130934  1
  O  O171  1  0.25696685  0.48758367  0.61060606  1
  O  O172  1  0.23989072  0.99692172  0.13648374  1
  O  O173  1  0.25295847  0.98669492  0.61490949  1
  O  O174  1  0.75446525  0.42809488  0.20078685  1
  O  O175  1  0.76666981  0.50455082  0.64438238  1
  O  O176  1  0.73972411  0.99086804  0.13650483  1
  O  O177  1  0.76211700  1.00421742  0.62107846  1
  O  O178  1  0.01605807  0.36746028  0.26090355  1
  O  O179  1  0.02995858  0.38414036  0.76931181  1
  O  O180  1  0.00668622  0.87004356  0.25213035  1
  O  O181  1  -0.00222210  0.86924042  0.77384128  1
  O  O182  1  0.45436310  0.35363724  0.23616477  1
  O  O183  1  0.47593049  0.35799627  0.75795321  1
  O  O184  1  0.51251055  0.87648564  0.25582392  1
  O  O185  1  0.50530737  0.87158241  0.73706635  1
  O  O186  1  0.48869017  0.12793732  0.24240379  1
  O  O187  1  0.49064586  0.13528181  0.73599874  1
  O  O188  1  0.48076068  0.62845116  0.25242221  1
  O  O189  1  0.48463226  0.65583479  0.75075289  1
  O  O190  1  0.99244141  0.12876750  0.24740842  1
  O  O191  1  0.98883459  0.12139009  0.75481652  1
  O  O192  1  0.99918449  0.63222946  0.25242779  1
  O  O193  1  1.01473686  0.61261962  0.75948783  1
  O  O194  1  0.36734986  0.25617905  -0.03903928  1
  O  O195  1  0.36830485  0.26228562  0.50606693  1
  O  O196  1  0.36185709  0.74980231  0.02178144  1
  O  O197  1  0.37018845  0.75564450  0.50622762  1
  O  O198  1  0.86946730  0.26251567  0.00346601  1
  O  O199  1  0.85384551  0.24759941  0.50325537  1
  O  O200  1  0.87517162  0.76260448  0.00352497  1
  O  O201  1  0.86882280  0.76951386  0.48506205  1
  O  O202  1  0.13719988  0.23947661  0.49852866  1
  O  O203  1  0.11849001  0.23132916  0.99789373  1
  O  O204  1  0.14434450  0.74987421  0.50073186  1
  O  O205  1  0.14144847  0.75751388  0.99928091  1
  O  O206  1  0.63601812  0.24383332  0.50508659  1
  O  O207  1  0.63015214  0.24630104  0.99335711  1
  O  O208  1  0.62495361  0.73530173  0.48066592  1
  O  O209  1  0.74058104  0.68799647  0.92928784  1
  O  O210  1  0.49139179  0.23114479  0.13101264  1
  O  O211  1  0.48716303  0.24966150  0.64076090  1
  O  O212  1  0.48158628  0.75898927  0.13270509  1
  O  O213  1  0.48929313  0.75959319  0.62746583  1
  O  O214  1  0.99599797  0.23419725  0.13204915  1
  O  O215  1  1.01428288  0.23499410  0.64334284  1
  O  O216  1  1.01005008  0.73690958  0.13795273  1
  O  O217  1  0.98069127  0.76673877  0.62896086  1
  O  O218  1  -0.00044459  0.26150419  0.37778131  1
  O  O219  1  -0.00777676  0.25693197  0.86561004  1
  O  O220  1  0.00132984  0.76684367  0.36720196  1
  O  O221  1  0.01647246  0.76213560  0.89602112  1
  O  O222  1  0.48818499  0.25677336  0.35756724  1
  O  O223  1  0.51476970  0.23597993  0.86172881  1
  O  O224  1  0.51166626  0.75989777  0.36940878  1
  O  O225  1  0.49442526  0.77819655  0.85649919  1
  O  O226  1  0.25585359  0.14374964  0.49584314  1
  O  O227  1  0.22757120  0.11304382  0.97801414  1
  O  O228  1  0.24711980  0.63771640  0.49275658  1
  O  O229  1  0.24866769  0.64098087  1.00056044  1
  O  O230  1  0.73713499  0.13864391  0.49736670  1
  O  O231  1  0.73913776  0.13458009  1.00995343  1
  O  O232  1  0.73801611  0.64205846  0.48531602  1
  O  O233  1  0.67279628  0.51049851  1.02769524  1
  O  O234  1  0.26523200  0.42618398  0.02112927  1
  O  O235  1  0.25401983  0.36449184  0.50616673  1
  O  O236  1  0.24669740  0.87917437  0.01844703  1
  O  O237  1  0.26093565  0.86637345  0.49706790  1
  O  O238  1  0.76715915  0.37064915  -0.00021032  1
  O  O239  1  0.74166818  0.36532018  0.50599704  1
  O  O240  1  0.74811581  0.86649628  0.01941646  1
  O  O241  1  0.76808450  0.87867827  0.48219528  1
  O  O242  1  0.13193961  0.48421136  0.24262463  1
  O  O243  1  0.09569711  0.50414710  0.68694696  1
  O  O244  1  0.13734339  0.99653825  0.24567478  1
  O  O245  1  0.12889347  0.99311564  0.76064487  1
  O  O246  1  0.62372940  0.46736732  0.25775735  1
  O  O247  1  0.64726771  0.48688812  0.75548570  1
  O  O248  1  0.63237992  0.99393619  0.24620077  1
  O  O249  1  0.63726616  1.02183139  0.76391271  1
  O  O250  1  0.36395856  0.00610509  0.24908915  1
  O  O251  1  0.38096222  0.01218795  0.74013146  1
  O  O252  1  0.36862901  0.51156399  0.25601593  1
  O  O253  1  0.37349578  0.52859715  0.75427940  1
  O  O254  1  0.86828431  0.00931123  0.25435932  1
  O  O255  1  0.86624867  -0.01515911  0.78357645  1
  O  O256  1  0.88865851  0.51624100  0.25973032  1
  O  O257  1  0.87219036  0.51368938  0.75759600  1
  O  O258  1  0.12365396  0.38304498  0.35963529  1
  O  O259  1  0.11503260  0.34582825  0.89938385  1
  O  O260  1  0.11661386  0.88545524  0.36393197  1
  O  O261  1  0.10816896  0.87540450  0.89006613  1
  O  O262  1  0.64063096  0.40686620  0.29936795  1
  O  O263  1  0.63430146  0.37073869  0.86556342  1
  O  O264  1  0.62095467  0.87130185  0.37043204  1
  O  O265  1  0.60787430  0.88703073  0.87744347  1
  O  O266  1  0.39558348  0.10432723  0.12578410  1
  O  O267  1  0.38278771  0.13427701  0.62857606  1
  O  O268  1  0.36512672  0.63544974  0.13787739  1
  O  O269  1  0.37491399  0.64294799  0.62098838  1
  O  O270  1  0.88381706  0.11895909  0.13470365  1
  O  O271  1  0.88406429  0.14790472  0.61490188  1
  O  O272  1  0.89329056  0.62317805  0.14520343  1
  O  O273  1  0.88836869  0.63861461  0.65949719  1
  O  O274  1  0.26181091  0.18897939  0.10726555  1
  O  O275  1  0.26445313  0.26167738  0.61790629  1
  O  O276  1  0.25149336  0.76035986  0.11956973  1
  O  O277  1  0.26529062  0.76224412  0.61220870  1
  O  O278  1  0.74989995  0.25223015  0.11420999  1
  O  O279  1  0.75936291  0.25365716  0.62422058  1
  O  O280  1  0.74546262  0.76006720  0.13555511  1
  O  O281  1  0.78588641  0.72432359  0.60352902  1
  O  O282  1  0.25853057  0.25758598  0.38587900  1
  O  O283  1  0.22507347  0.23658891  0.86497541  1
  O  O284  1  0.26094456  0.73989783  0.38705662  1
  O  O285  1  0.24489865  0.76956992  0.89549229  1
  O  O286  1  0.74545509  0.26218689  0.38414528  1
  O  O287  1  0.74143396  0.25333346  0.89071966  1
  O  O288  1  0.73929199  0.75581239  0.38519478  1
  O  O289  1  0.72956006  0.74884410  0.88805103  1
  O  O290  1  -0.00548310  0.12249127  0.01818306  1
  O  O291  1  0.01035922  0.11540996  0.49621898  1
  O  O292  1  -0.00274143  0.60782413  0.01288733  1
  O  O293  1  0.02589696  0.64177616  0.49883961  1
  O  O294  1  0.51437688  0.12904048  0.01203193  1
  O  O295  1  0.51222928  0.14171898  0.51365890  1
  O  O296  1  0.56940082  0.70321117  0.00284032  1
  O  O297  1  0.51641369  0.62510019  0.48707306  1
  O  O298  1  0.48631347  0.36546162  0.50759599  1
  O  O299  1  0.48014736  0.37451982  0.96449554  1
  O  O300  1  0.48978881  0.87326172  0.49257129  1
  O  O301  1  0.50462262  0.87519877  0.99726531  1
  O  O302  1  1.02659733  0.37284787  0.48548485  1
  O  O303  1  0.99228617  0.37860818  0.99763656  1
  O  O304  1  0.99343892  0.88373076  0.49153936  1
  O  O305  1  0.98589318  0.87556875  1.02046399  1
  O  O306  1  0.48789907  0.50366912  0.36422836  1
  O  O307  1  0.49702851  0.49938222  0.83436637  1
  O  O308  1  0.50493764  0.98797182  0.36974506  1
  O  O309  1  0.48732316  0.99299779  0.88302264  1
  O  O310  1  1.00463547  0.49205903  0.38734919  1
  O  O311  1  0.99748205  0.49007860  0.89228392  1
  O  O312  1  0.99035179  0.99013723  0.37047681  1
  O  O313  1  0.98644425  0.98276642  0.88907987  1
  O  O314  1  0.00990720  0.01314688  0.14037652  1
  O  O315  1  -0.00467596  -0.00345582  0.61275878  1
  O  O316  1  0.00207684  0.50231757  0.11611659  1
  O  O317  1  -0.06784227  0.50954158  0.56861441  1
  O  O318  1  0.51553946  0.00673733  0.13441930  1
  O  O319  1  0.50033083  0.01884119  0.62171520  1
  O  O320  1  0.51114346  0.47256193  0.13113186  1
  O  O321  1  0.50707477  0.49298882  0.63609852  1
  O  O322  1  0.25521795  0.37414088  0.24339650  1
  O  O323  1  0.23741025  0.38741111  0.72916566  1
  O  O324  1  0.24455869  0.88334852  0.24576660  1
  O  O325  1  0.26341155  0.87438379  0.73022268  1
  O  O326  1  0.73386708  0.36976741  0.24641073  1
  O  O327  1  0.75212398  0.36973530  0.74842549  1
  O  O328  1  0.74181470  0.88238519  0.24429780  1
  O  O329  1  0.79881562  0.82699714  0.72328005  1
  O  O330  1  0.26085446  0.11055646  0.25794188  1
  O  O331  1  0.26467051  0.12030319  0.73613704  1
  O  O332  1  0.25838270  0.63197170  0.26408333  1
  O  O333  1  0.27486023  0.65164921  0.76325942  1
  O  O334  1  0.75645470  0.11704958  0.24133782  1
  O  O335  1  0.75208676  0.12963123  0.76632246  1
  O  O336  1  0.77189142  0.63380239  0.26302324  1
  O  O337  1  0.73977701  0.62153771  0.75804765  1
  O  O338  1  0.38644191  0.11938511  0.36969143  1
  O  O339  1  0.38026725  0.10656267  0.85845756  1
  O  O340  1  0.37079501  0.61604965  0.36843457  1
  O  O341  1  0.39158678  0.64012580  0.87802671  1
  O  O342  1  0.88277554  0.11532192  0.36627095  1
  O  O343  1  0.87783611  0.10514668  0.89253569  1
  O  O344  1  0.86808500  0.62972513  0.37370444  1
  O  O345  1  0.89225296  0.61037701  0.87181590  1
  O  O346  1  0.12672974  0.37432073  0.13801860  1
  O  O347  1  0.13781307  0.37147297  0.62677234  1
  O  O348  1  0.13078900  0.88454340  0.13702128  1
  O  O349  1  0.14433047  0.86595422  0.62612934  1
  O  O350  1  0.56067770  0.41689175  0.11642447  1
  O  O351  1  0.62738221  0.37634200  0.64258907  1
  O  O352  1  0.63150136  0.87693761  0.13184649  1
  O  O353  1  0.67415474  0.82350768  0.58111247  1
  O  O354  1  0.13574943  0.26491273  0.25193577  1
  O  O355  1  0.10232793  0.23634703  0.77175484  1
  O  O356  1  0.12047421  0.76457789  0.24893763  1
  O  O357  1  0.13847135  0.76877785  0.77486206  1
  O  O358  1  0.59759570  0.25903121  0.23958441  1
  O  O359  1  0.61095653  0.27179119  0.75854206  1
  O  O360  1  0.62648131  0.76179557  0.25506253  1
  O  O361  1  0.61257571  0.75142693  0.74326199  1
  O  O362  1  0.37211602  0.22397774  0.24856114  1
  O  O363  1  0.37935573  0.23768926  0.75360036  1
  O  O364  1  0.37097303  0.73927569  0.24249423  1
  O  O365  1  0.38123181  0.75883549  0.73290427  1
  O  O366  1  0.86835050  0.23870804  0.25013800  1
  O  O367  1  0.89011720  0.25226697  0.74120656  1
  O  O368  1  0.89042415  0.74428630  0.25681098  1
  O  O369  1  0.89915097  0.72715950  0.77395854  1
  O  O370  1  0.38147162  0.49230395  0.49012574  1
  O  O371  1  0.40237451  0.50802780  0.99137771  1
  O  O372  1  0.37164404  0.98579497  0.49611884  1
  O  O373  1  0.36198830  1.01266230  0.99360137  1
  O  O374  1  0.87103504  0.53323765  0.51192401  1
  O  O375  1  0.88279863  0.48468443  0.99314043  1
  O  O376  1  0.88666846  0.99586291  0.48892766  1
  O  O377  1  0.85987014  0.97728069  0.99352368  1
  O  O378  1  0.12305682  0.00802710  0.01661377  1
  O  O379  1  0.10784559  -0.00341712  0.50061863  1
  O  O380  1  0.11220228  0.49082059  0.00153809  1
  O  O381  1  0.13572270  0.52270653  0.50510210  1
  O  O382  1  0.63503435  0.01153521  0.01367901  1
  O  O383  1  0.62862619  0.02538091  0.50026908  1
  O  O384  1  0.53900729  0.50906000  -0.10421688  1
  O  O385  1  0.63780621  0.51852859  0.50257315  1
  O  O386  1  0.38249017  0.36296027  0.08578038  1
  O  O387  1  0.36644201  0.37373278  0.61569997  1
  O  O388  1  0.36408345  0.86461312  0.13953244  1
  O  O389  1  0.36893824  0.87054176  0.60617444  1
  O  O390  1  0.88510503  0.37706694  0.11598308  1
  O  O391  1  0.90180505  0.34590218  0.61636253  1
  O  O392  1  0.85948024  0.87844487  0.12492229  1
  O  O393  1  0.87607814  0.87325847  0.60265087  1
  O  O394  1  0.13415105  0.10887417  0.39530049  1
  O  O395  1  0.09686147  0.12899617  0.89442928  1
  O  O396  1  0.14173222  0.62334642  0.37686742  1
  O  O397  1  0.12786377  0.65033220  0.88160227  1
  O  O398  1  0.61964570  0.13214430  0.38213273  1
  O  O399  1  0.62985856  0.13226680  0.88577426  1
  O  O400  1  0.64286620  0.63360967  0.35680637  1
  O  O401  1  0.57244050  0.58477780  0.90541434  1
