# generated using pymatgen
data_V73Zn73O256
_symmetry_space_group_name_H-M   'P 1'
_cell_length_a   16.91081705
_cell_length_b   16.89890726
_cell_length_c   16.95114195
_cell_angle_alpha   90.31514220
_cell_angle_beta   89.63348456
_cell_angle_gamma   90.00962617
_symmetry_Int_Tables_number   1
_chemical_formula_structural   V73Zn73O256
_chemical_formula_sum   'V73 Zn73 O256'
_cell_volume   4844.02878917
_cell_formula_units_Z   1
loop_
 _symmetry_equiv_pos_site_id
 _symmetry_equiv_pos_as_xyz
  1  'x, y, z'
loop_
 _atom_site_type_symbol
 _atom_site_label
 _atom_site_symmetry_multiplicity
 _atom_site_fract_x
 _atom_site_fract_y
 _atom_site_fract_z
 _atom_site_occupancy
  V  V0  1  0.64186653  -0.00906408  0.12106823  1
  V  V1  1  0.50531958  0.62459163  0.60905872  1
  V  V2  1  0.64535653  0.12491713  -0.00431539  1
  V  V3  1  0.10867541  0.86120365  0.25389537  1
  V  V4  1  0.24925771  0.62509498  0.87412410  1
  V  V5  1  0.74805483  0.25256423  0.48678052  1
  V  V6  1  -0.01607645  0.86275629  0.39517611  1
  V  V7  1  0.23938308  0.38009535  0.61875088  1
  V  V8  1  0.25865069  0.24666511  0.50155161  1
  V  V9  1  0.75173769  0.49722741  0.74823902  1
  V  V10  1  0.49326728  0.75850303  0.24505978  1
  V  V11  1  0.06051350  0.31607201  0.81956128  1
  V  V12  1  0.35206815  -0.00048317  0.86961349  1
  V  V13  1  0.89253582  0.74261904  0.12378238  1
  V  V14  1  0.37596833  0.75999396  0.61943809  1
  V  V15  1  0.50123491  0.11689967  0.11458856  1
  V  V16  1  0.75542267  0.37339742  0.61928085  1
  V  V17  1  0.24999305  -0.01752249  0.25796416  1
  V  V18  1  0.62103266  0.12595195  0.49912261  1
  V  V19  1  0.87579412  0.48650695  0.88438370  1
  V  V20  1  0.63544561  0.47686754  0.10810839  1
  V  V21  1  0.88031236  0.62604636  0.74419991  1
  V  V22  1  0.64005097  0.24753386  0.88004575  1
  V  V23  1  0.12373441  -0.00672008  0.13639331  1
  V  V24  1  0.61895124  0.76055304  0.38132703  1
  V  V25  1  0.49926320  0.24272563  0.26851789  1
  V  V26  1  0.49262275  0.40321545  0.37663133  1
  V  V27  1  0.62704309  0.37213673  0.25670084  1
  V  V28  1  0.49246181  0.25532842  0.75262995  1
  V  V29  1  0.50050144  0.13336291  0.63348047  1
  V  V30  1  0.13243424  0.75086840  0.39334178  1
  V  V31  1  0.76194585  0.11187486  0.37004777  1
  V  V32  1  0.14866248  0.87159577  0.73408318  1
  V  V33  1  0.75288665  0.02389142  0.74397463  1
  V  V34  1  0.87782606  0.87779049  -0.00371390  1
  V  V35  1  0.37307114  0.25023829  0.12697047  1
  V  V36  1  0.62236619  0.76172258  0.85819594  1
  V  V37  1  0.49617892  0.63341533  0.12805775  1
  V  V38  1  -0.01739401  0.01387180  0.50150984  1
  V  V39  1  0.24097889  0.49955775  0.74015232  1
  V  V40  1  0.38948728  0.62575095  0.75186688  1
  V  V41  1  0.49523567  0.50635772  -0.00362192  1
  V  V42  1  0.13293081  0.60662823  0.50485332  1
  V  V43  1  0.32423652  0.31841888  -0.04741427  1
  V  V44  1  0.86512698  0.25540670  0.11858583  1
  V  V45  1  -0.00119121  0.75789302  0.74591273  1
  V  V46  1  0.74805138  0.62014172  0.38450933  1
  V  V47  1  0.01069947  0.61085859  0.62372620  1
  V  V48  1  0.37479759  0.11604444  0.25435044  1
  V  V49  1  0.75197046  0.62879500  0.87344998  1
  V  V50  1  0.50591717  0.37398383  0.88692488  1
  V  V51  1  -0.00449957  0.25959260  0.25272010  1
  V  V52  1  0.11484352  0.61317493  0.00213439  1
  V  V53  1  0.14057381  0.38145870  0.24717063  1
  V  V54  1  0.11993486  0.25524162  0.37991339  1
  V  V55  1  0.62510381  -0.00512903  0.63023086  1
  V  V56  1  0.88862012  0.38569554  0.48288881  1
  V  V57  1  0.23922730  0.12219795  0.37232525  1
  V  V58  1  -0.00697966  0.11578178  0.14524119  1
  V  V59  1  0.75944640  0.51122056  0.24106124  1
  V  V60  1  0.75288501  0.75917613  0.00380377  1
  V  V61  1  0.88723294  0.23890891  0.62266615  1
  V  V62  1  0.61872883  0.49734186  0.60893550  1
  V  V63  1  0.35619937  0.12876574  0.75017753  1
  V  V64  1  0.00655845  -0.00320533  -0.01065418  1
  V  V65  1  0.12559470  0.75523842  0.87638745  1
  V  V66  1  0.38225314  0.39134052  0.50402779  1
  V  V67  1  0.76858525  0.76411829  0.50638667  1
  V  V68  1  0.87145699  0.00856657  0.86559384  1
  V  V69  1  0.26017693  0.61350907  0.36750164  1
  V  V70  1  0.14034115  0.13134263  0.00585248  1
  V  V71  1  0.62618759  0.63417860  0.00158347  1
  V  V72  1  0.62587445  0.37376708  0.75125569  1
  Zn  Zn73  1  0.08330948  0.01902592  0.64200362  1
  Zn  Zn74  1  0.49331091  0.86901335  0.88265864  1
  Zn  Zn75  1  0.37526428  0.49437037  0.87017840  1
  Zn  Zn76  1  0.62498621  0.88033652  0.25078963  1
  Zn  Zn77  1  0.25511463  0.76086082  0.03870598  1
  Zn  Zn78  1  0.26083731  0.38434595  0.12859094  1
  Zn  Zn79  1  0.37173708  0.86919586  0.01050586  1
  Zn  Zn80  1  0.95220927  0.16344603  0.77431283  1
  Zn  Zn81  1  0.02079051  0.45115146  -0.02854186  1
  Zn  Zn82  1  0.18445296  0.18548248  0.18839430  1
  Zn  Zn83  1  0.14273197  0.17086407  0.71102915  1
  Zn  Zn84  1  0.16427634  0.66918225  0.19132544  1
  Zn  Zn85  1  0.19354662  0.69102757  0.68365125  1
  Zn  Zn86  1  0.68471633  0.18890800  0.18878661  1
  Zn  Zn87  1  0.68685358  0.19401011  0.68552731  1
  Zn  Zn88  1  0.68688704  0.69371067  0.18805441  1
  Zn  Zn89  1  0.69111278  0.67884546  0.68468028  1
  Zn  Zn90  1  0.31860296  0.31112059  0.31796966  1
  Zn  Zn91  1  0.26195162  0.28005951  0.77651836  1
  Zn  Zn92  1  0.28133585  0.76033321  0.25115756  1
  Zn  Zn93  1  0.31779562  0.80771627  0.81157158  1
  Zn  Zn94  1  0.81384912  0.31518462  0.30712447  1
  Zn  Zn95  1  0.82111203  0.30551561  0.80479029  1
  Zn  Zn96  1  0.83095736  0.76787696  0.32454698  1
  Zn  Zn97  1  0.81974468  0.81830517  0.81914323  1
  Zn  Zn98  1  0.19267889  0.43531265  0.43017895  1
  Zn  Zn99  1  0.19150690  0.43627253  0.92997027  1
  Zn  Zn100  1  0.15613260  0.95287838  0.44069058  1
  Zn  Zn101  1  0.19294765  0.93326568  0.93990759  1
  Zn  Zn102  1  0.69383173  0.43779303  0.42932546  1
  Zn  Zn103  1  0.68863623  0.43839695  0.94011229  1
  Zn  Zn104  1  0.69199050  0.93516263  0.44356793  1
  Zn  Zn105  1  0.68924811  0.94218702  0.93503481  1
  Zn  Zn106  1  0.31824740  0.03575655  0.06810626  1
  Zn  Zn107  1  0.31620788  0.06449844  0.55901607  1
  Zn  Zn108  1  0.31424174  0.57931273  0.06087316  1
  Zn  Zn109  1  0.31656246  0.57084588  0.56127169  1
  Zn  Zn110  1  0.81911614  0.06748033  0.06076647  1
  Zn  Zn111  1  0.80892336  0.05639662  0.55387359  1
  Zn  Zn112  1  0.81308844  0.56618314  0.06092952  1
  Zn  Zn113  1  0.81696140  0.56399535  0.56221361  1
  Zn  Zn114  1  0.45833256  0.43091506  0.17709100  1
  Zn  Zn115  1  0.43419553  0.43559570  0.68771777  1
  Zn  Zn116  1  0.43963090  0.93658377  0.18137852  1
  Zn  Zn117  1  0.43313836  0.94936277  0.69170660  1
  Zn  Zn118  1  0.94088258  0.43068817  0.16313697  1
  Zn  Zn119  1  0.94036822  0.43111378  0.68699006  1
  Zn  Zn120  1  0.93685145  0.91646034  0.18617416  1
  Zn  Zn121  1  0.91973772  0.92940886  0.67913801  1
  Zn  Zn122  1  0.05484574  0.05426279  0.32398372  1
  Zn  Zn123  1  0.09344259  0.05310692  0.82238134  1
  Zn  Zn124  1  0.06225100  0.54932612  0.33199042  1
  Zn  Zn125  1  0.06087107  0.56025861  0.81479283  1
  Zn  Zn126  1  0.59581551  0.07976773  0.29244402  1
  Zn  Zn127  1  0.56759156  0.06596891  0.81154808  1
  Zn  Zn128  1  0.57597750  0.56927624  0.30483274  1
  Zn  Zn129  1  0.56851027  0.56148877  0.81460508  1
  Zn  Zn130  1  0.42707944  0.15761432  0.44821659  1
  Zn  Zn131  1  0.44126667  0.17670838  0.93134777  1
  Zn  Zn132  1  0.44039587  0.69210662  0.43441467  1
  Zn  Zn133  1  0.43788997  0.69576551  0.93730143  1
  Zn  Zn134  1  0.92884703  0.19029149  0.43349006  1
  Zn  Zn135  1  0.95257806  0.18433224  0.94929058  1
  Zn  Zn136  1  0.94363591  0.66630798  0.42904275  1
  Zn  Zn137  1  0.93942841  0.68648331  0.93243448  1
  Zn  Zn138  1  0.06585121  0.31322891  0.07416460  1
  Zn  Zn139  1  0.06081246  0.31584014  0.55789221  1
  Zn  Zn140  1  0.06839362  0.81137416  0.05821121  1
  Zn  Zn141  1  0.05702865  0.80723087  0.56583663  1
  Zn  Zn142  1  0.57090919  0.30715960  0.06652856  1
  Zn  Zn143  1  0.56160117  0.31130144  0.55751005  1
  Zn  Zn144  1  0.55943755  0.81787451  0.05360233  1
  Zn  Zn145  1  0.60115685  0.78842575  0.59183472  1
  O  O146  1  0.11291383  0.11045397  0.12977588  1
  O  O147  1  0.17076820  0.09837185  0.62023621  1
  O  O148  1  0.12778222  0.61695504  0.10113628  1
  O  O149  1  0.12267433  0.62317955  0.61754335  1
  O  O150  1  0.61910104  0.12297752  0.11300968  1
  O  O151  1  0.62103135  0.12200744  0.62216540  1
  O  O152  1  0.62467630  0.62703616  0.10839150  1
  O  O153  1  0.61619510  0.60509198  0.63084754  1
  O  O154  1  0.38641668  0.37732540  0.38610054  1
  O  O155  1  0.38748511  0.37378783  0.88941423  1
  O  O156  1  0.31039966  0.87480762  0.46650009  1
  O  O157  1  0.37047629  0.89188475  0.86688127  1
  O  O158  1  0.87113634  0.37567801  0.38403377  1
  O  O159  1  0.86503916  0.38741497  0.86981721  1
  O  O160  1  0.88696313  0.85500376  0.37455863  1
  O  O161  1  0.88235612  0.89526442  0.88222531  1
  O  O162  1  0.23251317  0.01222147  0.36895516  1
  O  O163  1  0.25072761  0.00198292  0.86784951  1
  O  O164  1  0.25297591  0.51281382  0.37501172  1
  O  O165  1  0.25561025  0.50336558  0.85859467  1
  O  O166  1  0.74704372  0.01343767  0.38207430  1
  O  O167  1  0.76442562  0.00415915  0.86277686  1
  O  O168  1  0.74443343  0.51297716  0.35800528  1
  O  O169  1  0.75349084  0.50682408  0.86735081  1
  O  O170  1  0.30186706  0.49771565  0.14905128  1
  O  O171  1  0.25526930  0.49340174  0.62995241  1
  O  O172  1  0.23133464  1.00219588  0.15189427  1
  O  O173  1  0.23606714  1.04958429  0.63592698  1
  O  O174  1  0.73998686  0.51140688  0.13137630  1
  O  O175  1  0.74190919  0.49408558  0.63120173  1
  O  O176  1  0.74118124  1.00682936  0.11825579  1
  O  O177  1  0.74277647  1.00870068  0.63691418  1
  O  O178  1  0.01193900  0.36064146  0.24106450  1
  O  O179  1  0.00730182  0.37199245  0.75584309  1
  O  O180  1  0.00656455  0.87786374  0.26863652  1
  O  O181  1  -0.00677654  0.85813691  0.74148281  1
  O  O182  1  0.49365457  0.36572689  0.27373835  1
  O  O183  1  0.50477729  0.37301044  0.76285541  1
  O  O184  1  0.50329505  0.86342199  0.23823132  1
  O  O185  1  0.50286327  0.92822401  0.78315357  1
  O  O186  1  0.49670428  0.12513546  0.24472403  1
  O  O187  1  0.50445655  0.13980476  0.74535829  1
  O  O188  1  0.51187636  0.63278918  0.23186018  1
  O  O189  1  0.49086329  0.61253403  0.74808334  1
  O  O190  1  1.00460147  0.12672128  0.24803204  1
  O  O191  1  1.04610901  0.11310678  0.73487796  1
  O  O192  1  1.00540103  0.59911131  0.21902079  1
  O  O193  1  0.99770170  0.62708616  0.74307560  1
  O  O194  1  0.37911824  0.24700068  0.00925556  1
  O  O195  1  0.36020517  0.25423971  0.48937855  1
  O  O196  1  0.35857361  0.75418509  -0.01272160  1
  O  O197  1  0.39538752  0.75230805  0.52043120  1
  O  O198  1  0.88985631  0.24397321  0.02047377  1
  O  O199  1  0.86625151  0.26336416  0.50451509  1
  O  O200  1  0.87221831  0.75919708  -0.00551943  1
  O  O201  1  0.86406465  0.73597375  0.50646448  1
  O  O202  1  0.13379279  0.25718835  0.48417787  1
  O  O203  1  0.12452516  0.23106396  1.02244616  1
  O  O204  1  0.13116651  0.74715866  0.49524448  1
  O  O205  1  0.12937829  0.74288629  0.98438347  1
  O  O206  1  0.63694335  0.23814123  0.50578979  1
  O  O207  1  0.62269770  0.23565823  0.99421925  1
  O  O208  1  0.59689752  0.76245883  0.47885445  1
  O  O209  1  0.63463337  0.74758421  0.98670872  1
  O  O210  1  0.49339189  0.23479613  0.13550974  1
  O  O211  1  0.51263286  0.24688405  0.64164257  1
  O  O212  1  0.51418427  0.74151906  0.13218029  1
  O  O213  1  0.50956256  0.72658577  0.63092276  1
  O  O214  1  0.99802689  0.23266008  0.14199766  1
  O  O215  1  0.98791556  0.24806732  0.61406562  1
  O  O216  1  0.99337290  0.75112524  0.11825530  1
  O  O217  1  1.00454445  0.73386034  0.64289737  1
  O  O218  1  0.01114433  0.24331294  0.36380112  1
  O  O219  1  -0.00248268  0.24252305  0.85898778  1
  O  O220  1  0.01363327  0.75557413  0.38546291  1
  O  O221  1  0.01791224  0.74191821  0.86100485  1
  O  O222  1  0.49065059  0.23010920  0.36704057  1
  O  O223  1  0.50926820  0.25928887  0.87258581  1
  O  O224  1  0.51132232  0.74008299  0.35375982  1
  O  O225  1  0.51876312  0.74892469  0.86955092  1
  O  O226  1  0.24975763  0.13911243  0.48344775  1
  O  O227  1  0.23673064  0.10966255  1.02708030  1
  O  O228  1  0.23737056  0.62076176  0.49562193  1
  O  O229  1  0.24123045  0.62065317  0.98462783  1
  O  O230  1  0.73989667  0.13207407  0.48489399  1
  O  O231  1  0.74400650  0.12680327  0.99500833  1
  O  O232  1  0.75009003  0.61748931  0.48652103  1
  O  O233  1  0.74495193  0.63486823  0.98757750  1
  O  O234  1  0.26413324  0.38455271  0.00637083  1
  O  O235  1  0.26317499  0.37270175  0.50153396  1
  O  O236  1  0.25224703  0.87318213  0.00971679  1
  O  O237  1  0.26019126  0.90949462  0.50843171  1
  O  O238  1  0.67554339  0.39865782  0.04723275  1
  O  O239  1  0.75100049  0.36957222  0.50400574  1
  O  O240  1  0.76363437  0.86909366  -0.01356146  1
  O  O241  1  0.75920336  0.86423437  0.50251774  1
  O  O242  1  0.11913466  0.47917676  0.26594682  1
  O  O243  1  0.14199110  0.50179285  0.75220592  1
  O  O244  1  0.12740603  0.98566375  0.25452081  1
  O  O245  1  0.12062108  0.97195882  0.74614672  1
  O  O246  1  0.63470783  0.48924378  0.23483984  1
  O  O247  1  0.63906008  0.49344088  0.74928683  1
  O  O248  1  0.62701509  0.99222439  0.22879225  1
  O  O249  1  0.64516814  1.00761181  0.74505394  1
  O  O250  1  0.35694449  0.00114107  0.25384185  1
  O  O251  1  0.35621489  0.02317475  0.74522841  1
  O  O252  1  0.36011035  0.50059425  0.20434736  1
  O  O253  1  0.36768967  0.50859615  0.74915138  1
  O  O254  1  0.82905388  -0.04654467  0.24503793  1
  O  O255  1  0.87172530  0.00644116  0.75932667  1
  O  O256  1  0.85600553  0.48745909  0.23153901  1
  O  O257  1  0.86528417  0.50412926  0.75561614  1
  O  O258  1  0.12961033  0.36009095  0.36644178  1
  O  O259  1  0.09828288  0.37416853  0.89690447  1
  O  O260  1  0.11917539  0.86286275  0.37327906  1
  O  O261  1  0.13440843  0.85799282  0.86464034  1
  O  O262  1  0.60822509  0.38527319  0.36431956  1
  O  O263  1  0.62205687  0.36859761  0.87218902  1
  O  O264  1  0.63259393  0.86646676  0.36998532  1
  O  O265  1  0.63044521  0.86342224  0.87446623  1
  O  O266  1  0.38688968  0.12418893  0.13519503  1
  O  O267  1  0.39395104  0.13176443  0.64097859  1
  O  O268  1  0.39763798  0.63234698  0.11917694  1
  O  O269  1  0.39182730  0.62452169  0.63263747  1
  O  O270  1  0.89117636  0.12170098  0.13185198  1
  O  O271  1  0.86632579  0.14247398  0.60756023  1
  O  O272  1  0.87682445  0.64332508  0.10931576  1
  O  O273  1  0.88636070  0.61885974  0.63773609  1
  O  O274  1  0.27131989  0.24376252  0.13401764  1
  O  O275  1  0.24614159  0.26593310  0.60469914  1
  O  O276  1  0.23806735  0.74435436  0.14706470  1
  O  O277  1  0.27580438  0.74321366  0.62538748  1
  O  O278  1  0.76818569  0.22700897  0.12829786  1
  O  O279  1  0.75443404  0.26130875  0.61556855  1
  O  O280  1  0.75322687  0.74820171  0.10484382  1
  O  O281  1  0.71293021  0.74174945  0.59464166  1
  O  O282  1  0.23969163  0.24319883  0.37861856  1
  O  O283  1  0.26392008  0.26950666  0.89140971  1
  O  O284  1  0.23274925  0.74561386  0.36813398  1
  O  O285  1  0.23707074  0.73410267  0.85862529  1
  O  O286  1  0.75332615  0.24633954  0.38391430  1
  O  O287  1  0.73883767  0.25640045  0.86962693  1
  O  O288  1  0.73479281  0.74739239  0.39826645  1
  O  O289  1  0.74736160  0.74378943  0.87794746  1
  O  O290  1  0.01079851  0.10724623  0.01961133  1
  O  O291  1  -0.00682542  0.11357423  0.48664976  1
  O  O292  1  0.01516121  0.62520845  -0.01051747  1
  O  O293  1  0.01392401  0.63025904  0.52033239  1
  O  O294  1  0.50104679  0.12604713  0.01354668  1
  O  O295  1  0.51498422  0.14578004  0.52485566  1
  O  O296  1  0.50918599  0.62739480  0.00368323  1
  O  O297  1  0.49943299  0.62000909  0.51098444  1
  O  O298  1  0.49368962  0.37295810  0.48619542  1
  O  O299  1  0.51134478  0.38774318  0.99324543  1
  O  O300  1  0.47836366  0.92262956  0.46617607  1
  O  O301  1  0.48534582  0.87271996  0.99404184  1
  O  O302  1  0.98812006  0.37440522  0.49461470  1
  O  O303  1  0.99855327  0.40219866  1.06625266  1
  O  O304  1  0.98803772  0.86673793  0.49769938  1
  O  O305  1  0.99817733  0.89114146  1.00421525  1
  O  O306  1  0.49788872  0.50124880  0.36457152  1
  O  O307  1  0.50228755  0.49029110  0.87982654  1
  O  O308  1  0.45846311  0.91533222  0.39715862  1
  O  O309  1  0.48274662  0.99415846  0.84043734  1
  O  O310  1  0.96769820  0.56365079  0.38251674  1
  O  O311  1  0.98076244  0.50153774  0.87528900  1
  O  O312  1  1.00557695  0.97714567  0.39239584  1
  O  O313  1  1.00517984  1.00032429  0.88875822  1
  O  O314  1  0.00290221  0.00364399  0.13597395  1
  O  O315  1  -0.02529944  -0.00204031  0.61220636  1
  O  O316  1  -0.00377576  0.55159682  0.16256510  1
  O  O317  1  0.00298632  0.51151317  0.63285608  1
  O  O318  1  0.51391508  0.01523138  0.12790191  1
  O  O319  1  0.51533996  0.02171382  0.63966761  1
  O  O320  1  0.51667051  0.51467904  0.11257680  1
  O  O321  1  0.51403559  0.49959690  0.62668040  1
  O  O322  1  0.24486806  0.37174513  0.25558034  1
  O  O323  1  0.25905833  0.38484616  0.72750649  1
  O  O324  1  0.23760426  0.88130867  0.26258862  1
  O  O325  1  0.24714149  0.86706706  0.74191232  1
  O  O326  1  0.73056633  0.37847708  0.25503048  1
  O  O327  1  0.74823736  0.37979303  0.73816283  1
  O  O328  1  0.77982973  0.89827819  0.25586731  1
  O  O329  1  0.77224536  0.88727758  0.73605474  1
  O  O330  1  0.25306266  0.11686258  0.25816778  1
  O  O331  1  0.25971599  0.16180405  0.74798105  1
  O  O332  1  0.24088625  0.62996777  0.26761529  1
  O  O333  1  0.25865411  0.61207227  0.74983635  1
  O  O334  1  0.70838352  0.12941601  0.28184199  1
  O  O335  1  0.75502409  0.12309104  0.74881334  1
  O  O336  1  0.74823201  0.61449579  0.24838799  1
  O  O337  1  0.75928310  0.61731728  0.75373783  1
  O  O338  1  0.35567614  0.13151390  0.35804458  1
  O  O339  1  0.37999357  0.12007031  0.85373582  1
  O  O340  1  0.35725150  0.63591681  0.38203519  1
  O  O341  1  0.36962184  0.62391431  0.86158211  1
  O  O342  1  0.86058167  0.12714809  0.36198663  1
  O  O343  1  0.89661068  0.11037393  0.87271822  1
  O  O344  1  0.84411562  0.65492357  0.36053766  1
  O  O345  1  0.86546641  0.61570998  0.86636016  1
  O  O346  1  0.14430780  0.37104923  0.14244842  1
  O  O347  1  0.14075837  0.38090106  0.61080841  1
  O  O348  1  0.11151165  0.87908683  0.14583325  1
  O  O349  1  0.13022218  0.86029665  0.63552309  1
  O  O350  1  0.58057310  0.38285403  0.15513472  1
  O  O351  1  0.63215354  0.38335551  0.62871304  1
  O  O352  1  0.63001481  0.88959376  0.11144098  1
  O  O353  1  0.61203140  0.89657569  0.62539714  1
  O  O354  1  0.11952324  0.25707190  0.25817240  1
  O  O355  1  0.13910427  0.27217615  0.76532356  1
  O  O356  1  0.11582253  0.75899224  0.26165861  1
  O  O357  1  0.11867128  0.75564136  0.75423541  1
  O  O358  1  0.61354641  0.26542286  0.24714429  1
  O  O359  1  0.61891710  0.25653006  0.76080745  1
  O  O360  1  0.62572703  0.76284685  0.25582530  1
  O  O361  1  0.63806713  0.74867523  0.75970504  1
  O  O362  1  0.38247218  0.23789230  0.24318854  1
  O  O363  1  0.38852432  0.24708195  0.75771717  1
  O  O364  1  0.39471984  0.75252849  0.24967689  1
  O  O365  1  0.37831494  0.72973929  0.74389186  1
  O  O366  1  0.89133333  0.25274914  0.24694174  1
  O  O367  1  0.87735785  0.24094056  0.73086095  1
  O  O368  1  0.86910518  0.76258384  0.22013820  1
  O  O369  1  0.89040938  0.73699151  0.76587662  1
  O  O370  1  0.37730517  0.49009974  0.50146870  1
  O  O371  1  0.39224719  0.51382601  0.99465939  1
  O  O372  1  0.39537746  1.05265792  0.48691975  1
  O  O373  1  0.37430310  1.01972156  0.96513466  1
  O  O374  1  0.86986569  0.48312671  0.50514258  1
  O  O375  1  0.86236737  0.49797643  0.98398488  1
  O  O376  1  0.88087309  0.99669988  0.49186926  1
  O  O377  1  0.88804886  0.99938485  0.99139472  1
  O  O378  1  0.11541668  -0.00355031  0.01548055  1
  O  O379  1  0.09337541  -0.00932901  0.52260796  1
  O  O380  1  0.12274877  0.50995623  -0.01528064  1
  O  O381  1  0.12309432  0.50828634  0.49267265  1
  O  O382  1  0.62951800  0.01580694  0.00444081  1
  O  O383  1  0.63657288  0.01418441  0.52161773  1
  O  O384  1  0.61604616  0.52080590  -0.00626117  1
  O  O385  1  0.62908612  0.49300355  0.51108459  1
  O  O386  1  0.38336552  0.35331830  0.12951634  1
  O  O387  1  0.37421347  0.37422957  0.60756927  1
  O  O388  1  0.36365898  0.93531375  0.10335499  1
  O  O389  1  0.39486038  0.85769957  0.64109026  1
  O  O390  1  0.85898167  0.35410730  0.13329324  1
  O  O391  1  0.86695423  0.36701451  0.61944494  1
  O  O392  1  0.87871546  0.86581416  0.10249575  1
  O  O393  1  0.82130465  0.86791595  0.67214276  1
  O  O394  1  0.13338510  0.13749805  0.36585939  1
  O  O395  1  0.13032130  0.11897661  0.90565097  1
  O  O396  1  0.12978303  0.63317735  0.39118133  1
  O  O397  1  0.13347367  0.63048298  0.87583895  1
  O  O398  1  0.60146843  0.10646024  0.40306059  1
  O  O399  1  0.62002162  0.13158974  0.88932336  1
  O  O400  1  0.64046119  0.64307502  0.36545991  1
  O  O401  1  0.63633917  0.63452664  0.87751280  1
