# generated using pymatgen
data_V73Zn73O256
_symmetry_space_group_name_H-M   'P 1'
_cell_length_a   16.89635539
_cell_length_b   16.94121124
_cell_length_c   16.84735566
_cell_angle_alpha   89.93598972
_cell_angle_beta   89.93905036
_cell_angle_gamma   89.46657380
_symmetry_Int_Tables_number   1
_chemical_formula_structural   V73Zn73O256
_chemical_formula_sum   'V73 Zn73 O256'
_cell_volume   4822.25202001
_cell_formula_units_Z   1
loop_
 _symmetry_equiv_pos_site_id
 _symmetry_equiv_pos_as_xyz
  1  'x, y, z'
loop_
 _atom_site_type_symbol
 _atom_site_label
 _atom_site_symmetry_multiplicity
 _atom_site_fract_x
 _atom_site_fract_y
 _atom_site_fract_z
 _atom_site_occupancy
  V  V0  1  0.35417099  0.49835280  0.87360176  1
  V  V1  1  0.75188636  0.52251272  0.24663871  1
  V  V2  1  0.48714010  0.74778338  0.26756083  1
  V  V3  1  0.49733004  0.59661160  0.62016050  1
  V  V4  1  0.63140867  -0.00824461  0.12397721  1
  V  V5  1  0.86247920  0.26790866  0.11833828  1
  V  V6  1  0.13438052  0.61918271  0.00754188  1
  V  V7  1  0.49808029  0.37221902  0.38580528  1
  V  V8  1  0.24725576  -0.00233616  0.75415053  1
  V  V9  1  0.01210349  0.75848079  0.23799079  1
  V  V10  1  -0.00071158  0.24557983  0.73180300  1
  V  V11  1  0.12062552  0.12414310  0.00602564  1
  V  V12  1  0.87095368  0.01279075  0.35652277  1
  V  V13  1  0.38136702  0.50663489  0.38358522  1
  V  V14  1  0.24001182  0.62858536  0.37258366  1
  V  V15  1  0.62530861  0.86201553  0.75839277  1
  V  V16  1  0.61577154  -0.00370341  0.61671644  1
  V  V17  1  0.11940389  0.01062929  0.62110508  1
  V  V18  1  -0.00265789  0.37817844  0.37367855  1
  V  V19  1  0.87133750  0.51489305  0.36825171  1
  V  V20  1  0.77154035  0.75669979  -0.01056404  1
  V  V21  1  -0.01239539  0.88206954  0.88699204  1
  V  V22  1  0.62688323  0.50219725  0.12601814  1
  V  V23  1  0.69725312  0.21065662  -0.05574557  1
  V  V24  1  0.66644594  0.63303186  0.47245725  1
  V  V25  1  0.25213894  0.12299343  0.87853182  1
  V  V26  1  0.75817155  0.87642863  0.62401676  1
  V  V27  1  0.14111012  0.38569902  0.74056263  1
  V  V28  1  0.48594307  0.62739709  0.12924588  1
  V  V29  1  0.25154862  0.26513879  0.50179223  1
  V  V30  1  0.49562281  0.11548606  0.60923134  1
  V  V31  1  0.24612786  0.50603844  0.24383198  1
  V  V32  1  0.50550974  0.49388715  -0.01891873  1
  V  V33  1  0.25350791  0.25203387  0.00656022  1
  V  V34  1  0.36862149  0.63420448  0.75795637  1
  V  V35  1  0.37610673  0.12047413  0.75049759  1
  V  V36  1  0.63973275  0.38850467  0.74497754  1
  V  V37  1  0.13333893  0.74864055  0.88421255  1
  V  V38  1  0.74729455  0.01871253  0.75772852  1
  V  V39  1  0.87165432  0.01557991  0.88242137  1
  V  V40  1  0.86228284  0.50444571  0.87628266  1
  V  V41  1  0.12426962  0.25669917  0.36712965  1
  V  V42  1  -0.00763352  0.37863738  0.87939444  1
  V  V43  1  0.88254295  0.75597132  0.61360175  1
  V  V44  1  0.63164181  0.36688323  0.25396886  1
  V  V45  1  0.00764545  0.51963547  0.50864652  1
  V  V46  1  0.25220606  0.12658579  0.37575719  1
  V  V47  1  0.23601800  0.74393249  0.50089595  1
  V  V48  1  0.25117482  0.87475126  0.62123234  1
  V  V49  1  0.38028107  -0.01475085  0.39310446  1
  V  V50  1  0.49424520  0.00538515  0.00865635  1
  V  V51  1  0.86668883  0.37767407  0.51175850  1
  V  V52  1  0.23177567  0.37956159  0.13570940  1
  V  V53  1  0.49751120  0.25160946  0.76651978  1
  V  V54  1  0.38045553  0.37898030  0.00567027  1
  V  V55  1  -0.01507701  0.00562690  0.49966660  1
  V  V56  1  0.11831979  0.87900154  0.75189701  1
  V  V57  1  0.12354606  -0.00519198  0.12984466  1
  V  V58  1  0.63152812  0.63212817  -0.01924697  1
  V  V59  1  0.37001501  0.25882217  0.61837690  1
  V  V60  1  -0.00492979  0.74340395  0.75021926  1
  V  V61  1  0.38176737  0.24574704  0.13534831  1
  V  V62  1  0.62834648  0.85553967  0.26091882  1
  V  V63  1  0.71158760  0.21599661  0.49401595  1
  V  V64  1  -0.00973438  0.12382897  0.13090147  1
  V  V65  1  -0.01342595  0.25093477  0.25469728  1
  V  V66  1  0.25290172  -0.01002743  0.25124196  1
  V  V67  1  0.38595039  0.75494877  0.62442448  1
  V  V68  1  0.25892332  0.86534087  0.11392221  1
  V  V69  1  -0.01280699  0.61808819  0.12648077  1
  V  V70  1  0.50024130  0.85573024  0.87800106  1
  V  V71  1  0.01627168  0.87438483  0.37403096  1
  V  V72  1  0.12301309  0.25434700  0.87526851  1
  Zn  Zn73  1  0.11864630  0.13622444  0.50493344  1
  Zn  Zn74  1  0.51154656  0.24731680  0.25252254  1
  Zn  Zn75  1  0.76011419  0.86698461  0.11724007  1
  Zn  Zn76  1  0.38363606  0.11875170  0.24832173  1
  Zn  Zn77  1  0.86751387  0.61639728  0.74179389  1
  Zn  Zn78  1  0.85835525  0.22317531  0.62401235  1
  Zn  Zn79  1  0.38365870  -0.00615175  0.88235879  1
  Zn  Zn80  1  0.79538638  0.45013716  0.68756314  1
  Zn  Zn81  1  -0.00171214  0.49612695  0.00753628  1
  Zn  Zn82  1  0.18870393  0.18528292  0.19221022  1
  Zn  Zn83  1  0.18720170  0.19321890  0.69019683  1
  Zn  Zn84  1  0.17744046  0.68684124  0.19208128  1
  Zn  Zn85  1  0.20660399  0.70253184  0.71321002  1
  Zn  Zn86  1  0.67157222  0.18462762  0.11991549  1
  Zn  Zn87  1  0.67659234  0.19248126  0.67793653  1
  Zn  Zn88  1  0.68100520  0.69311612  0.17386011  1
  Zn  Zn89  1  0.67992145  0.69194698  0.65142622  1
  Zn  Zn90  1  0.31669139  0.32128174  0.31702965  1
  Zn  Zn91  1  0.31953372  0.31076332  0.81641335  1
  Zn  Zn92  1  0.31021466  0.80858023  0.31158487  1
  Zn  Zn93  1  0.32096137  0.81712744  0.92921212  1
  Zn  Zn94  1  0.80542038  0.31195343  0.32487920  1
  Zn  Zn95  1  0.81636963  0.30279398  0.80704006  1
  Zn  Zn96  1  0.84006075  0.82019740  0.26548256  1
  Zn  Zn97  1  0.80643307  0.81538749  0.81395230  1
  Zn  Zn98  1  0.18473481  0.44456046  0.43169182  1
  Zn  Zn99  1  0.18441527  0.43593760  0.94492309  1
  Zn  Zn100  1  0.19177838  0.93606750  0.43934142  1
  Zn  Zn101  1  0.17756944  0.93775333  0.94146574  1
  Zn  Zn102  1  0.68322959  0.44700851  0.43723952  1
  Zn  Zn103  1  0.68120091  0.41758119  0.92019316  1
  Zn  Zn104  1  0.74054227  0.87960666  0.40975123  1
  Zn  Zn105  1  0.68499721  0.93697256  0.94056463  1
  Zn  Zn106  1  0.31775495  0.05998632  0.06322886  1
  Zn  Zn107  1  0.30634216  0.06716892  0.56050920  1
  Zn  Zn108  1  0.31252232  0.68692467  0.06685994  1
  Zn  Zn109  1  0.32286824  0.57203627  0.55487597  1
  Zn  Zn110  1  0.80533373  0.06287161  0.06029530  1
  Zn  Zn111  1  0.79825167  0.06222396  0.55440341  1
  Zn  Zn112  1  0.81045546  0.56450790  0.05740115  1
  Zn  Zn113  1  0.83345198  0.58399726  0.54699949  1
  Zn  Zn114  1  0.43701755  0.44182103  0.19594026  1
  Zn  Zn115  1  0.43310011  0.43439538  0.69376614  1
  Zn  Zn116  1  0.43926171  0.92324477  0.18996745  1
  Zn  Zn117  1  0.43786030  0.93113308  0.69567842  1
  Zn  Zn118  1  0.93740906  0.43818915  0.18956000  1
  Zn  Zn119  1  0.96432607  0.44288597  0.69183005  1
  Zn  Zn120  1  0.93780481  0.94018644  0.19092780  1
  Zn  Zn121  1  0.93360905  0.95228702  0.69255189  1
  Zn  Zn122  1  0.06479864  0.06752085  0.31532619  1
  Zn  Zn123  1  0.05672427  0.06626526  0.81542268  1
  Zn  Zn124  1  0.06214558  0.56424458  0.31126542  1
  Zn  Zn125  1  0.06941473  0.56279317  0.81730535  1
  Zn  Zn126  1  0.55078874  0.03890209  0.29092252  1
  Zn  Zn127  1  0.57426959  0.06644014  0.82677606  1
  Zn  Zn128  1  0.56440164  0.57004775  0.31561710  1
  Zn  Zn129  1  0.58095177  0.58455819  0.77809367  1
  Zn  Zn130  1  0.46810854  0.15885462  0.40320456  1
  Zn  Zn131  1  0.52637397  0.18874108  0.95391160  1
  Zn  Zn132  1  0.43003538  0.68447186  0.44603562  1
  Zn  Zn133  1  0.44444975  0.67683041  0.93560901  1
  Zn  Zn134  1  0.93007432  0.18789101  0.44777721  1
  Zn  Zn135  1  0.93292539  0.19397594  0.94044959  1
  Zn  Zn136  1  0.89576512  0.72614007  0.40189711  1
  Zn  Zn137  1  0.94058743  0.67888576  0.93336072  1
  Zn  Zn138  1  0.05493567  0.30847355  0.06509867  1
  Zn  Zn139  1  0.06689749  0.32944985  0.55630547  1
  Zn  Zn140  1  0.05854961  0.81262520  0.06218486  1
  Zn  Zn141  1  0.05885881  0.82029918  0.56037732  1
  Zn  Zn142  1  0.59366147  0.33139552  0.04872606  1
  Zn  Zn143  1  0.55718297  0.31187572  0.56644758  1
  Zn  Zn144  1  0.56165485  0.81098114  0.06196875  1
  Zn  Zn145  1  0.57410344  0.80483586  0.54692502  1
  O  O146  1  0.12131241  0.12048215  0.12102100  1
  O  O147  1  0.13026492  0.11234228  0.62927323  1
  O  O148  1  0.11843857  0.62942819  0.11091257  1
  O  O149  1  0.16434471  0.57396405  0.62778784  1
  O  O150  1  0.61861268  0.09032771  0.15202466  1
  O  O151  1  0.60204076  0.11143598  0.62845270  1
  O  O152  1  0.61871252  0.61179955  0.10795953  1
  O  O153  1  0.59133002  0.61696794  0.65989398  1
  O  O154  1  0.38798130  0.38932915  0.37377669  1
  O  O155  1  0.36367015  0.38247406  0.89580356  1
  O  O156  1  0.36218954  0.88846309  0.37351153  1
  O  O157  1  0.39415186  0.87853602  0.86476251  1
  O  O158  1  0.88360240  0.38007901  0.38617687  1
  O  O159  1  0.88911443  0.37794360  0.86875141  1
  O  O160  1  0.90674909  0.90083145  0.36232788  1
  O  O161  1  0.88598763  0.88338611  0.86939817  1
  O  O162  1  0.25160310  0.00553582  0.36419267  1
  O  O163  1  0.24046983  0.00704726  0.86818300  1
  O  O164  1  0.25703287  0.51230945  0.37104325  1
  O  O165  1  0.25658766  0.50328727  0.88599288  1
  O  O166  1  0.77506052  -0.01656776  0.37508053  1
  O  O167  1  0.75586586  0.00370914  0.86741105  1
  O  O168  1  0.76230197  0.50315244  0.36146544  1
  O  O169  1  0.76412254  0.48516011  0.87787433  1
  O  O170  1  0.24804012  0.48673340  0.13755738  1
  O  O171  1  0.21908192  0.52562930  0.61594773  1
  O  O172  1  0.24300583  0.99352237  0.13270571  1
  O  O173  1  0.24163923  0.99480803  0.63519737  1
  O  O174  1  0.74410809  0.50590977  0.13637909  1
  O  O175  1  0.75833149  0.54767226  0.63604627  1
  O  O176  1  0.73698379  0.99002647  0.11616050  1
  O  O177  1  0.73550943  0.99478039  0.63678874  1
  O  O178  1  -0.00500141  0.36470440  0.26223269  1
  O  O179  1  0.01708936  0.36409933  0.76181718  1
  O  O180  1  0.01127041  0.86546942  0.25457017  1
  O  O181  1  0.00916907  0.87724080  0.75681555  1
  O  O182  1  0.51226604  0.37611549  0.25838386  1
  O  O183  1  0.48121873  0.35046901  0.75334744  1
  O  O184  1  0.50648744  0.85427713  0.25077676  1
  O  O185  1  0.51661493  0.88141987  0.76218971  1
  O  O186  1  0.49446753  0.13663000  0.28676721  1
  O  O187  1  0.48328180  0.12494425  0.75104574  1
  O  O188  1  0.50221758  0.63459557  0.23698289  1
  O  O189  1  0.47133068  0.60370400  0.73849607  1
  O  O190  1  1.00664149  0.13690086  0.23775841  1
  O  O191  1  1.00920689  0.14725059  0.75272019  1
  O  O192  1  1.01260347  0.62703205  0.22925959  1
  O  O193  1  1.00752540  0.64340198  0.75269180  1
  O  O194  1  0.36180349  0.25880169  0.01402884  1
  O  O195  1  0.36048666  0.24771112  0.51079064  1
  O  O196  1  0.37399453  0.74251594  -0.00743496  1
  O  O197  1  0.36113385  0.74715356  0.52035614  1
  O  O198  1  0.87582991  0.25146360  0.01873775  1
  O  O199  1  0.88771340  0.27287563  0.51539249  1
  O  O200  1  0.87191445  0.74604965  -0.00549251  1
  O  O201  1  0.89212905  0.76336184  0.51635395  1
  O  O202  1  0.13567930  0.25303941  0.49274536  1
  O  O203  1  0.13389340  0.24436250  0.99670374  1
  O  O204  1  0.13725566  0.75002021  0.51129957  1
  O  O205  1  0.12069501  0.74664778  0.98840466  1
  O  O206  1  0.61251707  0.23935465  0.49633066  1
  O  O207  1  0.60194883  0.22066255  1.03391653  1
  O  O208  1  0.63935183  0.71505607  0.53951854  1
  O  O209  1  0.61550703  0.73010966  0.99122032  1
  O  O210  1  0.48069604  0.25361268  0.13291757  1
  O  O211  1  0.48131363  0.23120358  0.62880591  1
  O  O212  1  0.49983317  0.72727063  0.11357862  1
  O  O213  1  0.48439676  0.76109439  0.62329316  1
  O  O214  1  0.98881963  0.24295479  0.13481059  1
  O  O215  1  1.01873065  0.25358813  0.63314996  1
  O  O216  1  1.00415462  0.74448117  0.13313902  1
  O  O217  1  0.99301839  0.77001210  0.64218246  1
  O  O218  1  0.00445790  0.25535234  0.37262249  1
  O  O219  1  0.00735120  0.25943177  0.87271522  1
  O  O220  1  0.00857340  0.77689563  0.39418405  1
  O  O221  1  0.00506349  0.76476209  0.86398183  1
  O  O222  1  0.49099799  0.26954697  0.37374521  1
  O  O223  1  0.47846822  0.24005280  0.86604365  1
  O  O224  1  0.49075130  0.74004375  0.36754410  1
  O  O225  1  0.50014096  0.75687298  0.87144375  1
  O  O226  1  0.24320600  0.13542816  0.49006919  1
  O  O227  1  0.24337190  0.13222040  0.99723030  1
  O  O228  1  0.24873837  0.63703402  0.49214598  1
  O  O229  1  0.23352621  0.62747597  1.00615541  1
  O  O230  1  0.72153842  0.11488880  0.48918636  1
  O  O231  1  0.74124289  0.14582627  1.01232026  1
  O  O232  1  0.76859756  0.64335651  0.47325895  1
  O  O233  1  0.73619937  0.62857655  0.99384600  1
  O  O234  1  0.25342133  0.36954789  0.01464265  1
  O  O235  1  0.24633602  0.36364612  0.49334951  1
  O  O236  1  0.24938860  0.87587122  0.00806305  1
  O  O237  1  0.24514734  0.86350988  0.51336375  1
  O  O238  1  0.69164396  0.31745901  -0.02365234  1
  O  O239  1  0.76743203  0.38998861  0.49834668  1
  O  O240  1  0.75363026  0.86225886  -0.00430726  1
  O  O241  1  0.74218060  0.88015859  0.52600054  1
  O  O242  1  0.14696553  0.49883923  0.26357816  1
  O  O243  1  0.12653421  0.48429249  0.76092273  1
  O  O244  1  0.13843029  1.00952363  0.23744840  1
  O  O245  1  0.12703388  0.99843590  0.74368023  1
  O  O246  1  0.63848912  0.50545121  0.24467372  1
  O  O247  1  0.63757530  0.48841405  0.75023496  1
  O  O248  1  0.61645737  0.96739520  0.23892294  1
  O  O249  1  0.63559069  0.99798282  0.75304291  1
  O  O250  1  0.36160135  -0.00090344  0.24904409  1
  O  O251  1  0.36120617  0.00516966  0.75272233  1
  O  O252  1  0.35644194  0.49476092  0.26343122  1
  O  O253  1  0.36733416  0.48690574  0.77242726  1
  O  O254  1  0.88366690  0.01841943  0.25581958  1
  O  O255  1  0.85562901  0.00145385  0.75965237  1
  O  O256  1  0.86118052  0.49690424  0.25632965  1
  O  O257  1  0.88012364  0.49604069  0.75803006  1
  O  O258  1  0.11114371  0.36575742  0.38136873  1
  O  O259  1  0.12194710  0.36413660  0.87511939  1
  O  O260  1  0.11726478  0.89364690  0.36814518  1
  O  O261  1  0.11232225  0.87154524  0.87087554  1
  O  O262  1  0.61192625  0.39068633  0.36380900  1
  O  O263  1  0.61495422  0.36385744  0.84212457  1
  O  O264  1  0.63561652  0.86110754  0.36148303  1
  O  O265  1  0.61965509  0.87371240  0.86526456  1
  O  O266  1  0.36382503  0.14157811  0.12998210  1
  O  O267  1  0.37928637  0.12171938  0.63348933  1
  O  O268  1  0.38710723  0.61648550  0.12078909  1
  O  O269  1  0.38120701  0.63448658  0.63166895  1
  O  O270  1  0.89068273  0.12117323  0.12072167  1
  O  O271  1  0.87677366  0.11388447  0.61232387  1
  O  O272  1  0.88737442  0.62533195  0.12023849  1
  O  O273  1  0.88358051  0.65283379  0.62736366  1
  O  O274  1  0.24975142  0.26052545  0.12270517  1
  O  O275  1  0.25673619  0.24358691  0.61304189  1
  O  O276  1  0.24268941  0.76276301  0.12984388  1
  O  O277  1  0.25129042  0.75709740  0.62097836  1
  O  O278  1  0.76677504  0.24329271  0.14076584  1
  O  O279  1  0.74335242  0.23792327  0.59659696  1
  O  O280  1  0.74283233  0.74587566  0.09596112  1
  O  O281  1  0.77064251  0.76804106  0.63695307  1
  O  O282  1  0.24644153  0.24829078  0.38233634  1
  O  O283  1  0.24352180  0.24177155  0.88597316  1
  O  O284  1  0.25438597  0.74120246  0.38872762  1
  O  O285  1  0.23126096  0.76295309  0.87073746  1
  O  O286  1  0.75472328  0.25290700  0.40807746  1
  O  O287  1  0.76815977  0.22688854  0.87345093  1
  O  O288  1  0.80709063  0.79533179  0.37252431  1
  O  O289  1  0.75315799  0.74730648  0.88669406  1
  O  O290  1  0.01224409  0.13727126  0.01679951  1
  O  O291  1  0.00576127  0.11040728  0.49946593  1
  O  O292  1  0.00849812  0.62588064  0.01120681  1
  O  O293  1  -0.01078461  0.61370239  0.48689065  1
  O  O294  1  0.48724019  0.10431934  0.01627234  1
  O  O295  1  0.48865016  0.12111358  0.51085025  1
  O  O296  1  0.50920714  0.60473707  0.00455995  1
  O  O297  1  0.49631047  0.62759739  0.52226459  1
  O  O298  1  0.50987866  0.37992709  0.48514605  1
  O  O299  1  0.49406319  0.38635692  1.01017554  1
  O  O300  1  0.51553541  0.88117807  0.49510624  1
  O  O301  1  0.50699546  0.87554808  0.98133053  1
  O  O302  1  0.99151200  0.39038150  0.49064322  1
  O  O303  1  1.00688375  0.37569688  0.98440026  1
  O  O304  1  1.01384821  0.89921822  0.49053518  1
  O  O305  1  1.00031300  0.87664196  0.98595336  1
  O  O306  1  0.48614146  0.50120976  0.36854582  1
  O  O307  1  0.50275753  0.49371254  0.88351015  1
  O  O308  1  0.47878657  1.00212447  0.37587789  1
  O  O309  1  0.50448574  1.00108931  0.89289764  1
  O  O310  1  0.98752039  0.49186608  0.36447543  1
  O  O311  1  0.99605838  0.48538674  0.87189862  1
  O  O312  1  0.99792004  1.00449377  0.38520852  1
  O  O313  1  0.98784729  0.99114397  0.86907431  1
  O  O314  1  0.01429629  0.01317606  0.13498522  1
  O  O315  1  0.01284858  -0.00455127  0.61724746  1
  O  O316  1  -0.00292924  0.51054502  0.12483326  1
  O  O317  1  -0.00120524  0.51303975  0.61094749  1
  O  O318  1  0.50473446  -0.02029971  0.11395185  1
  O  O319  1  0.50199065  0.00662391  0.63259151  1
  O  O320  1  0.50899193  0.51041605  0.12839856  1
  O  O321  1  0.48304710  0.49749147  0.61595144  1
  O  O322  1  0.24753960  0.37951032  0.24086370  1
  O  O323  1  0.23964334  0.36624334  0.75630559  1
  O  O324  1  0.24756023  0.88678721  0.24061090  1
  O  O325  1  0.23388921  0.88720948  0.74477798  1
  O  O326  1  0.73444788  0.38202476  0.26237525  1
  O  O327  1  0.74512816  0.36300423  0.73895659  1
  O  O328  1  0.72845136  0.84572726  0.23590791  1
  O  O329  1  0.73854358  0.88571333  0.74681130  1
  O  O330  1  0.25310429  0.11603608  0.25998193  1
  O  O331  1  0.25202231  0.11758845  0.75771501  1
  O  O332  1  0.24965524  0.61874445  0.25899428  1
  O  O333  1  0.26779395  0.61454660  0.74480545  1
  O  O334  1  0.73790671  0.13237876  0.27367176  1
  O  O335  1  0.74025709  0.11679295  0.74345594  1
  O  O336  1  0.74805493  0.62066325  0.24487342  1
  O  O337  1  0.75269408  0.60608312  0.69921219  1
  O  O338  1  0.36041063  0.11140412  0.37653771  1
  O  O339  1  0.35689589  0.11812713  0.86853626  1
  O  O340  1  0.36406070  0.61419260  0.37965566  1
  O  O341  1  0.37771201  0.60936248  0.86593980  1
  O  O342  1  0.87452391  0.11246895  0.38591668  1
  O  O343  1  0.88777844  0.11382636  0.87426080  1
  O  O344  1  0.88301774  0.61098598  0.37067084  1
  O  O345  1  0.87800140  0.60881855  0.86201304  1
  O  O346  1  0.13309849  0.37138327  0.12281357  1
  O  O347  1  0.12791305  0.37864242  0.64003202  1
  O  O348  1  0.12945171  0.89233507  0.11745262  1
  O  O349  1  0.13164743  0.88615198  0.63421170  1
  O  O350  1  0.62187019  0.39317288  0.14238236  1
  O  O351  1  0.60441143  0.36636686  0.65007503  1
  O  O352  1  0.62855759  0.87679466  0.12524988  1
  O  O353  1  0.62946000  0.88485653  0.64019865  1
  O  O354  1  0.11603288  0.24831327  0.26182149  1
  O  O355  1  0.12244819  0.25783529  0.76120422  1
  O  O356  1  0.10960277  0.74129419  0.26523360  1
  O  O357  1  0.11662153  0.76023807  0.75780291  1
  O  O358  1  0.62871744  0.26664397  0.24199184  1
  O  O359  1  0.59674240  0.23707935  0.74701979  1
  O  O360  1  0.60502643  0.74982793  0.24047509  1
  O  O361  1  0.63401894  0.76479216  0.74153184  1
  O  O362  1  0.36871285  0.25082356  0.24092864  1
  O  O363  1  0.37123296  0.23637866  0.73940823  1
  O  O364  1  0.38717191  0.75310504  0.24681370  1
  O  O365  1  0.37002887  0.73545170  0.74073492  1
  O  O366  1  0.88309639  0.25314066  0.24963528  1
  O  O367  1  0.89393602  0.26234005  0.72986736  1
  O  O368  1  0.91955257  0.73342448  0.27878857  1
  O  O369  1  0.88980664  0.75132493  0.75273816  1
  O  O370  1  0.36614830  0.49586884  0.48465469  1
  O  O371  1  0.39143645  0.49339268  0.98855604  1
  O  O372  1  0.36253497  0.99517885  0.49272184  1
  O  O373  1  0.38481915  0.99107784  1.00170447  1
  O  O374  1  0.88349334  0.49698205  0.48343571  1
  O  O375  1  0.88024951  0.50536491  0.98153721  1
  O  O376  1  0.88586187  0.99619906  0.49987748  1
  O  O377  1  0.86487884  1.00251475  0.98223094  1
  O  O378  1  0.13040494  0.01446151  0.01540575  1
  O  O379  1  0.13302901  0.00438811  0.51740195  1
  O  O380  1  0.11739530  0.51631179  -0.01009724  1
  O  O381  1  0.10693389  0.50272274  0.48747276  1
  O  O382  1  0.61333885  -0.00439092  0.01344285  1
  O  O383  1  0.61760157  -0.01040347  0.52123210  1
  O  O384  1  0.61776854  0.49060322  0.00388518  1
  O  O385  1  0.65001439  0.53626594  0.50164589  1
  O  O386  1  0.36533120  0.36837566  0.11972457  1
  O  O387  1  0.37316181  0.35601300  0.62779057  1
  O  O388  1  0.35633780  0.87377601  0.12541447  1
  O  O389  1  0.36139717  0.86344569  0.64063374  1
  O  O390  1  0.87305667  0.36724302  0.12734633  1
  O  O391  1  0.87711653  0.39938938  0.61392136  1
  O  O392  1  0.86719153  0.86139021  0.16151299  1
  O  O393  1  0.86433097  0.87805730  0.63489196  1
  O  O394  1  0.13519232  0.13791677  0.37700418  1
  O  O395  1  0.13027356  0.13283150  0.88484266  1
  O  O396  1  0.14159624  0.62338928  0.37573603  1
  O  O397  1  0.11943465  0.64317458  0.88273630  1
  O  O398  1  0.68921516  0.11000542  0.32226244  1
  O  O399  1  0.62531337  0.15187678  0.89133123  1
  O  O400  1  0.62855066  0.64000822  0.37808805  1
  O  O401  1  0.61658148  0.61432783  0.88227833  1
