# generated using pymatgen
data_V73Zn73O256
_symmetry_space_group_name_H-M   'P 1'
_cell_length_a   16.91248067
_cell_length_b   16.93981485
_cell_length_c   16.97365846
_cell_angle_alpha   90.03588558
_cell_angle_beta   90.02256885
_cell_angle_gamma   90.45224961
_symmetry_Int_Tables_number   1
_chemical_formula_structural   V73Zn73O256
_chemical_formula_sum   'V73 Zn73 O256'
_cell_volume   4862.70342268
_cell_formula_units_Z   1
loop_
 _symmetry_equiv_pos_site_id
 _symmetry_equiv_pos_as_xyz
  1  'x, y, z'
loop_
 _atom_site_type_symbol
 _atom_site_label
 _atom_site_symmetry_multiplicity
 _atom_site_fract_x
 _atom_site_fract_y
 _atom_site_fract_z
 _atom_site_occupancy
  V  V0  1  0.57920809  0.07358574  -0.04903828  1
  V  V1  1  0.63155051  0.36595882  0.26657601  1
  V  V2  1  0.12732033  0.12633780  -0.00245909  1
  V  V3  1  0.74104442  -0.00982798  0.74670828  1
  V  V4  1  0.89657280  0.28225237  0.14326057  1
  V  V5  1  0.24744328  0.73274640  -0.00154448  1
  V  V6  1  0.38056371  0.38873805  0.51543737  1
  V  V7  1  0.01232557  0.87320429  0.34586896  1
  V  V8  1  0.00338324  0.25893247  0.74452049  1
  V  V9  1  0.87219126  0.63669117  0.24919164  1
  V  V10  1  0.75608917  0.61832831  0.87283357  1
  V  V11  1  0.62314174  0.86175425  0.25145007  1
  V  V12  1  0.86537853  0.24990456  0.62734595  1
  V  V13  1  0.75426818  0.38686057  0.12380348  1
  V  V14  1  0.25183488  0.11520849  0.37349869  1
  V  V15  1  0.37775212  0.26252597  0.13000916  1
  V  V16  1  0.88406476  0.12413255  0.75094363  1
  V  V17  1  0.25356124  0.62342122  0.39850626  1
  V  V18  1  0.63339335  0.62233368  0.48908987  1
  V  V19  1  0.87906058  0.35007881  0.46243072  1
  V  V20  1  0.61353736  0.75249751  0.86117500  1
  V  V21  1  0.62010517  0.49955164  0.12595265  1
  V  V22  1  0.24981603  -0.00749908  0.24971559  1
  V  V23  1  0.26816088  0.88451057  0.10796393  1
  V  V24  1  0.87721388  0.38706773  -0.01465053  1
  V  V25  1  0.00312341  0.63498967  0.60601204  1
  V  V26  1  0.12545617  -0.00435946  0.12582461  1
  V  V27  1  0.49463112  0.37009427  0.38805336  1
  V  V28  1  0.50710971  0.12282182  0.62719046  1
  V  V29  1  0.26218196  0.00113034  0.75006597  1
  V  V30  1  0.87048423  -0.00791659  0.87275996  1
  V  V31  1  0.51433795  0.13459005  0.12939350  1
  V  V32  1  0.38276568  0.12228475  0.25272592  1
  V  V33  1  0.75512256  0.12767215  0.87691597  1
  V  V34  1  0.49696057  0.38522093  0.88975449  1
  V  V35  1  0.24596581  0.36778894  0.63156294  1
  V  V36  1  0.12824192  0.48367890  0.13854239  1
  V  V37  1  0.25596825  0.87966231  0.61466185  1
  V  V38  1  0.88664410  0.62943395  0.74993868  1
  V  V39  1  0.87720161  0.12323813  0.24775753  1
  V  V40  1  0.87035286  0.75319112  0.12190094  1
  V  V41  1  0.11525500  0.74803402  0.87597893  1
  V  V42  1  -0.00353430  -0.00437528  -0.00676133  1
  V  V43  1  0.12281169  0.25076284  0.87876703  1
  V  V44  1  0.01123712  0.63846139  0.12342427  1
  V  V45  1  0.75558548  0.25247505  0.00301030  1
  V  V46  1  0.12774506  0.25766222  0.36334443  1
  V  V47  1  0.87371577  -0.00508422  0.37715106  1
  V  V48  1  0.75727915  0.38550052  0.62957801  1
  V  V49  1  0.25584770  0.26306220  0.00622263  1
  V  V50  1  0.60891311  0.50189452  0.62277027  1
  V  V51  1  0.50574684  0.25837244  0.74845563  1
  V  V52  1  -0.00268880  0.12421749  0.12621909  1
  V  V53  1  -0.00109934  -0.00616126  0.50913240  1
  V  V54  1  0.62329011  -0.01178584  0.12311957  1
  V  V55  1  0.00291461  0.51272172  -0.00795000  1
  V  V56  1  0.86432722  0.87416844  -0.00073335  1
  V  V57  1  0.50263489  0.00072766  0.48281888  1
  V  V58  1  0.91014656  0.52476840  0.38187684  1
  V  V59  1  0.75156669  0.50489725  0.26600101  1
  V  V60  1  0.73744751  0.75147719  0.00079693  1
  V  V61  1  0.60601560  0.61794378  -0.00441342  1
  V  V62  1  0.26573228  0.23638148  0.50774067  1
  V  V63  1  0.85500029  0.75914866  0.61769795  1
  V  V64  1  0.49522660  0.85749793  0.36750961  1
  V  V65  1  0.64451224  0.14163327  0.48444638  1
  V  V66  1  0.49067618  0.63289915  0.14435457  1
  V  V67  1  0.11735677  0.11950603  0.50807696  1
  V  V68  1  0.74877254  0.00055529  0.24560462  1
  V  V69  1  0.37767700  0.61656293  0.75591348  1
  V  V70  1  0.38288433  0.75246185  0.60897856  1
  V  V71  1  0.63369802  -0.00961929  0.61809152  1
  V  V72  1  0.63042519  0.25971298  0.87520293  1
  Zn  Zn73  1  0.35949658  0.93027974  0.92390792  1
  Zn  Zn74  1  0.11533391  -0.13331012  0.74316337  1
  Zn  Zn75  1  0.11419422  0.50983070  0.62275299  1
  Zn  Zn76  1  0.33722759  0.18417807  0.68617151  1
  Zn  Zn77  1  0.74949725  0.49717885  0.75795041  1
  Zn  Zn78  1  0.33139195  -0.06568650  0.42919663  1
  Zn  Zn79  1  0.00212611  0.38598629  0.87100947  1
  Zn  Zn80  1  0.15199199  0.39442560  0.76430604  1
  Zn  Zn81  1  0.26581253  0.11832840  0.87328467  1
  Zn  Zn82  1  0.19259057  0.18372233  0.18539772  1
  Zn  Zn83  1  0.15819395  0.14401083  0.71335441  1
  Zn  Zn84  1  0.19854608  0.70855322  0.19037970  1
  Zn  Zn85  1  0.19589596  0.69265262  0.67825063  1
  Zn  Zn86  1  0.70615925  0.19784960  0.19439476  1
  Zn  Zn87  1  0.68586668  0.18302587  0.68734734  1
  Zn  Zn88  1  0.68457558  0.68090317  0.18283281  1
  Zn  Zn89  1  0.67635436  0.68010346  0.68143785  1
  Zn  Zn90  1  0.32753931  0.29820849  0.32933953  1
  Zn  Zn91  1  0.32103449  0.30765833  0.82153781  1
  Zn  Zn92  1  0.31569988  0.79990949  0.29637443  1
  Zn  Zn93  1  0.27412219  0.79496652  0.79327233  1
  Zn  Zn94  1  0.94656401  0.31546672  0.31580654  1
  Zn  Zn95  1  0.81363603  0.31554623  0.80813573  1
  Zn  Zn96  1  0.81242445  0.82332319  0.30678786  1
  Zn  Zn97  1  0.80257373  0.80561210  0.80981270  1
  Zn  Zn98  1  0.18774777  0.42840609  0.45182016  1
  Zn  Zn99  1  0.17815017  0.43737402  0.95568795  1
  Zn  Zn100  1  0.15053102  0.89624468  0.46632539  1
  Zn  Zn101  1  0.18021355  0.93822115  0.92678502  1
  Zn  Zn102  1  0.69385317  0.43316821  0.44849154  1
  Zn  Zn103  1  0.68283253  0.43947986  0.94074112  1
  Zn  Zn104  1  0.68071156  0.94435241  0.42644759  1
  Zn  Zn105  1  0.52522480  0.89231370  0.89316161  1
  Zn  Zn106  1  0.31727149  0.07426751  0.06424351  1
  Zn  Zn107  1  0.32036710  0.05329037  0.56497393  1
  Zn  Zn108  1  0.30686653  0.56300902  0.07356344  1
  Zn  Zn109  1  0.31242632  0.56492798  0.59750591  1
  Zn  Zn110  1  0.80777557  0.06072907  0.06221834  1
  Zn  Zn111  1  0.81613898  0.06661260  0.56263821  1
  Zn  Zn112  1  0.81482278  0.56797320  0.05796120  1
  Zn  Zn113  1  0.81365834  0.57846090  0.55752504  1
  Zn  Zn114  1  0.45051022  0.43109196  0.21145839  1
  Zn  Zn115  1  0.42991707  0.43265715  0.69528456  1
  Zn  Zn116  1  0.44453282  0.94510557  0.19026317  1
  Zn  Zn117  1  0.43952075  0.82572546  0.74895386  1
  Zn  Zn118  1  0.93980699  0.45839164  0.18558126  1
  Zn  Zn119  1  0.93612012  0.45036185  0.68572505  1
  Zn  Zn120  1  0.93503108  0.93749400  0.17928874  1
  Zn  Zn121  1  0.93355303  0.92887783  0.68355816  1
  Zn  Zn122  1  0.06564852  0.05824103  0.31540168  1
  Zn  Zn123  1  0.04800746  0.02479929  0.78993388  1
  Zn  Zn124  1  0.07741183  0.60334755  0.30019027  1
  Zn  Zn125  1  0.07644872  0.57011411  0.80333186  1
  Zn  Zn126  1  0.57163001  0.07264437  0.30835828  1
  Zn  Zn127  1  0.47797752  0.01154822  0.76961509  1
  Zn  Zn128  1  0.52985754  0.56135474  0.33676973  1
  Zn  Zn129  1  0.55826482  0.56385029  0.79860904  1
  Zn  Zn130  1  0.45237708  0.18440260  0.43318374  1
  Zn  Zn131  1  0.44227724  0.20081092  0.94433652  1
  Zn  Zn132  1  0.46047215  0.68697612  0.46335946  1
  Zn  Zn133  1  0.39806898  0.73598702  0.89592228  1
  Zn  Zn134  1  0.93849294  0.18362143  0.43133110  1
  Zn  Zn135  1  0.93793482  0.19127561  0.93995140  1
  Zn  Zn136  1  0.93443564  0.70863743  0.43743445  1
  Zn  Zn137  1  0.93822940  0.69272001  0.93443544  1
  Zn  Zn138  1  0.06253569  0.31919307  0.06260749  1
  Zn  Zn139  1  0.06283227  0.30570984  0.55211888  1
  Zn  Zn140  1  0.06148045  0.81534029  0.05334582  1
  Zn  Zn141  1  0.05567547  0.80396720  0.57469098  1
  Zn  Zn142  1  0.56647550  0.31430498  0.06646636  1
  Zn  Zn143  1  0.57193939  0.31281250  0.56464194  1
  Zn  Zn144  1  0.44153742  0.80749336  0.05420623  1
  Zn  Zn145  1  0.55613559  0.80981939  0.56314302  1
  O  O146  1  0.11714613  0.11994228  0.11580240  1
  O  O147  1  0.12261590  0.13200391  0.60559340  1
  O  O148  1  0.11016340  0.64820378  0.12750558  1
  O  O149  1  0.10623837  0.63542929  0.63011036  1
  O  O150  1  0.61627869  0.14292037  0.14347132  1
  O  O151  1  0.62361864  0.12148534  0.61050114  1
  O  O152  1  0.61227295  0.61837913  0.11631752  1
  O  O153  1  0.61822701  0.60783910  0.61213035  1
  O  O154  1  0.38001709  0.37070291  0.40415298  1
  O  O155  1  0.39713674  0.37233236  0.87442053  1
  O  O156  1  0.38656836  0.86890346  0.35564750  1
  O  O157  1  0.36972229  0.84155242  0.84796569  1
  O  O158  1  0.89989893  0.41539552  0.37620524  1
  O  O159  1  0.87650124  0.37926525  0.88202140  1
  O  O160  1  0.88599476  0.89133536  0.36452483  1
  O  O161  1  0.86286097  0.88552110  0.88237731  1
  O  O162  1  0.25911745  0.00660842  0.36481819  1
  O  O163  1  0.26014957  -0.00365362  0.86636933  1
  O  O164  1  0.25376677  0.51746000  0.40852355  1
  O  O165  1  0.27578479  0.49871779  0.90743911  1
  O  O166  1  0.76561772  -0.00413673  0.36435897  1
  O  O167  1  0.75651607  0.01396331  0.86204558  1
  O  O168  1  0.75335630  0.49573962  0.36437623  1
  O  O169  1  0.74515175  0.51435903  0.87916496  1
  O  O170  1  0.22704501  0.49956137  0.11980822  1
  O  O171  1  0.24542107  0.46849321  0.62269279  1
  O  O172  1  0.24701383  0.99857596  0.12849703  1
  O  O173  1  0.25427747  0.99921208  0.63737387  1
  O  O174  1  0.74422587  0.49912721  0.12210688  1
  O  O175  1  0.76771529  0.48746168  0.62061082  1
  O  O176  1  0.73346661  1.00643716  0.13114364  1
  O  O177  1  0.74630618  1.00551760  0.63480461  1
  O  O178  1  -0.04306802  0.34938947  0.21131200  1
  O  O179  1  -0.00335033  0.36352350  0.75331715  1
  O  O180  1  0.00287793  0.87789895  0.24526623  1
  O  O181  1  0.01817799  0.92203162  0.75137197  1
  O  O182  1  0.53881557  0.34957466  0.23463343  1
  O  O183  1  0.50530389  0.35893283  0.75240421  1
  O  O184  1  0.51141941  0.87827994  0.25607562  1
  O  O185  1  0.50978115  0.90590450  0.77957469  1
  O  O186  1  0.48898204  0.12603829  0.24655918  1
  O  O187  1  0.50870149  0.11689334  0.72918088  1
  O  O188  1  0.50605339  0.62215013  0.24298111  1
  O  O189  1  0.48116713  0.62546161  0.74475163  1
  O  O190  1  0.99312437  0.11407704  0.23484106  1
  O  O191  1  0.98887992  0.13089318  0.75825343  1
  O  O192  1  0.98433941  0.63475094  0.22884831  1
  O  O193  1  0.98596821  0.62989519  0.75669758  1
  O  O194  1  0.36384143  0.25062806  0.01267567  1
  O  O195  1  0.36548536  0.23533256  0.49443890  1
  O  O196  1  0.35288796  0.74687743  0.00427061  1
  O  O197  1  0.39877226  0.77191204  0.50862247  1
  O  O198  1  0.87100539  0.26796364  0.00284138  1
  O  O199  1  0.88125553  0.23726214  0.52975574  1
  O  O200  1  0.86431514  0.75683322  0.00113855  1
  O  O201  1  0.86598088  0.74761602  0.51706036  1
  O  O202  1  0.13641413  0.23434049  0.48783789  1
  O  O203  1  0.13253067  0.24737930  0.99905228  1
  O  O204  1  0.13000141  0.78644082  0.49407983  1
  O  O205  1  0.13514135  0.76212785  0.98787221  1
  O  O206  1  0.62689588  0.24068723  0.49774629  1
  O  O207  1  0.64867843  0.25886277  0.99750976  1
  O  O208  1  0.57956850  0.71388702  0.50572788  1
  O  O209  1  0.63378953  0.73179309  0.99984278  1
  O  O210  1  0.48678819  0.24445480  0.11514982  1
  O  O211  1  0.51706710  0.24028721  0.64113199  1
  O  O212  1  0.48693515  0.73217267  0.12442355  1
  O  O213  1  0.47956724  0.78528764  0.64453156  1
  O  O214  1  0.98865748  0.23765382  0.10901018  1
  O  O215  1  0.99376760  0.25213095  0.64261635  1
  O  O216  1  0.98441079  0.74500757  0.10852660  1
  O  O217  1  0.98121429  0.74197089  0.63141394  1
  O  O218  1  0.02260132  0.24579848  0.36979264  1
  O  O219  1  0.00834078  0.25662821  0.87276749  1
  O  O220  1  -0.00570421  0.77660751  0.37113061  1
  O  O221  1  0.01307842  0.75652578  0.88064622  1
  O  O222  1  0.49012392  0.27187572  0.36528340  1
  O  O223  1  0.51305319  0.25732558  0.87159907  1
  O  O224  1  0.49846485  0.76079248  0.36997052  1
  O  O225  1  0.51303313  0.74513679  0.87907981  1
  O  O226  1  0.24603706  0.12253965  0.49402134  1
  O  O227  1  0.23568268  0.13232125  1.00233868  1
  O  O228  1  0.25599661  0.62159994  0.50389486  1
  O  O229  1  0.23777447  0.63627052  1.01997611  1
  O  O230  1  0.74353624  0.12726909  0.50056268  1
  O  O231  1  0.76679257  0.14028528  0.99003150  1
  O  O232  1  0.73235272  0.63555440  0.50000951  1
  O  O233  1  0.74984845  0.63352556  0.98795796  1
  O  O234  1  0.24783178  0.36150405  0.00589988  1
  O  O235  1  0.26513072  0.35492307  0.51031893  1
  O  O236  1  0.26572488  0.90203349  0.00660861  1
  O  O237  1  0.25614968  0.90586592  0.50982651  1
  O  O238  1  0.75915850  0.37515930  0.00416798  1
  O  O239  1  0.78365859  0.37826917  0.50498007  1
  O  O240  1  0.75512101  0.85601884  -0.00184425  1
  O  O241  1  0.73546040  0.83773300  0.46227462  1
  O  O242  1  0.11360454  0.51442823  0.23398824  1
  O  O243  1  0.11091897  0.49123759  0.73465937  1
  O  O244  1  0.13814239  1.01187807  0.23529698  1
  O  O245  1  0.15315480  1.03502840  0.75543568  1
  O  O246  1  0.64448869  0.48886292  0.24427641  1
  O  O247  1  0.63447569  0.50634054  0.72689681  1
  O  O248  1  0.63244857  1.00116952  0.23915037  1
  O  O249  1  0.63803274  1.00500890  0.73022889  1
  O  O250  1  0.36809929  0.01593297  0.24214230  1
  O  O251  1  0.36319444  0.01045149  0.75246837  1
  O  O252  1  0.32003917  0.44990664  0.24407675  1
  O  O253  1  0.37258757  0.51107970  0.74674133  1
  O  O254  1  0.86664996  0.00273470  0.24874619  1
  O  O255  1  0.86408304  0.00792953  0.75584329  1
  O  O256  1  0.87069860  0.51738430  0.25961477  1
  O  O257  1  0.86714192  0.52268890  0.74823131  1
  O  O258  1  0.14402651  0.35609681  0.37761458  1
  O  O259  1  0.12813266  0.36519644  0.87569722  1
  O  O260  1  0.11184739  0.89207040  0.36008897  1
  O  O261  1  0.12825477  0.86282872  0.86486217  1
  O  O262  1  0.61155411  0.38548625  0.37315959  1
  O  O263  1  0.62496396  0.36368544  0.87574115  1
  O  O264  1  0.61387037  0.87858917  0.35680505  1
  O  O265  1  0.63251328  0.84946129  0.88210814  1
  O  O266  1  0.38960548  0.13259303  0.13489781  1
  O  O267  1  0.40221429  0.12508538  0.61131194  1
  O  O268  1  0.39930845  0.59144420  0.12525161  1
  O  O269  1  0.39473525  0.64930502  0.60068793  1
  O  O270  1  0.88458843  0.11531384  0.13199440  1
  O  O271  1  0.86469090  0.13776105  0.64296398  1
  O  O272  1  0.87739143  0.63709225  0.12862922  1
  O  O273  1  0.87956482  0.63638237  0.63602166  1
  O  O274  1  0.26252997  0.24391822  0.11488597  1
  O  O275  1  0.25951240  0.23825888  0.61125983  1
  O  O276  1  0.23433498  0.78354711  0.10511180  1
  O  O277  1  0.26396649  0.76820024  0.61202667  1
  O  O278  1  0.77216845  0.26651426  0.12106627  1
  O  O279  1  0.76005885  0.26129655  0.63507727  1
  O  O280  1  0.75580498  0.73848605  0.10677881  1
  O  O281  1  0.75443826  0.74245874  0.62922952  1
  O  O282  1  0.24841115  0.23389453  0.38652695  1
  O  O283  1  0.24663767  0.24604491  0.89225740  1
  O  O284  1  0.25624271  0.72730424  0.38507291  1
  O  O285  1  0.24258700  0.74477849  0.89590014  1
  O  O286  1  0.86749119  0.27298802  0.39456850  1
  O  O287  1  0.74987511  0.24711121  0.88068589  1
  O  O288  1  0.74775268  0.78698872  0.40741797  1
  O  O289  1  0.73898099  0.73750857  0.88497062  1
  O  O290  1  0.00338966  0.11711999  0.00735668  1
  O  O291  1  0.01287784  0.11808510  0.48864731  1
  O  O292  1  -0.00784429  0.61873707  0.00891364  1
  O  O293  1  0.00169570  0.64442488  0.50718978  1
  O  O294  1  0.51845374  0.13396335  0.00895599  1
  O  O295  1  0.51757150  0.11743026  0.49964302  1
  O  O296  1  0.50967809  0.62005031  0.00355820  1
  O  O297  1  0.49750224  0.58380446  0.44535678  1
  O  O298  1  0.49361096  0.37289614  0.49709179  1
  O  O299  1  0.50928783  0.37485358  0.98960411  1
  O  O300  1  0.51299424  0.88982340  0.47579857  1
  O  O301  1  0.45783964  0.89215886  0.98233066  1
  O  O302  1  0.97252259  0.35713690  0.50289474  1
  O  O303  1  0.99194757  0.38956419  0.99834260  1
  O  O304  1  1.00355753  0.89324938  0.49826542  1
  O  O305  1  0.98471297  0.88958348  1.00291674  1
  O  O306  1  0.47697828  0.45578915  0.32323391  1
  O  O307  1  0.51912845  0.48091341  0.86749741  1
  O  O308  1  0.50778226  1.00567588  0.38159896  1
  O  O309  1  0.52494102  1.02268944  0.88533014  1
  O  O310  1  1.00782731  0.53995777  0.37072988  1
  O  O311  1  1.01289796  0.50589910  0.89042117  1
  O  O312  1  0.99064018  0.99182830  0.37532129  1
  O  O313  1  0.98183166  1.01088134  0.88675428  1
  O  O314  1  0.00647879  0.00686777  0.11351596  1
  O  O315  1  -0.02244461  0.00704041  0.60481380  1
  O  O316  1  0.00801578  0.52161574  0.11814634  1
  O  O317  1  -0.01048403  0.52832934  0.62148727  1
  O  O318  1  0.51852973  0.01663206  0.13059009  1
  O  O319  1  0.52133015  0.01189558  0.60875988  1
  O  O320  1  0.51941077  0.49372827  0.13989393  1
  O  O321  1  0.51272639  0.47832046  0.62579452  1
  O  O322  1  0.27387835  0.39538065  0.26658018  1
  O  O323  1  0.25584732  0.35066054  0.73710982  1
  O  O324  1  0.25690124  0.88871064  0.23542175  1
  O  O325  1  0.24101755  0.89530097  0.73700861  1
  O  O326  1  0.75981580  0.39748360  0.23575643  1
  O  O327  1  0.75399341  0.38083859  0.73598018  1
  O  O328  1  0.73391036  0.88879363  0.25069866  1
  O  O329  1  0.74867236  0.89294487  0.75669033  1
  O  O330  1  0.26072011  0.11501567  0.25478979  1
  O  O331  1  0.26489914  0.13136375  0.75593443  1
  O  O332  1  0.25854792  0.59958233  0.29845356  1
  O  O333  1  0.27663176  0.61470582  0.69653951  1
  O  O334  1  0.76701784  0.11345037  0.24429106  1
  O  O335  1  0.75851861  0.12731221  0.76376762  1
  O  O336  1  0.75692962  0.61195186  0.24220310  1
  O  O337  1  0.74597141  0.62495164  0.76833729  1
  O  O338  1  0.37125312  0.13310860  0.35880450  1
  O  O339  1  0.37857964  0.10661588  0.91145397  1
  O  O340  1  0.35986790  0.63498822  0.40311574  1
  O  O341  1  0.36154156  0.63474822  0.85339886  1
  O  O342  1  0.88848164  0.10826410  0.35282419  1
  O  O343  1  0.87008587  0.11960301  0.87085626  1
  O  O344  1  0.88140642  0.63445629  0.35662682  1
  O  O345  1  0.86218155  0.63277404  0.86785775  1
  O  O346  1  0.11576630  0.38280003  0.13812258  1
  O  O347  1  0.14420767  0.34998271  0.62270479  1
  O  O348  1  0.12993176  0.89448403  0.11257698  1
  O  O349  1  0.14166538  0.86573194  0.62603553  1
  O  O350  1  0.64254267  0.38055117  0.12756296  1
  O  O351  1  0.65087712  0.38595220  0.60905955  1
  O  O352  1  0.61576262  0.88909420  0.13522490  1
  O  O353  1  0.62790357  0.89231491  0.60677929  1
  O  O354  1  0.14270990  0.24443953  0.26441488  1
  O  O355  1  0.10985712  0.24241018  0.76125426  1
  O  O356  1  0.12778993  0.70342012  0.27565693  1
  O  O357  1  0.15615960  0.75634341  0.76607066  1
  O  O358  1  0.67039339  0.27433092  0.26902988  1
  O  O359  1  0.61657031  0.23765904  0.76633580  1
  O  O360  1  0.63482797  0.76422366  0.24251557  1
  O  O361  1  0.62496005  0.74035560  0.76243219  1
  O  O362  1  0.36500453  0.23718357  0.23729972  1
  O  O363  1  0.40233001  0.23930892  0.76364130  1
  O  O364  1  0.30685644  0.71671597  0.22456638  1
  O  O365  1  0.36156469  0.73746340  0.73105688  1
  O  O366  1  0.87433856  0.22712533  0.23940685  1
  O  O367  1  0.88724914  0.24338587  0.75100443  1
  O  O368  1  0.85498933  0.74787355  0.23395225  1
  O  O369  1  0.86328604  0.73541779  0.74572246  1
  O  O370  1  0.37424477  0.48548976  0.52545512  1
  O  O371  1  0.33330985  0.50715948  0.95485288  1
  O  O372  1  0.39867540  1.00398233  0.49518023  1
  O  O373  1  0.38065942  1.04377414  0.97032072  1
  O  O374  1  0.88257401  0.53186321  0.47764053  1
  O  O375  1  0.88995490  0.49806279  1.00271919  1
  O  O376  1  0.88219095  1.01159643  0.48166929  1
  O  O377  1  0.87362264  0.99294246  0.99319091  1
  O  O378  1  0.11462789  0.00917346  0.00101522  1
  O  O379  1  0.11049848  0.00988406  0.49825542  1
  O  O380  1  0.10732795  0.49854848  0.01786021  1
  O  O381  1  0.11544621  0.47963579  0.51525168  1
  O  O382  1  0.62941146  0.00990199  0.01565666  1
  O  O383  1  0.62730968  0.01047774  0.50283493  1
  O  O384  1  0.62888357  0.51261891  0.01139600  1
  O  O385  1  0.63335221  0.50624260  0.51248930  1
  O  O386  1  0.38746877  0.36070325  0.13978831  1
  O  O387  1  0.36930590  0.36064446  0.61911945  1
  O  O388  1  0.36958546  0.88092717  0.12608337  1
  O  O389  1  0.35659649  0.87608706  0.63237939  1
  O  O390  1  0.86776279  0.38748342  0.10727435  1
  O  O391  1  0.87133130  0.36085735  0.63502081  1
  O  O392  1  0.87183477  0.86641716  0.11178997  1
  O  O393  1  0.86493339  0.86000495  0.63309453  1
  O  O394  1  0.13950304  0.12493225  0.37986223  1
  O  O395  1  0.12304571  0.14000125  0.88941582  1
  O  O396  1  0.15003546  0.62991375  0.40285147  1
  O  O397  1  0.12248876  0.64504671  0.87135011  1
  O  O398  1  0.63325503  0.12707487  0.38391929  1
  O  O399  1  0.63968756  0.13703597  0.89137429  1
  O  O400  1  0.62535552  0.60726058  0.38689740  1
  O  O401  1  0.62848968  0.62663244  0.88644853  1
