# generated using pymatgen
data_V73Zn73O256
_symmetry_space_group_name_H-M   'P 1'
_cell_length_a   16.90088208
_cell_length_b   16.90826326
_cell_length_c   16.97584725
_cell_angle_alpha   90.33556708
_cell_angle_beta   89.76864699
_cell_angle_gamma   90.00465651
_symmetry_Int_Tables_number   1
_chemical_formula_structural   V73Zn73O256
_chemical_formula_sum   'V73 Zn73 O256'
_cell_volume   4850.97282539
_cell_formula_units_Z   1
loop_
 _symmetry_equiv_pos_site_id
 _symmetry_equiv_pos_as_xyz
  1  'x, y, z'
loop_
 _atom_site_type_symbol
 _atom_site_label
 _atom_site_symmetry_multiplicity
 _atom_site_fract_x
 _atom_site_fract_y
 _atom_site_fract_z
 _atom_site_occupancy
  V  V0  1  0.37522098  0.49308070  0.38459602  1
  V  V1  1  0.61090973  0.49692753  0.11832163  1
  V  V2  1  0.01192101  0.50628450  0.00750099  1
  V  V3  1  0.25546688  0.37704456  0.61979980  1
  V  V4  1  0.74834942  0.12327656  0.37311024  1
  V  V5  1  0.38615960  0.62683123  0.24550110  1
  V  V6  1  0.88654934  0.74302676  0.63707161  1
  V  V7  1  0.61555960  0.74724015  0.37738301  1
  V  V8  1  0.15002119  0.64892462  0.00765081  1
  V  V9  1  0.62203278  0.25175282  0.37394091  1
  V  V10  1  0.62138086  0.24921806  0.87726082  1
  V  V11  1  0.61637308  0.63308590  0.00392303  1
  V  V12  1  0.00396651  0.25298628  0.23750871  1
  V  V13  1  0.25359031  0.25351363  0.50036397  1
  V  V14  1  0.74546440  0.12412186  0.86966946  1
  V  V15  1  0.37869736  0.38241300  0.00246962  1
  V  V16  1  0.49691784  0.37575548  0.87736948  1
  V  V17  1  0.49431710  0.00553515  0.50267697  1
  V  V18  1  0.25598693  0.50911165  0.74809861  1
  V  V19  1  0.61834166  0.04989041  0.09973377  1
  V  V20  1  0.11924803  0.26230807  0.37979038  1
  V  V21  1  0.12762733  0.76684831  0.87326643  1
  V  V22  1  0.24411318  0.00117436  0.76144674  1
  V  V23  1  0.00865982  0.00049386  0.49633866  1
  V  V24  1  0.62266217  -0.01575757  0.62143144  1
  V  V25  1  0.24659090  0.24841848  -0.00698930  1
  V  V26  1  0.00939432  0.13153557  0.62212271  1
  V  V27  1  0.23767513  0.49778910  0.25112132  1
  V  V28  1  0.24068332  0.87619153  0.61908939  1
  V  V29  1  0.74990523  0.38862925  0.62992632  1
  V  V30  1  0.37966372  0.00932828  0.36361356  1
  V  V31  1  0.37646625  0.24681732  0.13138550  1
  V  V32  1  0.74390040  -0.00828705  0.74049829  1
  V  V33  1  0.11778981  0.63047317  0.48872404  1
  V  V34  1  0.07546630  0.55246178  0.67239158  1
  V  V35  1  0.12073632  0.85684151  0.25440913  1
  V  V36  1  0.87776332  0.11903673  0.24484801  1
  V  V37  1  0.49587609  0.37718360  0.38604092  1
  V  V38  1  0.23905817  0.12406857  0.38277601  1
  V  V39  1  -0.00125638  0.49229251  0.48614191  1
  V  V40  1  0.23474465  0.00890681  0.24626097  1
  V  V41  1  0.75665010  0.37388048  0.12440136  1
  V  V42  1  0.49489354  0.87854445  0.87743096  1
  V  V43  1  0.74579595  0.75131470  0.51184824  1
  V  V44  1  0.37463265  0.87369680  0.49142112  1
  V  V45  1  0.37076448  0.51273722  0.87405374  1
  V  V46  1  0.61918637  0.13090823  0.50977053  1
  V  V47  1  0.86934481  0.87732872  0.50588077  1
  V  V48  1  0.84507743  0.88001316  -0.02066529  1
  V  V49  1  0.12165150  0.37370889  0.75008499  1
  V  V50  1  -0.01160731  0.74703383  0.26463869  1
  V  V51  1  0.87058502  0.12414893  0.74795617  1
  V  V52  1  0.23726791  0.38328743  0.12770046  1
  V  V53  1  0.37554950  0.12393891  0.75121622  1
  V  V54  1  0.62798054  0.38390771  0.75101134  1
  V  V55  1  0.75320942  0.25937818  0.49866180  1
  V  V56  1  0.74967540  0.24241689  -0.00265606  1
  V  V57  1  0.24605162  0.63850053  0.37642963  1
  V  V58  1  0.87159224  0.00001544  0.37883385  1
  V  V59  1  0.76375557  0.49949424  0.25582746  1
  V  V60  1  0.87253927  0.25516544  0.62184221  1
  V  V61  1  0.63342506  0.87885668  0.24153426  1
  V  V62  1  0.49704425  0.24098550  0.24714134  1
  V  V63  1  0.61932514  0.59336761  0.50790150  1
  V  V64  1  0.88216816  0.37753013  -0.00901964  1
  V  V65  1  0.38006705  0.74688121  0.62603885  1
  V  V66  1  -0.01354836  0.63897984  0.12579236  1
  V  V67  1  0.62153224  0.37658390  0.25155315  1
  V  V68  1  0.76152504  0.62046249  0.37597613  1
  V  V69  1  0.74402015  0.64013484  0.87721823  1
  V  V70  1  0.86943191  0.51281669  0.87306025  1
  V  V71  1  0.12382780  0.24536038  0.87453347  1
  V  V72  1  0.26650393  0.86687714  0.13253809  1
  Zn  Zn73  1  0.38865647  0.24469160  0.61402660  1
  Zn  Zn74  1  -0.02019720  0.37626464  0.36859716  1
  Zn  Zn75  1  0.81284620  -0.19577113  0.17070074  1
  Zn  Zn76  1  0.11970611  -0.00552626  0.63873560  1
  Zn  Zn77  1  0.87938202  0.23306367  0.11501109  1
  Zn  Zn78  1  -0.00562513  0.25538083  0.75881357  1
  Zn  Zn79  1  0.49028282  0.75810982  0.27115063  1
  Zn  Zn80  1  0.50070519  0.24451112  0.73625166  1
  Zn  Zn81  1  0.98706409  -0.00218920  0.98808912  1
  Zn  Zn82  1  0.19154280  0.19383989  0.19197934  1
  Zn  Zn83  1  0.19767178  0.18756051  0.69016683  1
  Zn  Zn84  1  0.18690568  0.68625386  0.18260682  1
  Zn  Zn85  1  0.18542347  0.69555809  0.67524529  1
  Zn  Zn86  1  0.69215874  0.18350380  0.18449683  1
  Zn  Zn87  1  0.68503095  0.19531873  0.68883593  1
  Zn  Zn88  1  0.67907482  0.67776293  0.19340361  1
  Zn  Zn89  1  0.69024069  0.56788732  0.69378974  1
  Zn  Zn90  1  0.30797114  0.31385259  0.31291776  1
  Zn  Zn91  1  0.31303648  0.31455500  0.80560958  1
  Zn  Zn92  1  0.31336502  0.81773059  0.31173543  1
  Zn  Zn93  1  0.27511515  0.78278721  0.78126305  1
  Zn  Zn94  1  0.81365477  0.30480100  0.30462180  1
  Zn  Zn95  1  0.81261680  0.31431677  0.81147043  1
  Zn  Zn96  1  0.80906459  0.81227959  0.33357509  1
  Zn  Zn97  1  0.80468327  0.81012492  0.80839265  1
  Zn  Zn98  1  0.18265092  0.44267912  0.43966618  1
  Zn  Zn99  1  0.18957881  0.43784614  0.93321396  1
  Zn  Zn100  1  0.18888626  0.93193065  0.43283169  1
  Zn  Zn101  1  0.27575184  0.88578743  0.92401654  1
  Zn  Zn102  1  0.81611111  0.43691486  0.44142526  1
  Zn  Zn103  1  0.69130229  0.43483516  0.93860882  1
  Zn  Zn104  1  0.68245640  0.93540996  0.43304173  1
  Zn  Zn105  1  0.67663582  0.95450266  0.93703539  1
  Zn  Zn106  1  0.29963398  0.07024212  0.06843714  1
  Zn  Zn107  1  0.30806018  0.06436295  0.56812301  1
  Zn  Zn108  1  0.31940384  0.56179990  0.06776535  1
  Zn  Zn109  1  0.30420338  0.56389652  0.56026055  1
  Zn  Zn110  1  0.81862825  -0.00041975  0.10959710  1
  Zn  Zn111  1  0.80764314  0.06848819  0.56142778  1
  Zn  Zn112  1  0.80395462  0.57012807  0.06289095  1
  Zn  Zn113  1  0.82029461  0.56998668  0.56297844  1
  Zn  Zn114  1  0.42940763  0.43539054  0.19735586  1
  Zn  Zn115  1  0.43482772  0.42732968  0.69168418  1
  Zn  Zn116  1  0.45837038  0.93736039  0.18361784  1
  Zn  Zn117  1  0.42797670  0.94084441  0.67983243  1
  Zn  Zn118  1  0.94430841  0.43691772  0.18039873  1
  Zn  Zn119  1  0.93344128  0.44034933  0.68984653  1
  Zn  Zn120  1  0.97266060  0.86413863  0.12327483  1
  Zn  Zn121  1  0.92594709  0.94451578  0.67316546  1
  Zn  Zn122  1  0.05871208  0.06715845  0.31546861  1
  Zn  Zn123  1  0.06242780  0.06571420  0.82362383  1
  Zn  Zn124  1  0.05552351  0.56571669  0.31009993  1
  Zn  Zn125  1  0.04197768  0.60790458  0.84985992  1
  Zn  Zn126  1  0.56284128  0.05585686  0.30424165  1
  Zn  Zn127  1  0.56198498  0.06727927  0.80271096  1
  Zn  Zn128  1  0.56574970  0.56144114  0.32334710  1
  Zn  Zn129  1  0.56418726  0.55627453  0.82872207  1
  Zn  Zn130  1  0.43482220  0.18586114  0.43321791  1
  Zn  Zn131  1  0.42035369  0.19513860  0.92659093  1
  Zn  Zn132  1  0.43150828  0.66840127  0.46194866  1
  Zn  Zn133  1  0.44844524  0.67973080  0.93374905  1
  Zn  Zn134  1  0.93860556  0.18800800  0.43844401  1
  Zn  Zn135  1  0.94139355  0.17729217  0.93104622  1
  Zn  Zn136  1  0.93640000  0.68669392  0.44567008  1
  Zn  Zn137  1  0.93809646  0.70495124  0.94467690  1
  Zn  Zn138  1  0.06220024  0.31322421  0.05903700  1
  Zn  Zn139  1  0.06758453  0.31719846  0.56432807  1
  Zn  Zn140  1  0.12605203  0.86641163  0.03055631  1
  Zn  Zn141  1  0.05746766  0.81398812  0.55371731  1
  Zn  Zn142  1  0.56320208  0.30730171  0.06318468  1
  Zn  Zn143  1  0.56826413  0.32482353  0.56371168  1
  Zn  Zn144  1  0.68613757  0.80470467  0.06287227  1
  Zn  Zn145  1  0.55619117  0.81017427  0.55401220  1
  O  O146  1  0.13760023  0.13513860  0.10396481  1
  O  O147  1  0.10962551  0.13286771  0.62938554  1
  O  O148  1  0.11387677  0.63333750  0.11043141  1
  O  O149  1  0.12957437  0.61803568  0.60962826  1
  O  O150  1  0.61292859  0.15319780  0.11082051  1
  O  O151  1  0.62785583  0.12864415  0.61066723  1
  O  O152  1  0.62343170  0.60395201  0.11768232  1
  O  O153  1  0.64186001  0.61383776  0.60658539  1
  O  O154  1  0.38018875  0.38482934  0.36822626  1
  O  O155  1  0.38043518  0.37576960  0.88399968  1
  O  O156  1  0.36225718  0.89715157  0.38489459  1
  O  O157  1  0.39248099  0.88951603  0.89753959  1
  O  O158  1  0.86977063  0.35713568  0.38412430  1
  O  O159  1  0.87562690  0.37946567  0.88764407  1
  O  O160  1  0.87071396  0.89160842  0.38834516  1
  O  O161  1  0.85642343  0.88394884  0.87975528  1
  O  O162  1  0.25199433  0.01351497  0.37000940  1
  O  O163  1  0.25394817  -0.02080763  0.85794353  1
  O  O164  1  0.25719428  0.49388133  0.36278849  1
  O  O165  1  0.25937774  0.49670732  0.86012782  1
  O  O166  1  0.75644723  0.01481949  0.38764747  1
  O  O167  1  0.72977008  0.01475751  0.85230137  1
  O  O168  1  0.75503821  0.50488452  0.36576539  1
  O  O169  1  0.76654314  0.49726358  0.88100030  1
  O  O170  1  0.25307650  0.49189501  0.13787064  1
  O  O171  1  0.25962512  0.48738546  0.63328856  1
  O  O172  1  0.25244825  1.00530617  0.14551313  1
  O  O173  1  0.23881126  0.99282597  0.62598559  1
  O  O174  1  0.74195814  0.49003597  0.13749114  1
  O  O175  1  0.76330617  0.49004294  0.63011578  1
  O  O176  1  0.71230158  1.02847714  0.13592901  1
  O  O177  1  0.73453093  1.00505960  0.62803831  1
  O  O178  1  -0.00822920  0.35731256  0.24994832  1
  O  O179  1  0.01729406  0.37184442  0.73833410  1
  O  O180  1  0.01275260  0.85774165  0.23999245  1
  O  O181  1  -0.00378909  0.88585018  0.75524847  1
  O  O182  1  0.50753759  0.36578631  0.25807301  1
  O  O183  1  0.50826573  0.37084478  0.76244456  1
  O  O184  1  0.52037951  0.86392814  0.24704008  1
  O  O185  1  0.47457884  0.87992026  0.77332348  1
  O  O186  1  0.50434041  0.14237269  0.25810685  1
  O  O187  1  0.48422956  0.12584014  0.74843773  1
  O  O188  1  0.48794555  0.62352390  0.26107514  1
  O  O189  1  0.47457410  0.58898053  0.68679279  1
  O  O190  1  0.98522656  0.13800298  0.26090247  1
  O  O191  1  0.98834747  0.12615396  0.73603769  1
  O  O192  1  1.00340324  0.63680199  0.23829777  1
  O  O193  1  1.02531402  0.60855062  0.73659626  1
  O  O194  1  0.36453583  0.26241100  0.00941626  1
  O  O195  1  0.35790304  0.25028574  0.49282284  1
  O  O196  1  0.38512261  0.74669384  0.01524152  1
  O  O197  1  0.38063088  0.77410450  0.48403455  1
  O  O198  1  0.87635830  0.25626989  -0.00229002  1
  O  O199  1  0.86332081  0.24318185  0.51060222  1
  O  O200  1  0.88667900  0.78783161  0.00150579  1
  O  O201  1  0.86524976  0.75853610  0.50033815  1
  O  O202  1  0.13338432  0.25490391  0.48564894  1
  O  O203  1  0.13583704  0.26299494  0.98675018  1
  O  O204  1  0.11451291  0.73009282  0.49948708  1
  O  O205  1  0.13395670  0.75096540  0.99307657  1
  O  O206  1  0.63130914  0.24881082  0.49116519  1
  O  O207  1  0.63742431  0.26220269  0.98653360  1
  O  O208  1  0.63698224  0.74780947  0.49608236  1
  O  O209  1  0.61258199  0.73242312  1.01228755  1
  O  O210  1  0.48434843  0.25944989  0.13167143  1
  O  O211  1  0.50066954  0.26231352  0.62388774  1
  O  O212  1  0.43265982  0.76440344  0.06928419  1
  O  O213  1  0.48081337  0.75978886  0.61905849  1
  O  O214  1  1.00177637  0.24771447  0.13374355  1
  O  O215  1  0.99196377  0.24218562  0.62051709  1
  O  O216  1  0.99168371  0.74203393  0.13523579  1
  O  O217  1  0.98582606  0.75775494  0.62038629  1
  O  O218  1  0.01123090  0.25259851  0.37495174  1
  O  O219  1  0.01761007  0.25057879  0.87478065  1
  O  O220  1  -0.00260443  0.74138561  0.36310454  1
  O  O221  1  0.02533088  0.72412706  0.87230619  1
  O  O222  1  0.50336327  0.25656887  0.36866227  1
  O  O223  1  0.50717526  0.25787285  0.87866119  1
  O  O224  1  0.51452070  0.73546598  0.39079011  1
  O  O225  1  0.48508718  0.77465131  0.87795082  1
  O  O226  1  0.24670357  0.13376177  0.48803250  1
  O  O227  1  0.25408513  0.14936345  1.00084617  1
  O  O228  1  0.23295982  0.61448839  0.48194491  1
  O  O229  1  0.24869202  0.63617974  1.02235236  1
  O  O230  1  0.73984984  0.13859997  0.49200225  1
  O  O231  1  0.75781911  0.14018894  0.98235533  1
  O  O232  1  0.74825113  0.63008083  0.49023095  1
  O  O233  1  0.73051023  0.61535046  0.99129681  1
  O  O234  1  0.25614147  0.37487284  0.01227023  1
  O  O235  1  0.24218031  0.37234617  0.51315662  1
  O  O236  1  0.24061574  0.89296751  0.03101247  1
  O  O237  1  0.26348574  0.88884161  0.50751040  1
  O  O238  1  0.76310289  0.36477746  0.00552661  1
  O  O239  1  0.75095322  0.36827898  0.51776816  1
  O  O240  1  0.73861215  0.87676928  -0.00894333  1
  O  O241  1  0.75485978  0.85968264  0.49082361  1
  O  O242  1  0.13906208  0.50349900  0.25511925  1
  O  O243  1  0.13594350  0.49077657  0.73960055  1
  O  O244  1  0.13238248  1.00051225  0.25572187  1
  O  O245  1  0.13509865  1.00782878  0.75436996  1
  O  O246  1  0.62960545  0.48779492  0.24621976  1
  O  O247  1  0.63039534  0.48708948  0.75998839  1
  O  O248  1  0.63503010  0.97540551  0.27721940  1
  O  O249  1  0.62929756  1.00641445  0.72875828  1
  O  O250  1  0.37046878  0.00031919  0.26426776  1
  O  O251  1  0.36195774  0.01319167  0.73889053  1
  O  O252  1  0.36489836  0.51061451  0.26077058  1
  O  O253  1  0.36396324  0.49477919  0.76091800  1
  O  O254  1  0.87825024  0.01692866  0.26909278  1
  O  O255  1  0.85460181  0.01255400  0.73418167  1
  O  O256  1  0.86162790  0.49218496  0.24441301  1
  O  O257  1  0.88767548  0.49945452  0.77538662  1
  O  O258  1  0.12788072  0.36231453  0.37067587  1
  O  O259  1  0.13160442  0.37370246  0.85554821  1
  O  O260  1  0.13165029  0.87632999  0.35458098  1
  O  O261  1  0.11266993  0.86300865  0.88701740  1
  O  O262  1  0.61664530  0.36249852  0.36549958  1
  O  O263  1  0.61716891  0.37128999  0.87136596  1
  O  O264  1  0.62781060  0.85079029  0.37749684  1
  O  O265  1  0.59894426  0.86802261  0.86391560  1
  O  O266  1  0.36462059  0.14909533  0.12731164  1
  O  O267  1  0.36413674  0.13368950  0.63625611  1
  O  O268  1  0.37784363  0.61866577  0.14645288  1
  O  O269  1  0.36876726  0.65365043  0.57937759  1
  O  O270  1  0.87030141  0.11200912  0.14304761  1
  O  O271  1  0.87615079  0.13670747  0.63124625  1
  O  O272  1  0.88685630  0.62370421  0.11997969  1
  O  O273  1  0.87533042  0.64264122  0.62669179  1
  O  O274  1  0.25699638  0.26582591  0.12136358  1
  O  O275  1  0.24674052  0.25920660  0.61286977  1
  O  O276  1  0.26220550  0.76667977  0.14225595  1
  O  O277  1  0.25596477  0.76902859  0.61799362  1
  O  O278  1  0.75544705  0.25754931  0.11552303  1
  O  O279  1  0.75487978  0.25753530  0.61654110  1
  O  O280  1  0.74701767  0.72944570  0.12192971  1
  O  O281  1  0.75889554  0.74914533  0.60861321  1
  O  O282  1  0.24033699  0.24350983  0.37597214  1
  O  O283  1  0.24650778  0.26581663  0.88990606  1
  O  O284  1  0.25223733  0.73634470  0.37338172  1
  O  O285  1  0.24742238  0.78079170  0.88884764  1
  O  O286  1  0.73961525  0.24644287  0.38184685  1
  O  O287  1  0.74154445  0.24789194  0.87816168  1
  O  O288  1  0.74112494  0.73209191  0.38261298  1
  O  O289  1  0.74877998  0.74009471  0.87921183  1
  O  O290  1  0.00345434  0.08181182  -0.08002029  1
  O  O291  1  -0.00794511  0.11629574  0.51529978  1
  O  O292  1  0.00359079  0.62108089  0.01330166  1
  O  O293  1  0.00998418  0.61181219  0.48988189  1
  O  O294  1  0.45247020  0.09602243  -0.00128497  1
  O  O295  1  0.50865751  0.11828556  0.49262713  1
  O  O296  1  0.51620904  0.61210208  -0.00882872  1
  O  O297  1  0.51853930  0.60933219  0.49921632  1
  O  O298  1  0.50399354  0.37572354  0.48420959  1
  O  O299  1  0.48872660  0.36970910  0.99180007  1
  O  O300  1  0.48636246  0.89290549  0.49770191  1
  O  O301  1  0.50877313  0.88446151  0.97921488  1
  O  O302  1  1.00726868  0.38922983  0.49831396  1
  O  O303  1  0.98859713  0.38796299  1.01005172  1
  O  O304  1  0.98792858  0.89437369  0.50359313  1
  O  O305  1  1.01993915  0.89882543  1.02679659  1
  O  O306  1  0.48348462  0.49144253  0.36810757  1
  O  O307  1  0.48096957  0.48772256  0.86893437  1
  O  O308  1  0.48398377  1.01018173  0.38060027  1
  O  O309  1  0.50763362  0.98242123  0.86788450  1
  O  O310  1  1.00002655  0.49315123  0.38014302  1
  O  O311  1  0.98389297  0.51728870  0.90092788  1
  O  O312  1  0.98704894  1.01523295  0.39185129  1
  O  O313  1  1.00097008  0.92775927  0.81712544  1
  O  O314  1  0.06986151  0.09791551  0.13139081  1
  O  O315  1  0.00265833  0.01264071  0.61665686  1
  O  O316  1  -0.00218702  0.51248752  0.11477294  1
  O  O317  1  0.00520859  0.49954771  0.61877301  1
  O  O318  1  0.53352792  0.01415245  0.14911758  1
  O  O319  1  0.51145193  -0.00215406  0.61556997  1
  O  O320  1  0.51303159  0.48449792  0.13334614  1
  O  O321  1  0.49900441  0.52001570  0.65308801  1
  O  O322  1  0.25279834  0.38556893  0.23827820  1
  O  O323  1  0.24286542  0.38318519  0.73909782  1
  O  O324  1  0.24824780  0.89143320  0.25018507  1
  O  O325  1  0.25735792  0.88937483  0.72640081  1
  O  O326  1  0.74277686  0.37993337  0.24455847  1
  O  O327  1  0.74398736  0.36994856  0.73828390  1
  O  O328  1  0.73615764  0.85053866  0.25592227  1
  O  O329  1  0.74637297  0.89389842  0.74907526  1
  O  O330  1  0.24476745  0.11705296  0.26257279  1
  O  O331  1  0.25425672  0.11015566  0.74945577  1
  O  O332  1  0.25345876  0.61503463  0.26062364  1
  O  O333  1  0.24651374  0.60617224  0.73393661  1
  O  O334  1  0.76358135  0.13968588  0.26498540  1
  O  O335  1  0.75261813  0.12444990  0.75138063  1
  O  O336  1  0.74321899  0.60661444  0.26310200  1
  O  O337  1  0.74253865  0.61982272  0.77794422  1
  O  O338  1  0.35897933  0.11635996  0.37719181  1
  O  O339  1  0.36535968  0.13074953  0.85411751  1
  O  O340  1  0.35984429  0.61236886  0.37546816  1
  O  O341  1  0.37773386  0.61170758  0.87617567  1
  O  O342  1  0.86420952  0.12271528  0.37619864  1
  O  O343  1  0.85801428  0.13495415  0.85611586  1
  O  O344  1  0.86026312  0.62788270  0.37724653  1
  O  O345  1  0.86043610  0.61965898  0.89336743  1
  O  O346  1  0.13883411  0.37360217  0.12273220  1
  O  O347  1  0.14017894  0.36862131  0.63803915  1
  O  O348  1  0.14683459  0.87494118  0.15119519  1
  O  O349  1  0.13615793  0.87460930  0.61253486  1
  O  O350  1  0.63464607  0.37576267  0.13358241  1
  O  O351  1  0.64120998  0.37850346  0.63522783  1
  O  O352  1  0.63598140  0.87638517  0.14088201  1
  O  O353  1  0.62409890  0.88588641  0.61467643  1
  O  O354  1  0.10973884  0.24243786  0.26020067  1
  O  O355  1  0.13181255  0.26104881  0.75846042  1
  O  O356  1  0.11904992  0.75234879  0.25357038  1
  O  O357  1  0.15395336  0.74805460  0.77126248  1
  O  O358  1  0.62019930  0.25706963  0.25595435  1
  O  O359  1  0.62395706  0.26298353  0.76132931  1
  O  O360  1  0.61596409  0.74074775  0.26837912  1
  O  O361  1  0.52438885  0.62277773  0.73817976  1
  O  O362  1  0.38047701  0.26135677  0.23847924  1
  O  O363  1  0.37395010  0.24112247  0.74467173  1
  O  O364  1  0.37738381  0.73390441  0.26427260  1
  O  O365  1  0.36335945  0.73817929  0.72515939  1
  O  O366  1  0.88515570  0.23826115  0.24137955  1
  O  O367  1  0.87635274  0.24462899  0.74034532  1
  O  O368  1  0.88585373  0.76129189  0.25684508  1
  O  O369  1  0.87328143  0.76261495  0.73468748  1
  O  O370  1  0.36416768  0.49855195  0.48253058  1
  O  O371  1  0.36305391  0.49270645  0.98469477  1
  O  O372  1  0.38140952  1.00157196  0.49627493  1
  O  O373  1  0.40190163  1.04014416  1.00809975  1
  O  O374  1  0.89127614  0.50307371  0.50183558  1
  O  O375  1  0.87466653  0.48614319  0.99887266  1
  O  O376  1  0.87578794  0.99683535  0.49866256  1
  O  O377  1  0.87069681  0.98239676  1.00315147  1
  O  O378  1  0.05378921  0.03015995  0.09856470  1
  O  O379  1  0.10912951  -0.00320490  0.49421882  1
  O  O380  1  0.11204454  0.49617066  -0.00170489  1
  O  O381  1  0.11016280  0.51049235  0.49693967  1
  O  O382  1  0.61825593  0.02560812  0.00061372  1
  O  O383  1  0.61831974  0.00838963  0.50593144  1
  O  O384  1  0.62495816  0.48575758  0.01765889  1
  O  O385  1  0.63569789  0.49885985  0.49251533  1
  O  O386  1  0.36665025  0.37442876  0.11680553  1
  O  O387  1  0.35916620  0.36638739  0.63006910  1
  O  O388  1  0.36561809  0.89054122  0.13801917  1
  O  O389  1  0.36770832  0.86904216  0.60887777  1
  O  O390  1  0.86587985  0.37303037  0.11547986  1
  O  O391  1  0.86400276  0.36516038  0.63426203  1
  O  O392  1  0.86161823  0.89309788  0.12464787  1
  O  O393  1  0.86907700  0.86835715  0.61097207  1
  O  O394  1  0.13445429  0.13504140  0.37579630  1
  O  O395  1  0.14035887  0.14933521  0.86504497  1
  O  O396  1  0.13424979  0.62266620  0.37808141  1
  O  O397  1  0.14022451  0.62231905  0.90764260  1
  O  O398  1  0.62984314  0.13604528  0.37895190  1
  O  O399  1  0.63109842  0.14011145  0.86358306  1
  O  O400  1  0.63616928  0.62754257  0.38795401  1
  O  O401  1  0.63209962  0.62163479  0.89024074  1
