# generated using pymatgen
data_V73Zn73O256
_symmetry_space_group_name_H-M   'P 1'
_cell_length_a   16.88243350
_cell_length_b   16.87726672
_cell_length_c   16.91534216
_cell_angle_alpha   90.26618598
_cell_angle_beta   90.05442215
_cell_angle_gamma   89.80860478
_symmetry_Int_Tables_number   1
_chemical_formula_structural   V73Zn73O256
_chemical_formula_sum   'V73 Zn73 O256'
_cell_volume   4819.59615315
_cell_formula_units_Z   1
loop_
 _symmetry_equiv_pos_site_id
 _symmetry_equiv_pos_as_xyz
  1  'x, y, z'
loop_
 _atom_site_type_symbol
 _atom_site_label
 _atom_site_symmetry_multiplicity
 _atom_site_fract_x
 _atom_site_fract_y
 _atom_site_fract_z
 _atom_site_occupancy
  V  V0  1  0.74828379  0.13167247  0.88005335  1
  V  V1  1  0.25654647  0.25929278  0.00536755  1
  V  V2  1  0.38444995  0.87994168  0.00158773  1
  V  V3  1  0.23790526  0.63747428  0.87690732  1
  V  V4  1  0.62870016  0.63729169  0.01451553  1
  V  V5  1  0.13035392  0.12261810  0.50096316  1
  V  V6  1  0.90357381  0.62603444  0.76694216  1
  V  V7  1  0.70359632  0.93169300  0.70078669  1
  V  V8  1  0.87982572  0.87252438  0.00350273  1
  V  V9  1  0.62280548  0.24583490  0.37128600  1
  V  V10  1  0.36860516  0.12763281  0.24171374  1
  V  V11  1  0.48659874  0.37947366  0.88498489  1
  V  V12  1  0.13331348  0.37790795  0.24418494  1
  V  V13  1  0.00406607  0.25680715  0.75481347  1
  V  V14  1  0.38580558  0.61561124  0.24318127  1
  V  V15  1  0.86279886  0.88151867  0.47201143  1
  V  V16  1  0.25556011  0.38990890  0.60961476  1
  V  V17  1  0.14066470  0.39342231  0.74776242  1
  V  V18  1  0.62339532  0.10531003  -0.00204333  1
  V  V19  1  0.37747801  0.00490950  0.37156649  1
  V  V20  1  0.61836392  0.11890715  0.51429531  1
  V  V21  1  0.50480884  0.10906806  0.11742798  1
  V  V22  1  0.38100118  -0.00032225  0.87184387  1
  V  V23  1  0.12670546  0.25851492  0.38782611  1
  V  V24  1  0.13560914  0.11936171  -0.01040839  1
  V  V25  1  0.14596984  0.00122096  0.13394107  1
  V  V26  1  0.75076377  0.11354158  0.37235792  1
  V  V27  1  0.87452859  0.25221882  0.62566469  1
  V  V28  1  0.61319442  0.38322437  0.74669180  1
  V  V29  1  0.11176893  0.85658538  0.74072335  1
  V  V30  1  0.62049482  0.73910412  0.40619881  1
  V  V31  1  0.89335646  0.75776362  0.61569469  1
  V  V32  1  0.73939973  0.37833882  0.62477296  1
  V  V33  1  0.12151382  0.63057429  0.03320103  1
  V  V34  1  0.88100343  0.37065622  0.48955758  1
  V  V35  1  0.07840030  0.60965359  0.52777435  1
  V  V36  1  0.49935811  0.38198453  0.37805537  1
  V  V37  1  0.38945942  0.62440561  0.75948658  1
  V  V38  1  0.78000978  0.47815049  0.76460008  1
  V  V39  1  0.36430227  0.50508574  0.88481701  1
  V  V40  1  0.87711858  0.00639628  0.87615478  1
  V  V41  1  0.74066511  0.49518645  0.23423343  1
  V  V42  1  0.50553187  0.50900245  0.01405302  1
  V  V43  1  0.75300439  0.63864966  0.86909034  1
  V  V44  1  0.37422002  0.86519580  0.49335986  1
  V  V45  1  0.74039599  0.87657142  0.10335677  1
  V  V46  1  0.49376067  0.24683924  0.74511171  1
  V  V47  1  0.00150438  0.12364468  0.62354538  1
  V  V48  1  0.36542876  0.74873355  0.64726505  1
  V  V49  1  0.12154523  0.86126150  0.29999113  1
  V  V50  1  0.23920631  -0.00140920  0.74436456  1
  V  V51  1  0.86784101  0.12573688  0.75125809  1
  V  V52  1  0.13233221  0.25114833  0.87001901  1
  V  V53  1  0.49990386  0.24713832  0.23641855  1
  V  V54  1  0.38992805  0.75719370  0.13267001  1
  V  V55  1  0.62794713  0.37214476  0.22659889  1
  V  V56  1  0.36676944  0.24772420  0.60997183  1
  V  V57  1  0.50993867  0.86021817  0.85713053  1
  V  V58  1  0.61440211  0.86116446  0.25158082  1
  V  V59  1  0.36421597  0.49324946  0.37567003  1
  V  V60  1  0.87030347  0.50008171  0.37911581  1
  V  V61  1  0.49848249  -0.00384868  0.51093552  1
  V  V62  1  0.74476533  0.24467268  0.50049937  1
  V  V63  1  0.87854333  0.10807001  0.25008177  1
  V  V64  1  0.73671707  -0.00433507  0.23986121  1
  V  V65  1  0.24505832  0.76515975  0.01133159  1
  V  V66  1  -0.00283511  0.25813811  0.25549811  1
  V  V67  1  0.24836333  0.64449609  0.37673079  1
  V  V68  1  -0.00382510  -0.00402184  0.49305066  1
  V  V69  1  0.00195165  0.00311866  -0.00117890  1
  V  V70  1  0.62036669  0.25562070  0.88929709  1
  V  V71  1  0.86334095  0.25542955  0.11884313  1
  V  V72  1  0.37357527  0.12352079  0.74874030  1
  Zn  Zn73  1  0.24742289  0.12857506  0.37229567  1
  Zn  Zn74  1  0.88884333  0.73658249  0.12848468  1
  Zn  Zn75  1  0.87299579  0.61650326  0.23248460  1
  Zn  Zn76  1  0.00041630  0.12319637  0.12341764  1
  Zn  Zn77  1  0.07826361  0.75563616  0.86627045  1
  Zn  Zn78  1  0.24159530  0.87071457  0.61606036  1
  Zn  Zn79  1  0.19448515  0.55253420  0.20499733  1
  Zn  Zn80  1  0.26520528  0.38896656  0.12471088  1
  Zn  Zn81  1  0.73827820  0.62112265  0.37350930  1
  Zn  Zn82  1  0.17958461  0.18457254  0.18393502  1
  Zn  Zn83  1  0.19282472  0.18439967  0.68325199  1
  Zn  Zn84  1  0.19937180  0.71909989  0.20197664  1
  Zn  Zn85  1  0.18207915  0.68063288  0.67876883  1
  Zn  Zn86  1  0.68528828  0.18302649  0.18024738  1
  Zn  Zn87  1  0.68184535  0.19371057  0.69341428  1
  Zn  Zn88  1  0.71584829  0.69779815  0.18949513  1
  Zn  Zn89  1  0.71393332  0.68119367  0.58342491  1
  Zn  Zn90  1  0.31155081  0.30714204  0.31309528  1
  Zn  Zn91  1  0.30831679  0.31179547  0.81477410  1
  Zn  Zn92  1  0.30627093  0.82840374  0.30952329  1
  Zn  Zn93  1  0.30150072  0.82083636  0.81846682  1
  Zn  Zn94  1  0.80726562  0.30712303  0.30624520  1
  Zn  Zn95  1  0.81101702  0.31463279  0.81993707  1
  Zn  Zn96  1  0.79976470  0.80273401  0.31191909  1
  Zn  Zn97  1  0.86750391  0.80022822  0.82176664  1
  Zn  Zn98  1  0.18489205  0.44594347  0.43907567  1
  Zn  Zn99  1  0.17582233  0.44644993  0.95177348  1
  Zn  Zn100  1  0.19402856  0.94465231  0.43763620  1
  Zn  Zn101  1  0.18781133  0.93238806  0.92093631  1
  Zn  Zn102  1  0.69210320  0.42969038  0.42835157  1
  Zn  Zn103  1  0.63368559  0.49523164  0.88340364  1
  Zn  Zn104  1  0.67676235  0.93278105  0.43032298  1
  Zn  Zn105  1  0.71541015  0.90787459  0.88674604  1
  Zn  Zn106  1  0.31753658  0.06937472  0.05462037  1
  Zn  Zn107  1  0.31536726  0.06207410  0.56775543  1
  Zn  Zn108  1  0.31332198  0.57282014  0.06231220  1
  Zn  Zn109  1  0.33304685  0.57250272  0.55527019  1
  Zn  Zn110  1  0.81012613  0.06815896  0.06317270  1
  Zn  Zn111  1  0.80889218  0.05524669  0.56447956  1
  Zn  Zn112  1  0.80694808  0.55851849  0.05366242  1
  Zn  Zn113  1  0.87798765  0.56547344  0.57323222  1
  Zn  Zn114  1  0.44069636  0.43338465  0.18933343  1
  Zn  Zn115  1  0.41973776  0.44164357  0.69759759  1
  Zn  Zn116  1  0.43617236  0.93867205  0.18895141  1
  Zn  Zn117  1  0.43938290  0.93209501  0.68504708  1
  Zn  Zn118  1  0.92808544  0.43096282  0.19360878  1
  Zn  Zn119  1  0.95380508  0.44621950  0.68838878  1
  Zn  Zn120  1  0.96336545  0.91105326  0.18164624  1
  Zn  Zn121  1  0.93184584  0.94004063  0.68305117  1
  Zn  Zn122  1  0.05443998  0.03722809  0.30324683  1
  Zn  Zn123  1  0.05834507  0.06496655  0.81000194  1
  Zn  Zn124  1  0.07159636  0.54529561  0.35098218  1
  Zn  Zn125  1  0.06907944  0.54835183  0.84911235  1
  Zn  Zn126  1  0.55788766  0.05926038  0.31300754  1
  Zn  Zn127  1  0.56353670  0.05617344  0.80629478  1
  Zn  Zn128  1  0.56495176  0.56622441  0.30503177  1
  Zn  Zn129  1  0.60396457  0.60766166  0.74086275  1
  Zn  Zn130  1  0.44185814  0.18600136  0.43230060  1
  Zn  Zn131  1  0.43799648  0.18220522  0.93247799  1
  Zn  Zn132  1  0.44252873  0.67740655  0.43528166  1
  Zn  Zn133  1  0.44051063  0.69021145  0.94279616  1
  Zn  Zn134  1  0.93847606  0.18244929  0.43268016  1
  Zn  Zn135  1  0.94495933  0.19161855  0.93784686  1
  Zn  Zn136  1  0.92545252  0.68455394  0.44346876  1
  Zn  Zn137  1  0.93746189  0.68027926  0.94838666  1
  Zn  Zn138  1  0.06580267  0.30212840  0.07080244  1
  Zn  Zn139  1  0.05727530  0.34091299  0.57146284  1
  Zn  Zn140  1  0.06323514  0.81627671  0.08007466  1
  Zn  Zn141  1  0.07239391  0.80660033  0.54101290  1
  Zn  Zn142  1  0.43539019  0.30953316  0.06196614  1
  Zn  Zn143  1  0.52327903  0.37283510  0.58423673  1
  Zn  Zn144  1  0.56821970  0.82011803  0.05421553  1
  Zn  Zn145  1  0.56584271  0.75175874  0.61314246  1
  O  O146  1  0.12372016  0.12071978  0.10229221  1
  O  O147  1  0.11079655  0.14084158  0.61236915  1
  O  O148  1  0.13863385  0.64063194  0.13615977  1
  O  O149  1  0.11785367  0.60683897  0.62073289  1
  O  O150  1  0.61531489  0.12362520  0.11034367  1
  O  O151  1  0.63126977  0.12713542  0.61230049  1
  O  O152  1  0.64709920  0.63423339  0.11112426  1
  O  O153  1  0.63612325  0.67798317  0.66268327  1
  O  O154  1  0.38978035  0.38270408  0.35403994  1
  O  O155  1  0.37926147  0.38603030  0.87284991  1
  O  O156  1  0.37194892  0.89618839  0.38218595  1
  O  O157  1  0.38331413  0.88118434  0.87930176  1
  O  O158  1  0.85720184  0.37757359  0.38528300  1
  O  O159  1  0.87171224  0.36110640  0.91580981  1
  O  O160  1  0.87025377  0.87313144  0.37276593  1
  O  O161  1  0.86355761  0.89520615  0.89324020  1
  O  O162  1  0.26995144  0.01593523  0.38540475  1
  O  O163  1  0.26689884  -0.01026254  0.85456912  1
  O  O164  1  0.26307022  0.49133343  0.36413803  1
  O  O165  1  0.25570801  0.52276305  0.89869594  1
  O  O166  1  0.74331391  0.00811365  0.36222844  1
  O  O167  1  0.76354892  0.02227204  0.87771298  1
  O  O168  1  0.75303546  0.49583286  0.36104280  1
  O  O169  1  0.74595620  0.47369178  0.85987477  1
  O  O170  1  0.25772140  0.50169342  0.12645283  1
  O  O171  1  0.27119147  0.48867152  0.61561066  1
  O  O172  1  0.24429554  1.00779537  0.11362487  1
  O  O173  1  0.25923025  0.99457641  0.64100740  1
  O  O174  1  0.75559793  0.49155879  0.13585200  1
  O  O175  1  0.76109842  0.47821381  0.64752401  1
  O  O176  1  0.74408359  1.00331770  0.13653985  1
  O  O177  1  0.76161052  0.99422842  0.64515601  1
  O  O178  1  0.00561448  0.36160426  0.25105056  1
  O  O179  1  0.02449853  0.35961808  0.73994522  1
  O  O180  1  0.03758616  0.92142327  0.27077996  1
  O  O181  1  0.01413149  0.88438537  0.74110724  1
  O  O182  1  0.51464871  0.36431441  0.25384802  1
  O  O183  1  0.49594098  0.36673218  0.76263492  1
  O  O184  1  0.51632424  0.87949840  0.24302732  1
  O  O185  1  0.49961725  0.86749206  0.75545115  1
  O  O186  1  0.50101380  0.12817056  0.23513714  1
  O  O187  1  0.49094221  0.13647453  0.75655211  1
  O  O188  1  0.48396492  0.63395660  0.25639187  1
  O  O189  1  0.48746228  0.62532816  0.75656643  1
  O  O190  1  0.98449154  0.12212598  0.25247707  1
  O  O191  1  0.99113956  0.13685681  0.74232855  1
  O  O192  1  0.98693077  0.64881799  0.29032659  1
  O  O193  1  1.00001007  0.61842643  0.79484307  1
  O  O194  1  0.36162531  0.24604783  -0.00603281  1
  O  O195  1  0.37829552  0.24050673  0.51120489  1
  O  O196  1  0.36989149  0.76308109  0.00939840  1
  O  O197  1  0.37350272  0.76912582  0.47719458  1
  O  O198  1  0.88422693  0.23624319  0.02109295  1
  O  O199  1  0.86096511  0.24891052  0.50201289  1
  O  O200  1  0.87602939  0.77199694  0.00632083  1
  O  O201  1  0.89100089  0.77954970  0.49988440  1
  O  O202  1  0.11173354  0.25021593  0.49007796  1
  O  O203  1  0.12643348  0.24375789  0.98758207  1
  O  O204  1  0.09766173  0.70338192  0.49218258  1
  O  O205  1  0.13815987  0.76036416  1.01126523  1
  O  O206  1  0.63343401  0.23223306  0.48950300  1
  O  O207  1  0.61527836  0.24848328  0.98639758  1
  O  O208  1  0.63206991  0.74172962  0.50967493  1
  O  O209  1  0.62022456  0.73526103  0.99381766  1
  O  O210  1  0.49958803  0.23869734  0.13277473  1
  O  O211  1  0.48136828  0.26566583  0.64054344  1
  O  O212  1  0.48825405  0.76196081  0.11807966  1
  O  O213  1  0.45733757  0.72811804  0.60500872  1
  O  O214  1  0.99619457  0.24101528  0.14199868  1
  O  O215  1  0.98818846  0.24651439  0.63018992  1
  O  O216  1  0.97853464  0.80127008  0.15012809  1
  O  O217  1  0.99087412  0.74574810  0.61525803  1
  O  O218  1  0.00883970  0.24137647  0.36129665  1
  O  O219  1  0.01258036  0.24919825  0.86502325  1
  O  O220  1  -0.01837068  0.70935512  0.33811412  1
  O  O221  1  -0.03407998  0.75977058  0.87212628  1
  O  O222  1  0.50880238  0.25061191  0.35979948  1
  O  O223  1  0.49877187  0.26120681  0.87107053  1
  O  O224  1  0.51947681  0.74764578  0.39108259  1
  O  O225  1  0.49483502  0.76118133  0.87410066  1
  O  O226  1  0.23134861  0.12278085  0.51063842  1
  O  O227  1  0.23961092  0.13587168  0.99509725  1
  O  O228  1  0.25734458  0.61904036  0.47533140  1
  O  O229  1  0.24376199  0.64816942  1.00281285  1
  O  O230  1  0.74223672  0.12370215  0.49266201  1
  O  O231  1  0.73241192  0.12484920  0.99472008  1
  O  O232  1  0.71032064  0.57532919  0.50628336  1
  O  O233  1  0.73669297  0.61601903  0.97662935  1
  O  O234  1  0.24088428  0.36325882  0.00053317  1
  O  O235  1  0.23984798  0.37649321  0.51080517  1
  O  O236  1  0.26264981  0.86797062  -0.01260017  1
  O  O237  1  0.27221115  0.89352426  0.50586550  1
  O  O238  1  0.83101439  0.40718021  -0.03362254  1
  O  O239  1  0.74531130  0.35896748  0.50683559  1
  O  O240  1  0.75428080  0.89320957  0.00014860  1
  O  O241  1  0.76414721  0.88635939  0.48931489  1
  O  O242  1  0.11718795  0.48199527  0.25818022  1
  O  O243  1  0.12410518  0.49025030  0.75679507  1
  O  O244  1  0.13967370  1.03982999  0.22938801  1
  O  O245  1  0.13670889  1.00277487  0.75197645  1
  O  O246  1  0.62838702  0.48260495  0.24692804  1
  O  O247  1  0.61827254  0.48655767  0.75353184  1
  O  O248  1  0.63326137  0.99049000  0.25447105  1
  O  O249  1  0.63383200  0.99274283  0.74535019  1
  O  O250  1  0.38182363  0.01323212  0.26096793  1
  O  O251  1  0.37379146  0.00576056  0.75362720  1
  O  O252  1  0.38299386  0.51237536  0.24983508  1
  O  O253  1  0.37096793  0.51555508  0.77200659  1
  O  O254  1  0.86515329  0.00783185  0.24732670  1
  O  O255  1  0.88650753  0.01802216  0.76158667  1
  O  O256  1  0.86049733  0.49818374  0.25826042  1
  O  O257  1  0.87313062  0.43770679  0.77222110  1
  O  O258  1  0.12540261  0.36221144  0.36865060  1
  O  O259  1  0.13418653  0.35594634  0.85499104  1
  O  O260  1  0.12230570  0.86202711  0.40445653  1
  O  O261  1  0.12750908  0.86397078  0.85220764  1
  O  O262  1  0.61639166  0.36046709  0.37184666  1
  O  O263  1  0.60476866  0.37190907  0.86687047  1
  O  O264  1  0.62872016  0.85566828  0.36034490  1
  O  O265  1  0.60740284  0.87664379  0.87955380  1
  O  O266  1  0.38837828  0.11977560  0.13336145  1
  O  O267  1  0.37465686  0.13900460  0.63651129  1
  O  O268  1  0.37713418  0.64534873  0.13560027  1
  O  O269  1  0.35330162  0.62940104  0.66105005  1
  O  O270  1  0.87411823  0.12962779  0.14188564  1
  O  O271  1  0.87631658  0.13655005  0.63125304  1
  O  O272  1  0.87805217  0.62128591  0.11516534  1
  O  O273  1  0.91065250  0.56055989  0.68493048  1
  O  O274  1  0.24113321  0.24885704  0.10556058  1
  O  O275  1  0.26323937  0.25279812  0.62525238  1
  O  O276  1  0.26485765  0.76396507  0.11452824  1
  O  O277  1  0.26253972  0.74592405  0.62125941  1
  O  O278  1  0.76353271  0.24335359  0.12953257  1
  O  O279  1  0.75495245  0.25264632  0.61862676  1
  O  O280  1  0.75233284  0.77729164  0.10713501  1
  O  O281  1  0.82646806  0.67332202  0.58648674  1
  O  O282  1  0.23242819  0.24502786  0.37291139  1
  O  O283  1  0.23895132  0.24729221  0.88493731  1
  O  O284  1  0.25976629  0.74412305  0.37198362  1
  O  O285  1  0.25683376  0.74323682  0.89311718  1
  O  O286  1  0.74105642  0.23969667  0.38018051  1
  O  O287  1  0.73638042  0.24105125  0.87269284  1
  O  O288  1  0.72965496  0.73977566  0.37826500  1
  O  O289  1  0.76347962  0.73632582  0.85820900  1
  O  O290  1  0.01458897  0.11867847  -0.00090041  1
  O  O291  1  0.00075344  0.12213891  0.50854150  1
  O  O292  1  0.02165580  0.64662651  0.01673526  1
  O  O293  1  -0.02750930  0.60905044  0.51893788  1
  O  O294  1  0.50682239  0.12692334  0.00922966  1
  O  O295  1  0.51507356  0.12268486  0.49942527  1
  O  O296  1  0.51317037  0.61916462  0.00105306  1
  O  O297  1  0.44018267  0.61014870  0.52424619  1
  O  O298  1  0.49845439  0.36186208  0.47520216  1
  O  O299  1  0.49387722  0.38342637  0.99032904  1
  O  O300  1  0.48362069  0.89289245  0.50018534  1
  O  O301  1  0.48637119  0.87594436  0.98871153  1
  O  O302  1  0.97726375  0.35170669  0.48329738  1
  O  O303  1  1.00334192  0.41208181  1.04085761  1
  O  O304  1  0.99924626  0.89408544  0.50461675  1
  O  O305  1  0.98630096  0.88974820  1.00250571  1
  O  O306  1  0.50157609  0.48444730  0.36724916  1
  O  O307  1  0.49229312  0.48668990  0.88345293  1
  O  O308  1  0.48635635  1.00951640  0.38608258  1
  O  O309  1  0.48571570  0.98785855  0.86476179  1
  O  O310  1  0.96954017  0.49764687  0.36585293  1
  O  O311  1  1.06700565  0.46277170  0.91787758  1
  O  O312  1  0.99350641  1.01477690  0.39565522  1
  O  O313  1  0.98901109  1.00936881  0.88439244  1
  O  O314  1  0.01267194  0.00381530  0.11032982  1
  O  O315  1  -0.00949836  0.01854963  0.61767579  1
  O  O316  1  -0.00432086  0.46587524  0.09359589  1
  O  O317  1  0.01208570  0.44614979  0.59551280  1
  O  O318  1  0.50100609  0.01060050  0.12285996  1
  O  O319  1  0.49208834  0.00363045  0.61080790  1
  O  O320  1  0.50010278  0.49718196  0.11198881  1
  O  O321  1  0.49636546  0.47348525  0.62488849  1
  O  O322  1  0.23550204  0.36588453  0.24898937  1
  O  O323  1  0.24523841  0.38070308  0.74727879  1
  O  O324  1  0.21644547  0.89360675  0.27679187  1
  O  O325  1  0.23790254  0.88249081  0.74241073  1
  O  O326  1  0.73480788  0.37678714  0.25005646  1
  O  O327  1  0.73382646  0.36881845  0.74431915  1
  O  O328  1  0.74416447  0.88734098  0.23744914  1
  O  O329  1  0.75771747  0.88695909  0.77676415  1
  O  O330  1  0.26794713  0.13594696  0.24312382  1
  O  O331  1  0.26049143  0.11159252  0.74664593  1
  O  O332  1  0.27101853  0.63573954  0.25269049  1
  O  O333  1  0.23765468  0.63448439  0.77661305  1
  O  O334  1  0.75310490  0.11375027  0.25332154  1
  O  O335  1  0.76166902  0.13647944  0.75838842  1
  O  O336  1  0.73489677  0.59892746  0.25091116  1
  O  O337  1  0.78283120  0.58925332  0.76599236  1
  O  O338  1  0.37563923  0.12323799  0.36004872  1
  O  O339  1  0.37858358  0.10779678  0.86730256  1
  O  O340  1  0.36907040  0.61147204  0.36153022  1
  O  O341  1  0.36511987  0.62612757  0.87258750  1
  O  O342  1  0.86092828  0.13117201  0.36055827  1
  O  O343  1  0.86892740  0.12966255  0.86979551  1
  O  O344  1  0.85572793  0.60639523  0.38945333  1
  O  O345  1  0.86731884  0.61699351  0.87596670  1
  O  O346  1  0.12807135  0.36852107  0.14186444  1
  O  O347  1  0.14766807  0.36774015  0.63984406  1
  O  O348  1  0.12870967  0.90124279  0.12682972  1
  O  O349  1  0.12728582  0.86002423  0.63074908  1
  O  O350  1  0.62201329  0.36611770  0.13194382  1
  O  O351  1  0.63031546  0.36375293  0.63391762  1
  O  O352  1  0.63549796  0.88178143  0.12659541  1
  O  O353  1  0.62589701  0.85992675  0.64455308  1
  O  O354  1  0.11314407  0.25246842  0.25664565  1
  O  O355  1  0.12216987  0.23594200  0.76099255  1
  O  O356  1  0.11554368  0.76869604  0.25893478  1
  O  O357  1  0.11602309  0.75282845  0.74702982  1
  O  O358  1  0.62186547  0.25372824  0.25267790  1
  O  O359  1  0.60969213  0.25766234  0.75838056  1
  O  O360  1  0.62895249  0.76296268  0.23498119  1
  O  O361  1  0.70538422  0.84062708  0.63081960  1
  O  O362  1  0.38789262  0.23437679  0.25642654  1
  O  O363  1  0.37715326  0.23837865  0.75670704  1
  O  O364  1  0.37337104  0.77128334  0.23323900  1
  O  O365  1  0.36992958  0.74515390  0.75216904  1
  O  O366  1  0.88576091  0.24378440  0.24730413  1
  O  O367  1  0.88253477  0.25003591  0.74552358  1
  O  O368  1  0.82931293  0.72587535  0.23310148  1
  O  O369  1  0.88182527  0.72318127  0.72918787  1
  O  O370  1  0.37728825  0.49171407  0.47335428  1
  O  O371  1  0.39203883  0.51860925  0.99135864  1
  O  O372  1  0.38787048  1.01342282  0.49147571  1
  O  O373  1  0.36810957  0.99136102  0.98283676  1
  O  O374  1  0.86338241  0.47955459  0.49276054  1
  O  O375  1  0.86702335  0.47522158  0.98253407  1
  O  O376  1  0.88338277  0.98945806  0.50331934  1
  O  O377  1  0.88556327  1.01093610  0.99356965  1
  O  O378  1  0.12534383  0.00904039  -0.00937798  1
  O  O379  1  0.11302114  0.01651931  0.50011152  1
  O  O380  1  0.13525682  0.53223028  0.02438542  1
  O  O381  1  0.10877050  0.52732879  0.46597037  1
  O  O382  1  0.62019183  0.01014736  -0.00861885  1
  O  O383  1  0.61286032  0.00883611  0.49375687  1
  O  O384  1  0.61096618  0.51268661  -0.00508568  1
  O  O385  1  0.65856782  0.51799918  0.51015289  1
  O  O386  1  0.37389990  0.36020600  0.13971380  1
  O  O387  1  0.36155356  0.35990127  0.63055236  1
  O  O388  1  0.37918450  0.87832778  0.10786704  1
  O  O389  1  0.37378050  0.85821901  0.61709699  1
  O  O390  1  0.87430351  0.35568247  0.12972041  1
  O  O391  1  0.86368012  0.36087507  0.60874006  1
  O  O392  1  0.85761507  0.89926515  0.10628182  1
  O  O393  1  0.86995959  0.85623047  0.63397964  1
  O  O394  1  0.12421401  0.13481420  0.39228480  1
  O  O395  1  0.12259010  0.13291243  0.88347262  1
  O  O396  1  0.15280100  0.62389110  0.34419907  1
  O  O397  1  0.13201185  0.64198001  0.89695725  1
  O  O398  1  0.63188161  0.13138815  0.37385447  1
  O  O399  1  0.62597602  0.13072447  0.88316562  1
  O  O400  1  0.62042909  0.63338109  0.37872474  1
  O  O401  1  0.65014539  0.61457667  0.85028400  1
