# generated using pymatgen
data_V73Zn73O256
_symmetry_space_group_name_H-M   'P 1'
_cell_length_a   16.92981930
_cell_length_b   16.95060817
_cell_length_c   16.89961924
_cell_angle_alpha   89.78105329
_cell_angle_beta   89.94816035
_cell_angle_gamma   90.12419590
_symmetry_Int_Tables_number   1
_chemical_formula_structural   V73Zn73O256
_chemical_formula_sum   'V73 Zn73 O256'
_cell_volume   4849.64730528
_cell_formula_units_Z   1
loop_
 _symmetry_equiv_pos_site_id
 _symmetry_equiv_pos_as_xyz
  1  'x, y, z'
loop_
 _atom_site_type_symbol
 _atom_site_label
 _atom_site_symmetry_multiplicity
 _atom_site_fract_x
 _atom_site_fract_y
 _atom_site_fract_z
 _atom_site_occupancy
  V  V0  1  0.37835500  0.13548746  0.24966487  1
  V  V1  1  0.49241719  0.48687394  0.00544829  1
  V  V2  1  0.50452257  0.24648788  0.75486019  1
  V  V3  1  0.37451597  0.36981980  0.49878794  1
  V  V4  1  0.62496761  0.50103423  0.62573653  1
  V  V5  1  0.80190178  0.55677925  0.69467675  1
  V  V6  1  0.75554317  0.00543121  0.24587261  1
  V  V7  1  0.37183367  0.00464460  0.36716263  1
  V  V8  1  0.61976156  0.87148016  0.76081157  1
  V  V9  1  0.63699369  0.37109715  0.75461347  1
  V  V10  1  0.74001673  0.87020716  0.12285905  1
  V  V11  1  0.11959011  0.62056003  0.50378595  1
  V  V12  1  -0.01184444  0.86212086  0.37907847  1
  V  V13  1  0.73740621  0.74939419  -0.01276035  1
  V  V14  1  0.62655091  0.87543371  0.25242938  1
  V  V15  1  0.64976760  0.37032536  0.24459381  1
  V  V16  1  0.75840494  0.74026947  0.50099756  1
  V  V17  1  0.87315251  0.48624104  0.36524014  1
  V  V18  1  0.12300905  0.89712246  0.25659497  1
  V  V19  1  0.62363863  -0.00134288  0.62221249  1
  V  V20  1  0.61863684  0.13300902  -0.00458340  1
  V  V21  1  0.12576426  0.74169540  0.36853234  1
  V  V22  1  0.75416613  0.36363135  0.61770708  1
  V  V23  1  0.74925789  0.61077919  0.87174258  1
  V  V24  1  0.37290326  0.24522500  0.62406189  1
  V  V25  1  0.50185441  0.62628169  0.62164459  1
  V  V26  1  0.24857148  0.65297585  0.86987732  1
  V  V27  1  0.37879036  0.74618956  0.62430235  1
  V  V28  1  0.51149326  0.11278489  0.13122645  1
  V  V29  1  0.75204054  0.12964630  0.38936522  1
  V  V30  1  0.74279245  0.14393833  0.87394686  1
  V  V31  1  -0.01495302  0.20916446  0.20101064  1
  V  V32  1  0.24614261  0.74381755  0.50078055  1
  V  V33  1  0.00785100  0.12501120  0.62077018  1
  V  V34  1  0.22783237  -0.00199188  0.77457899  1
  V  V35  1  0.75759709  0.87390092  0.61509889  1
  V  V36  1  0.13311610  0.50234792  0.63711059  1
  V  V37  1  0.83702915  0.37617233  0.02016795  1
  V  V38  1  0.25821166  0.24252349  0.00196873  1
  V  V39  1  0.00010920  0.76130964  0.75016300  1
  V  V40  1  0.50536127  0.87547564  0.36979149  1
  V  V41  1  0.01116925  0.39411764  0.88540309  1
  V  V42  1  0.40759404  -0.00730066  0.88740754  1
  V  V43  1  0.87788970  0.00532177  0.38898373  1
  V  V44  1  0.01693150  0.36822414  0.36157425  1
  V  V45  1  0.62404730  0.73783636  0.38457523  1
  V  V46  1  0.64011979  0.49701976  0.12775013  1
  V  V47  1  0.37738364  0.87767720  0.49899553  1
  V  V48  1  0.25516643  0.37389337  0.62970260  1
  V  V49  1  0.38707678  0.26365483  0.11612478  1
  V  V50  1  0.12797968  0.23812735  0.88726536  1
  V  V51  1  0.61163173  0.61967358  -0.00558901  1
  V  V52  1  0.37452434  0.50625335  0.85056328  1
  V  V53  1  0.36996940  0.51038269  0.36926893  1
  V  V54  1  0.87612982  0.13997104  0.75353620  1
  V  V55  1  0.86442387  -0.00027587  0.87180458  1
  V  V56  1  0.50515830  0.12511103  0.62372282  1
  V  V57  1  0.24000229  0.88889511  0.62510909  1
  V  V58  1  0.86764393  0.74087870  0.13841200  1
  V  V59  1  0.62537703  0.24554266  0.38455259  1
  V  V60  1  -0.00008293  0.61228414  0.11910396  1
  V  V61  1  0.50659867  0.50224706  0.50024039  1
  V  V62  1  0.49635289  0.37103872  0.87346423  1
  V  V63  1  0.20035157  0.19640571  0.43150935  1
  V  V64  1  -0.00351490  0.01543782  0.00476537  1
  V  V65  1  0.12912435  0.36610677  0.75461591  1
  V  V66  1  -0.00161122  0.48538640  0.51066852  1
  V  V67  1  0.49879232  0.74828548  0.76392465  1
  V  V68  1  0.87980005  0.25306874  0.60809857  1
  V  V69  1  0.50503036  0.00593325  0.49901872  1
  V  V70  1  0.86941990  0.87442647  -0.00618050  1
  V  V71  1  0.50289457  0.37194385  0.36403076  1
  V  V72  1  0.24366353  0.39439662  0.12518054  1
  Zn  Zn73  1  0.74513476  0.00004950  0.74834042  1
  Zn  Zn74  1  0.28150654  -0.01885936  0.20132063  1
  Zn  Zn75  1  0.02068418  -0.00294775  0.51471443  1
  Zn  Zn76  1  0.36943896  0.11686465  0.76087325  1
  Zn  Zn77  1  0.81241923  0.64351570  0.30566923  1
  Zn  Zn78  1  0.06903530  0.44850681  0.06173006  1
  Zn  Zn79  1  0.88737842  0.50382657  0.87271544  1
  Zn  Zn80  1  0.36465451  0.87345058  0.01801169  1
  Zn  Zn81  1  0.44687540  0.69158165  0.21715689  1
  Zn  Zn82  1  0.17093147  0.14764337  0.23388387  1
  Zn  Zn83  1  0.19269188  0.18219827  0.69629205  1
  Zn  Zn84  1  0.12467557  0.74045011  0.15075787  1
  Zn  Zn85  1  0.20066810  0.68188867  0.68924591  1
  Zn  Zn86  1  0.68372968  0.18657175  0.19738284  1
  Zn  Zn87  1  0.68900062  0.18706650  0.68746470  1
  Zn  Zn88  1  0.64152047  0.66917180  0.20676200  1
  Zn  Zn89  1  0.68007953  0.69426664  0.68307977  1
  Zn  Zn90  1  0.31303918  0.32319943  0.30587060  1
  Zn  Zn91  1  0.31544877  0.31003918  0.81318087  1
  Zn  Zn92  1  0.31195567  0.81502644  0.22153313  1
  Zn  Zn93  1  0.32341216  0.83100737  0.81106286  1
  Zn  Zn94  1  0.82823474  0.30269922  0.31262314  1
  Zn  Zn95  1  0.84092431  0.30120108  0.84923755  1
  Zn  Zn96  1  0.80655331  0.81945416  0.31861489  1
  Zn  Zn97  1  0.79696935  0.81290502  0.81108190  1
  Zn  Zn98  1  0.19063667  0.43343954  0.44011371  1
  Zn  Zn99  1  0.21020288  0.43466357  0.94312624  1
  Zn  Zn100  1  0.19128296  0.93013357  0.43585617  1
  Zn  Zn101  1  0.19967266  0.96246654  0.98098288  1
  Zn  Zn102  1  0.68912222  0.43045152  0.43591114  1
  Zn  Zn103  1  0.68286246  0.43533647  0.93518142  1
  Zn  Zn104  1  0.69019748  0.93872183  0.43854962  1
  Zn  Zn105  1  0.67621764  0.95041876  0.94051090  1
  Zn  Zn106  1  0.32725395  0.07473931  0.05448054  1
  Zn  Zn107  1  0.31366164  0.06910511  0.55786366  1
  Zn  Zn108  1  0.20688152  0.58463661  0.06034960  1
  Zn  Zn109  1  0.31547950  0.55969542  0.55720959  1
  Zn  Zn110  1  0.77739373  0.05378683  0.04722259  1
  Zn  Zn111  1  0.81198849  0.06543301  0.56585874  1
  Zn  Zn112  1  0.81264023  0.56123309  0.05440486  1
  Zn  Zn113  1  0.79513860  0.54555276  0.51960816  1
  Zn  Zn114  1  0.43661626  0.44501510  0.18916479  1
  Zn  Zn115  1  0.44366866  0.43066782  0.68637088  1
  Zn  Zn116  1  0.45842834  0.91608028  0.15708036  1
  Zn  Zn117  1  0.43479963  0.93692030  0.69368197  1
  Zn  Zn118  1  0.92787398  0.42953211  0.18872193  1
  Zn  Zn119  1  0.94391504  0.42756103  0.69438102  1
  Zn  Zn120  1  0.96675421  0.99726706  0.21943313  1
  Zn  Zn121  1  0.93480556  0.94669635  0.68696644  1
  Zn  Zn122  1  0.09154122  0.05269188  0.36643757  1
  Zn  Zn123  1  0.05011630  0.06408220  0.81992841  1
  Zn  Zn124  1  0.01269146  0.58905003  0.32562647  1
  Zn  Zn125  1  0.07336551  0.57789385  0.93345263  1
  Zn  Zn126  1  0.56630660  0.06166319  0.30900071  1
  Zn  Zn127  1  0.56256879  0.06110066  0.81176896  1
  Zn  Zn128  1  0.55996139  0.55614641  0.31081591  1
  Zn  Zn129  1  0.55768021  0.56027425  0.80892219  1
  Zn  Zn130  1  0.43923481  0.18885980  0.43648930  1
  Zn  Zn131  1  0.43929464  0.18209172  0.93826010  1
  Zn  Zn132  1  0.40043596  0.71852294  0.38753711  1
  Zn  Zn133  1  0.38718648  0.63987231  0.98327280  1
  Zn  Zn134  1  0.94415198  0.18980039  0.43379076  1
  Zn  Zn135  1  0.95937233  0.22566715  0.98917020  1
  Zn  Zn136  1  0.93626906  0.67737464  0.45534476  1
  Zn  Zn137  1  0.92748349  0.68693259  0.94055033  1
  Zn  Zn138  1  0.10267498  0.27189506  0.10534502  1
  Zn  Zn139  1  0.06980672  0.30553704  0.55951249  1
  Zn  Zn140  1  0.00723579  0.86579427  0.10581199  1
  Zn  Zn141  1  0.06283124  0.81888402  0.55524540  1
  Zn  Zn142  1  0.57327805  0.31018608  0.06233830  1
  Zn  Zn143  1  0.56402105  0.31347352  0.56238631  1
  Zn  Zn144  1  0.54904118  0.79902903  0.05049787  1
  Zn  Zn145  1  0.56569407  0.81505473  0.56074257  1
  O  O146  1  0.16532481  0.08790302  0.12462305  1
  O  O147  1  0.10457091  0.13987367  0.63741841  1
  O  O148  1  0.10511132  0.63650298  0.11029125  1
  O  O149  1  0.13436878  0.60842275  0.62441488  1
  O  O150  1  0.61509090  0.13715927  0.12141678  1
  O  O151  1  0.61598142  0.11311295  0.63071592  1
  O  O152  1  0.62606695  0.60521053  0.10444378  1
  O  O153  1  0.61836106  0.61029541  0.63044971  1
  O  O154  1  0.38721707  0.37921808  0.38200023  1
  O  O155  1  0.39201529  0.38192752  0.86473963  1
  O  O156  1  0.38958072  0.88910687  0.38506824  1
  O  O157  1  0.38271581  0.88895897  0.88749507  1
  O  O158  1  0.88618570  0.38269077  0.37672038  1
  O  O159  1  0.91194328  0.38811456  0.84446816  1
  O  O160  1  0.88334128  0.88439652  0.37764579  1
  O  O161  1  0.85073458  0.89052774  0.88106715  1
  O  O162  1  0.27408148  -0.00510807  0.37809822  1
  O  O163  1  0.24146401  -0.00830589  0.87338893  1
  O  O164  1  0.27157508  0.49285698  0.38469396  1
  O  O165  1  0.27643877  0.48719806  0.86790059  1
  O  O166  1  0.75711786  0.00896309  0.37328945  1
  O  O167  1  0.75317563  0.01591158  0.87111404  1
  O  O168  1  0.77585638  0.50107417  0.40828365  1
  O  O169  1  0.74732834  0.50929888  0.86961883  1
  O  O170  1  0.25715609  0.49276903  0.11787108  1
  O  O171  1  0.24200281  0.48709401  0.61640297  1
  O  O172  1  0.22096074  1.03175366  0.10774956  1
  O  O173  1  0.25539038  0.98799161  0.61352881  1
  O  O174  1  0.73828655  0.49731113  0.11890126  1
  O  O175  1  0.74604740  0.49045724  0.62753154  1
  O  O176  1  0.75852250  0.98654757  0.14042914  1
  O  O177  1  0.73985880  0.99228611  0.62328758  1
  O  O178  1  0.00359737  0.38476968  0.26146104  1
  O  O179  1  0.02759768  0.37018822  0.74918403  1
  O  O180  1  0.00522547  0.88787310  0.27380509  1
  O  O181  1  -0.00067582  0.86657311  0.75153139  1
  O  O182  1  0.50332575  0.37775662  0.26307116  1
  O  O183  1  0.50970957  0.36280445  0.75324775  1
  O  O184  1  0.51312674  0.88288009  0.25850610  1
  O  O185  1  0.51205435  0.86361779  0.74369291  1
  O  O186  1  0.49698218  0.12506374  0.23987259  1
  O  O187  1  0.50388905  0.13253451  0.74050284  1
  O  O188  1  0.53462331  0.62986001  0.23159467  1
  O  O189  1  0.50769210  0.63982823  0.73650617  1
  O  O190  1  0.98006292  0.11066097  0.21631062  1
  O  O191  1  0.98005266  0.11942669  0.74134063  1
  O  O192  1  0.99499673  0.62767399  0.22074161  1
  O  O193  1  0.99788813  0.65789268  0.74365478  1
  O  O194  1  0.37649174  0.25083762  0.00758999  1
  O  O195  1  0.38905139  0.25951478  0.51235293  1
  O  O196  1  0.39694175  0.72859368  0.05651967  1
  O  O197  1  0.36570292  0.76031020  0.49814549  1
  O  O198  1  0.86992761  0.29137632  -0.03488282  1
  O  O199  1  0.87257183  0.24938944  0.51025513  1
  O  O200  1  0.85667848  0.76541569  -0.01514822  1
  O  O201  1  0.85918633  0.74727200  0.49641898  1
  O  O202  1  0.13735124  0.24491991  0.49424312  1
  O  O203  1  0.14428021  0.24552847  0.99847120  1
  O  O204  1  0.12727930  0.73939264  0.50292877  1
  O  O205  1  0.10933183  0.77220212  1.00275051  1
  O  O206  1  0.63152346  0.25950809  0.48353518  1
  O  O207  1  0.63124936  0.23309238  1.00247531  1
  O  O208  1  0.63481583  0.75942264  0.48829499  1
  O  O209  1  0.62324569  0.72905974  1.00434989  1
  O  O210  1  0.48998852  0.24810063  0.11962046  1
  O  O211  1  0.49708731  0.24263838  0.63114180  1
  O  O212  1  0.46586363  0.71937098  0.10230582  1
  O  O213  1  0.49551195  0.74131550  0.61725502  1
  O  O214  1  0.98593961  0.24352805  0.10094488  1
  O  O215  1  0.98548251  0.24547740  0.62128949  1
  O  O216  1  0.96977673  0.75647554  0.12044861  1
  O  O217  1  0.99766456  0.76743883  0.64487014  1
  O  O218  1  0.00175293  0.26808879  0.37810219  1
  O  O219  1  0.02701574  0.26841806  0.89276424  1
  O  O220  1  0.00316261  0.75875185  0.38557254  1
  O  O221  1  0.00341785  0.75712949  0.85452239  1
  O  O222  1  0.51648817  0.25706689  0.37891753  1
  O  O223  1  0.49591927  0.25482298  0.86353811  1
  O  O224  1  0.51248214  0.76654742  0.38502823  1
  O  O225  1  0.49236609  0.74484336  0.85903665  1
  O  O226  1  0.25986143  0.13483471  0.48662111  1
  O  O227  1  0.26344034  0.14322975  0.98979043  1
  O  O228  1  0.23912978  0.63569704  0.50888734  1
  O  O229  1  0.27282035  0.62697215  0.97614024  1
  O  O230  1  0.74474780  0.12179641  0.48826844  1
  O  O231  1  0.75678366  0.14360714  0.97489368  1
  O  O232  1  0.73973667  0.64236660  0.50841013  1
  O  O233  1  0.73836440  0.62840002  0.98624312  1
  O  O234  1  0.25757874  0.36278762  0.01855354  1
  O  O235  1  0.26678189  0.37491452  0.51237012  1
  O  O236  1  0.25113137  0.87263551  0.01892867  1
  O  O237  1  0.25820608  0.86660387  0.50721994  1
  O  O238  1  0.73665174  0.36770034  0.00808325  1
  O  O239  1  0.75121825  0.37567705  0.51959169  1
  O  O240  1  0.73896074  0.86805889  0.00383037  1
  O  O241  1  0.74959165  0.87110710  0.51017566  1
  O  O242  1  0.14306892  0.52126662  0.26073776  1
  O  O243  1  0.13382944  0.48580049  0.73575961  1
  O  O244  1  0.11365759  0.99797304  0.25867512  1
  O  O245  1  0.12809801  0.99995891  0.76474129  1
  O  O246  1  0.62544138  0.48424882  0.23711397  1
  O  O247  1  0.61642445  0.48270667  0.73653398  1
  O  O248  1  0.64192951  0.98723209  0.25945797  1
  O  O249  1  0.62148549  0.98791798  0.73979413  1
  O  O250  1  0.38716709  0.00450854  0.26481252  1
  O  O251  1  0.37884306  -0.00490511  0.77220273  1
  O  O252  1  0.38556381  0.50637064  0.26840803  1
  O  O253  1  0.38625620  0.50237759  0.75023862  1
  O  O254  1  0.85858927  -0.00524368  0.26802527  1
  O  O255  1  0.86872527  0.00276017  0.76266949  1
  O  O256  1  0.86626284  0.49483009  0.26591448  1
  O  O257  1  0.87453848  0.50551394  0.74505342  1
  O  O258  1  0.11658842  0.38375676  0.37271153  1
  O  O259  1  0.12659719  0.38286377  0.86380418  1
  O  O260  1  0.11481018  0.86120322  0.36752747  1
  O  O261  1  0.15166891  0.81205867  0.95828762  1
  O  O262  1  0.62513184  0.36853312  0.36355825  1
  O  O263  1  0.61684615  0.37941074  0.85839272  1
  O  O264  1  0.61884439  0.87682090  0.37184658  1
  O  O265  1  0.63168306  0.88184463  0.85948373  1
  O  O266  1  0.39475382  0.12936184  0.13199127  1
  O  O267  1  0.38805270  0.13044254  0.62794660  1
  O  O268  1  0.27413943  0.66212562  0.14294578  1
  O  O269  1  0.38400010  0.63773884  0.61635459  1
  O  O270  1  0.82808874  0.15139711  0.11782452  1
  O  O271  1  0.87342634  0.13953098  0.63362377  1
  O  O272  1  0.87717178  0.63798126  0.11194865  1
  O  O273  1  0.84635693  0.61174859  0.62802574  1
  O  O274  1  0.27070872  0.24698173  0.11147062  1
  O  O275  1  0.26696832  0.25279998  0.63308164  1
  O  O276  1  0.24745727  0.73498923  0.14548840  1
  O  O277  1  0.25980083  0.76010357  0.62063461  1
  O  O278  1  0.78260742  0.21130590  0.12775067  1
  O  O279  1  0.75860534  0.25830596  0.62636787  1
  O  O280  1  0.75796208  0.75280805  0.10446011  1
  O  O281  1  0.74128324  0.76414003  0.61357936  1
  O  O282  1  0.26139516  0.26105510  0.38305276  1
  O  O283  1  0.24259189  0.26481184  0.89030330  1
  O  O284  1  0.22967404  0.75191569  0.39178435  1
  O  O285  1  0.26947281  0.75199988  0.86991117  1
  O  O286  1  0.74662157  0.23560937  0.36866644  1
  O  O287  1  0.74395496  0.24183270  0.85222540  1
  O  O288  1  0.74128482  0.75004516  0.38643779  1
  O  O289  1  0.74312187  0.73789002  0.88058155  1
  O  O290  1  -0.02021822  0.11342916  0.00480251  1
  O  O291  1  -0.00439687  0.12556556  0.51643723  1
  O  O292  1  -0.00784225  0.62367772  0.00437461  1
  O  O293  1  0.01228416  0.60972802  0.51021456  1
  O  O294  1  0.51417892  0.12430850  0.01018084  1
  O  O295  1  0.49666095  0.11636978  0.51031539  1
  O  O296  1  0.50864448  0.60437223  -0.00948958  1
  O  O297  1  0.50417777  0.60802026  0.51300411  1
  O  O298  1  0.49524583  0.38154539  0.49491368  1
  O  O299  1  0.51490584  0.38051018  0.98550597  1
  O  O300  1  0.49467421  0.88572658  0.49465398  1
  O  O301  1  0.47512202  0.87677872  1.04930686  1
  O  O302  1  1.01144150  0.38378711  0.49379059  1
  O  O303  1  1.00430069  0.38689769  0.98579340  1
  O  O304  1  1.00538792  0.88458488  0.48261135  1
  O  O305  1  0.97004100  0.87905182  0.99014432  1
  O  O306  1  0.50137701  0.48938912  0.38437501  1
  O  O307  1  0.49477715  0.48917938  0.87772063  1
  O  O308  1  0.50070923  0.99651331  0.38367858  1
  O  O309  1  0.50879044  0.99314053  0.88633912  1
  O  O310  1  0.99004687  0.48995510  0.38836387  1
  O  O311  1  1.01126598  0.49813841  0.87286842  1
  O  O312  1  0.98028501  1.00870575  0.37159795  1
  O  O313  1  0.97044383  1.00861737  0.88676810  1
  O  O314  1  -0.01408827  -0.01993911  0.10620036  1
  O  O315  1  -0.00517211  0.01721359  0.62503233  1
  O  O316  1  -0.00890512  0.50799832  0.12172567  1
  O  O317  1  0.02182440  0.48311590  0.61931076  1
  O  O318  1  0.51345574  0.01523617  0.13026800  1
  O  O319  1  0.50377678  0.00569673  0.61915975  1
  O  O320  1  0.50881817  0.48579826  0.10923528  1
  O  O321  1  0.50692038  0.50341902  0.61973858  1
  O  O322  1  0.25907349  0.37361853  0.22428488  1
  O  O323  1  0.24843380  0.37184103  0.73753360  1
  O  O324  1  0.22718442  0.88893011  0.25907098  1
  O  O325  1  0.25388733  0.89265745  0.73518247  1
  O  O326  1  0.74792179  0.37058593  0.25464612  1
  O  O327  1  0.73711569  0.37297362  0.74390959  1
  O  O328  1  0.74460961  0.88183287  0.24403064  1
  O  O329  1  0.73351800  0.87283956  0.73598956  1
  O  O330  1  0.27992552  0.10497558  0.23824984  1
  O  O331  1  0.25383795  0.09811793  0.74288819  1
  O  O332  1  0.20010569  0.56605506  0.25451911  1
  O  O333  1  0.25758563  0.62944453  0.76768254  1
  O  O334  1  0.74397112  0.10789504  0.25806503  1
  O  O335  1  0.75867914  0.12056890  0.75062414  1
  O  O336  1  0.73556103  0.62059363  0.23540094  1
  O  O337  1  0.74403205  0.62505146  0.75703385  1
  O  O338  1  0.38888168  0.11806172  0.36058993  1
  O  O339  1  0.38970526  0.10376342  0.87515358  1
  O  O340  1  0.38425189  0.60698738  0.39297320  1
  O  O341  1  0.38009216  0.60776239  0.86976823  1
  O  O342  1  0.86213827  0.11853229  0.38009627  1
  O  O343  1  0.86087081  0.12149801  0.86041998  1
  O  O344  1  0.89564612  0.60820195  0.37217357  1
  O  O345  1  0.85514106  0.61921356  0.87892928  1
  O  O346  1  0.13697268  0.38007406  0.12305099  1
  O  O347  1  0.13839423  0.37132350  0.63407043  1
  O  O348  1  0.10867586  0.85590065  0.15826983  1
  O  O349  1  0.14122790  0.87688793  0.61608531  1
  O  O350  1  0.62875889  0.37884719  0.13739876  1
  O  O351  1  0.63700251  0.37705014  0.63187110  1
  O  O352  1  0.63495345  0.85744168  0.13652331  1
  O  O353  1  0.62894212  0.88569628  0.62983158  1
  O  O354  1  0.09147853  0.22751802  0.21444918  1
  O  O355  1  0.14156594  0.26029774  0.76975820  1
  O  O356  1  0.12525190  0.73962057  0.26952748  1
  O  O357  1  0.10411582  0.76112243  0.74632046  1
  O  O358  1  0.63005076  0.26553090  0.25873276  1
  O  O359  1  0.61615341  0.26112206  0.74070704  1
  O  O360  1  0.63265859  0.76696462  0.27313386  1
  O  O361  1  0.61301738  0.76186450  0.74793664  1
  O  O362  1  0.37354289  0.23859057  0.23821655  1
  O  O363  1  0.38657420  0.24450756  0.74188501  1
  O  O364  1  0.37351417  0.74333620  0.27869153  1
  O  O365  1  0.39116463  0.76513818  0.73270948  1
  O  O366  1  0.90426182  0.24931711  0.24820317  1
  O  O367  1  0.87534159  0.24033377  0.75112059  1
  O  O368  1  0.85728929  0.74642033  0.24009195  1
  O  O369  1  0.89549971  0.76362665  0.75552596  1
  O  O370  1  0.38824294  0.48728210  0.49842640  1
  O  O371  1  0.39485068  0.49755323  0.99431695  1
  O  O372  1  0.38716319  0.99636583  0.49263841  1
  O  O373  1  0.37589129  0.99837757  0.99036508  1
  O  O374  1  0.89851850  0.49671013  0.51629939  1
  O  O375  1  0.85808017  0.47580765  0.98776362  1
  O  O376  1  0.87469937  1.00248450  0.49046206  1
  O  O377  1  0.86177670  0.99067347  0.99111675  1
  O  O378  1  0.09344814  -0.00064986  -0.01535795  1
  O  O379  1  0.12153264  0.00973348  0.46668403  1
  O  O380  1  0.14086197  0.50924061  -0.00294555  1
  O  O381  1  0.12160125  0.50548219  0.50709512  1
  O  O382  1  0.66016281  0.03366254  0.01550486  1
  O  O383  1  0.61401152  -0.00491536  0.50871688  1
  O  O384  1  0.61926682  0.50225806  0.00661854  1
  O  O385  1  0.61856480  0.48574254  0.51404402  1
  O  O386  1  0.37889860  0.36445358  0.12696884  1
  O  O387  1  0.37455099  0.36534931  0.61969427  1
  O  O388  1  0.34537847  0.89868389  0.14920635  1
  O  O389  1  0.37509372  0.86925201  0.61133510  1
  O  O390  1  0.86384044  0.37062927  0.11719879  1
  O  O391  1  0.86562416  0.36109113  0.63562269  1
  O  O392  1  0.85644889  0.86043202  0.10664140  1
  O  O393  1  0.85552979  0.88456243  0.63163249  1
  O  O394  1  0.14944579  0.14694675  0.35063679  1
  O  O395  1  0.11822987  0.14111000  0.87331937  1
  O  O396  1  0.10579933  0.63700616  0.38774805  1
  O  O397  1  0.14649976  0.64510895  0.88093022  1
  O  O398  1  0.63313066  0.13858091  0.37049816  1
  O  O399  1  0.63242080  0.12385570  0.88281673  1
  O  O400  1  0.61642314  0.64001160  0.37889712  1
  O  O401  1  0.63156557  0.61262965  0.88545298  1
