# generated using pymatgen
data_V73Zn73O256
_symmetry_space_group_name_H-M   'P 1'
_cell_length_a   16.92074664
_cell_length_b   16.89716551
_cell_length_c   16.88854749
_cell_angle_alpha   89.95602527
_cell_angle_beta   89.90885245
_cell_angle_gamma   89.80680525
_symmetry_Int_Tables_number   1
_chemical_formula_structural   V73Zn73O256
_chemical_formula_sum   'V73 Zn73 O256'
_cell_volume   4828.61451397
_cell_formula_units_Z   1
loop_
 _symmetry_equiv_pos_site_id
 _symmetry_equiv_pos_as_xyz
  1  'x, y, z'
loop_
 _atom_site_type_symbol
 _atom_site_label
 _atom_site_symmetry_multiplicity
 _atom_site_fract_x
 _atom_site_fract_y
 _atom_site_fract_z
 _atom_site_occupancy
  V  V0  1  -0.00705997  0.00368001  0.48949256  1
  V  V1  1  0.01926923  0.75913356  0.24920039  1
  V  V2  1  0.75961462  0.25351156  0.00777704  1
  V  V3  1  0.24867383  0.87902966  0.12664494  1
  V  V4  1  0.62836810  0.24416952  0.87735452  1
  V  V5  1  0.00354004  0.50321759  0.53373379  1
  V  V6  1  0.36200483  0.25768735  0.61638422  1
  V  V7  1  0.37290198  0.75647494  0.62301589  1
  V  V8  1  0.76159277  0.37873612  0.13152058  1
  V  V9  1  0.26782116  0.11141562  0.87843102  1
  V  V10  1  0.74544612  0.01459872  0.73059292  1
  V  V11  1  0.14008545  0.12654438  0.49266216  1
  V  V12  1  0.61838203  0.61976883  0.48797826  1
  V  V13  1  0.74866930  0.75315817  -0.00149267  1
  V  V14  1  0.27149927  -0.00034146  0.74442716  1
  V  V15  1  0.49799339  0.00073226  -0.00426151  1
  V  V16  1  0.24189358  -0.00543122  0.26007899  1
  V  V17  1  0.35350529  0.37269374  0.00018694  1
  V  V18  1  0.89007821  0.37397529  0.47952787  1
  V  V19  1  0.63084937  0.87720116  0.72297941  1
  V  V20  1  0.64056375  0.37502414  0.74917173  1
  V  V21  1  0.14577107  0.49361862  0.10989982  1
  V  V22  1  0.62530464  -0.00370286  0.14223881  1
  V  V23  1  0.49987396  0.62338501  0.13885511  1
  V  V24  1  0.63004980  0.12506493  0.00138980  1
  V  V25  1  0.75686432  0.61445924  0.36292717  1
  V  V26  1  0.61913021  0.76126731  0.37224017  1
  V  V27  1  0.50568082  0.74771013  0.75207478  1
  V  V28  1  0.86989808  0.00115498  0.36159960  1
  V  V29  1  0.50325265  0.25831970  0.26037714  1
  V  V30  1  0.36878428  0.50807279  0.86036933  1
  V  V31  1  0.87172236  0.74869463  0.13504526  1
  V  V32  1  0.84930880  0.46405981  0.88389327  1
  V  V33  1  0.12322066  0.25664994  0.37041439  1
  V  V34  1  0.48379777  0.47614025  0.50518331  1
  V  V35  1  0.36289309  0.49817340  0.35562102  1
  V  V36  1  0.48589386  0.24282908  0.75301202  1
  V  V37  1  0.87702536  0.26000312  0.63123471  1
  V  V38  1  0.49705675  0.62181638  0.62950100  1
  V  V39  1  0.37838075  0.74611860  0.12815280  1
  V  V40  1  0.24181457  0.62963902  0.40035156  1
  V  V41  1  -0.00383204  0.12180177  0.62638297  1
  V  V42  1  0.24678261  0.27439334  0.49952481  1
  V  V43  1  0.13740343  0.36823594  0.75316412  1
  V  V44  1  0.00023668  0.12450103  0.11642003  1
  V  V45  1  0.74871210  0.87622761  0.14314634  1
  V  V46  1  0.00222203  -0.01379957  -0.00851141  1
  V  V47  1  -0.00218487  0.61668912  0.12571982  1
  V  V48  1  0.50196896  0.50071578  -0.00066411  1
  V  V49  1  0.36960362  0.87465910  0.49587729  1
  V  V50  1  0.49964112  0.76451143  0.25525823  1
  V  V51  1  0.74346086  0.13357373  0.37161885  1
  V  V52  1  0.76480973  0.75566552  0.49933723  1
  V  V53  1  0.00536044  0.24508794  0.75908277  1
  V  V54  1  0.63621602  0.49285130  0.62464205  1
  V  V55  1  0.13470940  0.00111484  0.62274869  1
  V  V56  1  0.85326092  0.00941690  0.88435714  1
  V  V57  1  0.36708333  0.12454771  0.26286727  1
  V  V58  1  0.62914547  0.62952172  -0.00760062  1
  V  V59  1  0.51801213  0.00330063  0.49890633  1
  V  V60  1  0.25688014  0.75247586  -0.00841879  1
  V  V61  1  0.49307553  0.12818649  0.12873449  1
  V  V62  1  0.38061919  0.88022066  -0.00918533  1
  V  V63  1  0.13884582  0.38100837  0.24281461  1
  V  V64  1  0.75075347  0.25516559  0.49625911  1
  V  V65  1  0.13410304  0.22704721  0.89689621  1
  V  V66  1  0.12444717  0.88076586  0.74604719  1
  V  V67  1  0.62573863  0.49128870  0.14033864  1
  V  V68  1  0.12130610  0.76392210  0.86976417  1
  V  V69  1  0.12323871  0.62608675  -0.00569084  1
  V  V70  1  -0.00470989  0.25566213  0.24417189  1
  V  V71  1  0.50042285  0.37729727  0.87502868  1
  V  V72  1  0.51682853  0.87290819  0.87617650  1
  Zn  Zn73  1  0.35309657  0.26009761  0.12473770  1
  Zn  Zn74  1  0.50458886  0.12453294  0.62221388  1
  Zn  Zn75  1  -0.01632485  0.85987944  0.37891978  1
  Zn  Zn76  1  0.87163948  0.13333658  0.24349177  1
  Zn  Zn77  1  0.26184933  0.63170500  0.86004211  1
  Zn  Zn78  1  0.86613084  0.77455462  0.63305902  1
  Zn  Zn79  1  0.12110576  -0.00680713  0.12475299  1
  Zn  Zn80  1  0.38566095  -0.01246187  0.37450375  1
  Zn  Zn81  1  -0.01580865  0.73172654  0.74883202  1
  Zn  Zn82  1  0.18216259  0.18253967  0.18308262  1
  Zn  Zn83  1  0.19231542  0.17812669  0.68949387  1
  Zn  Zn84  1  0.19826113  0.68712406  0.18369331  1
  Zn  Zn85  1  0.17960869  0.70002921  0.66545682  1
  Zn  Zn86  1  0.68514851  0.19183066  0.18860299  1
  Zn  Zn87  1  0.68257299  0.18852192  0.67869493  1
  Zn  Zn88  1  0.68238806  0.68096551  0.18937121  1
  Zn  Zn89  1  0.67960675  0.69425013  0.67190260  1
  Zn  Zn90  1  0.31311486  0.31302774  0.31332702  1
  Zn  Zn91  1  0.30548693  0.31012474  0.83183448  1
  Zn  Zn92  1  0.31010209  0.80594680  0.31508272  1
  Zn  Zn93  1  0.31778682  0.82291521  0.80304339  1
  Zn  Zn94  1  0.81102889  0.31990807  0.31087328  1
  Zn  Zn95  1  0.81504942  0.28881558  0.81344758  1
  Zn  Zn96  1  0.81001084  0.80844537  0.31779409  1
  Zn  Zn97  1  0.79192611  0.81371236  0.81581691  1
  Zn  Zn98  1  0.17688772  0.45128445  0.43253544  1
  Zn  Zn99  1  0.08859618  0.42745870  0.91940929  1
  Zn  Zn100  1  0.20126731  0.93878275  0.45033683  1
  Zn  Zn101  1  0.19756166  0.95198039  0.93928173  1
  Zn  Zn102  1  0.68988604  0.42899983  0.43887515  1
  Zn  Zn103  1  0.68252084  0.43351607  0.94525006  1
  Zn  Zn104  1  0.69238547  0.94043547  0.43495815  1
  Zn  Zn105  1  0.68533012  0.93432595  0.95153740  1
  Zn  Zn106  1  0.28612587  0.09238803  0.07763244  1
  Zn  Zn107  1  0.32895618  0.06922337  0.56499241  1
  Zn  Zn108  1  0.31759487  0.56615525  0.05141836  1
  Zn  Zn109  1  0.30735799  0.56403242  0.58001000  1
  Zn  Zn110  1  0.81616930  0.05817104  0.06595268  1
  Zn  Zn111  1  0.81111891  0.06869550  0.55550246  1
  Zn  Zn112  1  0.81307944  0.56222980  0.05742089  1
  Zn  Zn113  1  0.79821514  0.54315282  0.51683836  1
  Zn  Zn114  1  0.42588360  0.43684103  0.18155217  1
  Zn  Zn115  1  0.43806222  0.43026530  0.68402194  1
  Zn  Zn116  1  0.43220790  0.94139287  0.18320884  1
  Zn  Zn117  1  0.45237873  0.93556260  0.67680064  1
  Zn  Zn118  1  0.94116672  0.43488737  0.04925368  1
  Zn  Zn119  1  0.94245647  0.43915525  0.71201854  1
  Zn  Zn120  1  0.93746813  0.93473857  0.18427651  1
  Zn  Zn121  1  0.90714601  0.89877563  0.74563116  1
  Zn  Zn122  1  0.06277247  0.07150647  0.30895756  1
  Zn  Zn123  1  0.06195530  0.05696512  0.81530765  1
  Zn  Zn124  1  0.11487833  0.58755788  0.28613326  1
  Zn  Zn125  1  0.12172203  0.56700199  0.78466636  1
  Zn  Zn126  1  0.55750324  0.07166790  0.32145549  1
  Zn  Zn127  1  0.56644653  0.05962929  0.81118015  1
  Zn  Zn128  1  0.54925697  0.43069524  0.32279836  1
  Zn  Zn129  1  0.56960154  0.56010646  0.81091165  1
  Zn  Zn130  1  0.43627571  0.18931083  0.44106999  1
  Zn  Zn131  1  0.43882884  0.18893090  0.94094271  1
  Zn  Zn132  1  0.43276118  0.67815666  0.43743999  1
  Zn  Zn133  1  0.44461300  0.68843493  0.93682087  1
  Zn  Zn134  1  0.93946563  0.18629271  0.43403089  1
  Zn  Zn135  1  0.93525019  0.17801628  0.93770267  1
  Zn  Zn136  1  0.94503622  0.67514584  0.43045556  1
  Zn  Zn137  1  0.92216942  0.82002385  0.93853580  1
  Zn  Zn138  1  0.06790456  0.30794294  0.06104280  1
  Zn  Zn139  1  0.06647887  0.31845724  0.57225630  1
  Zn  Zn140  1  0.06444419  0.80818614  0.06295435  1
  Zn  Zn141  1  0.01110227  0.85315358  0.59409893  1
  Zn  Zn142  1  0.55819167  0.30949068  0.06838189  1
  Zn  Zn143  1  0.56888925  0.29351079  0.57231988  1
  Zn  Zn144  1  0.56576199  0.81470182  0.06837881  1
  Zn  Zn145  1  0.55181914  0.81212924  0.55131261  1
  O  O146  1  0.10511062  0.10957174  0.13480369  1
  O  O147  1  0.12028040  0.12174218  0.61071422  1
  O  O148  1  0.12706762  0.61221727  0.11491605  1
  O  O149  1  0.07982535  0.64509929  0.64436879  1
  O  O150  1  0.61455064  0.11754456  0.12169640  1
  O  O151  1  0.60072034  0.18490389  0.60618026  1
  O  O152  1  0.61691048  0.61068689  0.12059661  1
  O  O153  1  0.61867654  0.61164890  0.61711427  1
  O  O154  1  0.35912391  0.39604063  0.37334323  1
  O  O155  1  0.38291750  0.38792545  0.88252418  1
  O  O156  1  0.37481362  0.86733506  0.39044982  1
  O  O157  1  0.38874331  0.87320006  0.88609224  1
  O  O158  1  0.88977858  0.37140514  0.38047829  1
  O  O159  1  0.86248957  0.36392956  0.88368283  1
  O  O160  1  0.87054181  0.89407684  0.37123180  1
  O  O161  1  0.87134134  0.88980290  0.86526808  1
  O  O162  1  0.25600950  -0.01267598  0.36209998  1
  O  O163  1  0.25818974  -0.00069093  0.85229016  1
  O  O164  1  0.25543494  0.51090742  0.37702235  1
  O  O165  1  0.26856845  0.50915686  0.86683881  1
  O  O166  1  0.76341729  0.01683146  0.38254044  1
  O  O167  1  0.75144215  0.00380685  0.89204408  1
  O  O168  1  0.75487222  0.51611285  0.40195672  1
  O  O169  1  0.75111456  0.48878198  0.87376060  1
  O  O170  1  0.24396384  0.50176350  0.11283553  1
  O  O171  1  0.24491148  0.53927501  0.67880839  1
  O  O172  1  0.24830216  0.99279747  0.13612486  1
  O  O173  1  0.24172838  1.01325119  0.63104579  1
  O  O174  1  0.73571691  0.49087272  0.11974806  1
  O  O175  1  0.73376264  0.50088328  0.61007081  1
  O  O176  1  0.73695114  0.98823206  0.12302337  1
  O  O177  1  0.75471813  1.00742718  0.63125970  1
  O  O178  1  0.02412801  0.35337359  0.23377104  1
  O  O179  1  0.00221267  0.34649383  0.75912645  1
  O  O180  1  -0.00108923  0.86331851  0.25304863  1
  O  O181  1  0.02524246  0.88178936  0.75891920  1
  O  O182  1  0.48764119  0.36301699  0.24651952  1
  O  O183  1  0.50633043  0.36714659  0.76380728  1
  O  O184  1  0.49621453  0.86339266  0.24699482  1
  O  O185  1  0.51664588  0.87231284  0.75590716  1
  O  O186  1  0.48649902  0.13274984  0.24766733  1
  O  O187  1  0.50791306  0.14124354  0.75191944  1
  O  O188  1  0.49690936  0.63386297  0.23692780  1
  O  O189  1  0.51603649  0.63576189  0.74195084  1
  O  O190  1  0.99736057  0.13744832  0.24246173  1
  O  O191  1  1.00986213  0.12340986  0.73056815  1
  O  O192  1  1.01827062  0.63651572  0.22918047  1
  O  O193  1  1.04841209  0.63343949  0.71978788  1
  O  O194  1  0.37979776  0.27071296  -0.00521289  1
  O  O195  1  0.35972503  0.25856665  0.50648314  1
  O  O196  1  0.37406790  0.75901940  0.00519217  1
  O  O197  1  0.39416091  0.76034516  0.51332846  1
  O  O198  1  0.85747813  0.24121160  -0.00278228  1
  O  O199  1  0.88567627  0.26124153  0.51107297  1
  O  O200  1  0.85650323  0.75593098  0.01527137  1
  O  O201  1  0.86517113  0.74926147  0.48806256  1
  O  O202  1  0.13185360  0.24596862  0.49747044  1
  O  O203  1  0.12304919  0.22951158  0.99530390  1
  O  O204  1  0.12908439  0.78373573  0.45092607  1
  O  O205  1  0.13788403  0.75229659  0.98552668  1
  O  O206  1  0.65447761  0.27461240  0.49463121  1
  O  O207  1  0.62419808  0.24195924  0.99588520  1
  O  O208  1  0.61632734  0.73988338  0.48472748  1
  O  O209  1  0.62788667  0.73513608  1.01147652  1
  O  O210  1  0.48870008  0.24045091  0.13194123  1
  O  O211  1  0.47883009  0.26375502  0.64721865  1
  O  O212  1  0.49778859  0.74581189  0.13505801  1
  O  O213  1  0.50153431  0.74053057  0.63269207  1
  O  O214  1  1.00773808  0.23475715  0.13078292  1
  O  O215  1  0.99607856  0.23861010  0.63150803  1
  O  O216  1  0.99260230  0.74967823  0.13368041  1
  O  O217  1  0.98199327  0.75021346  0.63024172  1
  O  O218  1  0.01415304  0.24632069  0.36102862  1
  O  O219  1  0.01231593  0.22026275  0.86149008  1
  O  O220  1  -0.00317726  0.74472728  0.35429308  1
  O  O221  1  0.02009896  0.76066526  0.86957982  1
  O  O222  1  0.48904737  0.24900685  0.36016775  1
  O  O223  1  0.50843294  0.25714095  0.87132565  1
  O  O224  1  0.50490105  0.74343179  0.36272719  1
  O  O225  1  0.49900843  0.75891101  0.86301640  1
  O  O226  1  0.24033680  0.13001734  0.50162404  1
  O  O227  1  0.24552495  0.07659554  0.97365994  1
  O  O228  1  0.24700961  0.62065616  0.50325479  1
  O  O229  1  0.24423977  0.64177566  0.99872206  1
  O  O230  1  0.75875157  0.14366150  0.48775709  1
  O  O231  1  0.73612056  0.13634126  1.01753622  1
  O  O232  1  0.73745622  0.63934281  0.49223868  1
  O  O233  1  0.73657840  0.63663901  1.01234637  1
  O  O234  1  0.25856602  0.37699016  -0.01475597  1
  O  O235  1  0.23477158  0.37113919  0.50569261  1
  O  O236  1  0.26257822  0.87151276  0.00313072  1
  O  O237  1  0.26888156  0.87175926  0.51033421  1
  O  O238  1  0.74253660  0.35981172  0.01064939  1
  O  O239  1  0.77797329  0.36490097  0.49587559  1
  O  O240  1  0.73136699  0.85672049  0.02151686  1
  O  O241  1  0.74423262  0.85366429  0.48741206  1
  O  O242  1  0.12712730  0.48677207  0.22826393  1
  O  O243  1  0.10271995  0.46031116  0.80578071  1
  O  O244  1  0.13918867  0.99943638  0.25667884  1
  O  O245  1  0.13228198  0.99448734  0.74100310  1
  O  O246  1  0.61036950  0.49445352  0.23772835  1
  O  O247  1  0.62695174  0.48694401  0.73983401  1
  O  O248  1  0.62017653  1.01116469  0.23964076  1
  O  O249  1  0.63412633  0.98735959  0.75082021  1
  O  O250  1  0.37276439  0.00954792  0.25561334  1
  O  O251  1  0.36979509  -0.00746479  0.73508206  1
  O  O252  1  0.37621805  0.50644145  0.25604423  1
  O  O253  1  0.39031298  0.49971370  0.76282379  1
  O  O254  1  0.87856244  0.00482236  0.25988118  1
  O  O255  1  0.84676134  0.00002307  0.76541397  1
  O  O256  1  0.91187752  0.49846251  0.27712723  1
  O  O257  1  0.89942045  0.49522378  0.79941464  1
  O  O258  1  0.12890685  0.37154022  0.35368271  1
  O  O259  1  0.12935159  0.32892284  0.86814077  1
  O  O260  1  0.13512226  0.84066765  0.40298389  1
  O  O261  1  0.14140381  0.86829225  0.86730155  1
  O  O262  1  0.63046466  0.37181868  0.36856991  1
  O  O263  1  0.61874496  0.36889367  0.86696546  1
  O  O264  1  0.62581681  0.85898946  0.37516916  1
  O  O265  1  0.61766304  0.87180475  0.87938258  1
  O  O266  1  0.38967735  0.11181910  0.13453768  1
  O  O267  1  0.38210520  0.15047171  0.62535262  1
  O  O268  1  0.38549828  0.63882603  0.11179561  1
  O  O269  1  0.39194769  0.63769682  0.62344929  1
  O  O270  1  0.89129170  0.11609935  0.12994525  1
  O  O271  1  0.89438746  0.12961881  0.61462580  1
  O  O272  1  0.89113049  0.63145303  0.11748592  1
  O  O273  1  0.83261069  0.61278012  0.69721509  1
  O  O274  1  0.25908395  0.20161323  0.10553761  1
  O  O275  1  0.25283351  0.24563944  0.61261618  1
  O  O276  1  0.26074529  0.75707050  0.11432372  1
  O  O277  1  0.27359724  0.74519385  0.62765605  1
  O  O278  1  0.74456017  0.26212178  0.11640685  1
  O  O279  1  0.77245001  0.24042464  0.61322330  1
  O  O280  1  0.75111490  0.75593378  0.12936039  1
  O  O281  1  0.75753791  0.74542906  0.60625049  1
  O  O282  1  0.23996923  0.25807666  0.39220990  1
  O  O283  1  0.24450767  0.22304683  0.88048044  1
  O  O284  1  0.26233276  0.72866375  0.37960839  1
  O  O285  1  0.25780603  0.75205823  0.87987009  1
  O  O286  1  0.76679535  0.24382644  0.38591759  1
  O  O287  1  0.73529074  0.24954836  0.89108151  1
  O  O288  1  0.73275745  0.73807361  0.37656131  1
  O  O289  1  0.74622055  0.75339269  0.89909457  1
  O  O290  1  -0.00277430  0.11236053  0.01157751  1
  O  O291  1  0.01374414  0.12094491  0.50336364  1
  O  O292  1  0.02254462  0.64459151  0.01627951  1
  O  O293  1  -0.01638573  0.59799654  0.50069330  1
  O  O294  1  0.50553161  0.11935171  0.00931257  1
  O  O295  1  0.48932764  0.11061874  0.50027033  1
  O  O296  1  0.51091208  0.61947054  0.00828371  1
  O  O297  1  0.50627921  0.61413201  0.51014453  1
  O  O298  1  0.50401605  0.37872733  0.51731157  1
  O  O299  1  0.50687056  0.38506922  0.98915233  1
  O  O300  1  0.49061847  0.89445197  0.50339988  1
  O  O301  1  0.49980087  0.87907984  0.99544535  1
  O  O302  1  0.99351287  0.38018524  0.50800874  1
  O  O303  1  1.01539395  0.37839640  0.98998104  1
  O  O304  1  1.01240450  0.89949664  0.48732638  1
  O  O305  1  0.99561143  0.87973018  1.00335795  1
  O  O306  1  0.47837753  0.49094772  0.39762456  1
  O  O307  1  0.50032515  0.49493087  0.88244487  1
  O  O308  1  0.49919922  1.00378783  0.38902913  1
  O  O309  1  0.50836284  0.99102652  0.88742512  1
  O  O310  1  0.96190981  0.50834687  0.32853669  1
  O  O311  1  0.94152147  0.62903922  0.85013403  1
  O  O312  1  0.99196873  1.00824221  0.37974733  1
  O  O313  1  0.99023963  1.00272371  0.88764599  1
  O  O314  1  -0.00075136  0.00005302  0.11304594  1
  O  O315  1  0.01531553  0.01315218  0.60655232  1
  O  O316  1  0.00417500  0.51592727  0.11749187  1
  O  O317  1  -0.00281818  0.49966898  0.63468340  1
  O  O318  1  0.51163861  0.00398187  0.12036100  1
  O  O319  1  0.50394018  0.00929729  0.61110958  1
  O  O320  1  0.50459485  0.50425866  0.11686274  1
  O  O321  1  0.50910950  0.50440159  0.62392553  1
  O  O322  1  0.23676985  0.36018187  0.23683481  1
  O  O323  1  0.23737867  0.36498204  0.75880612  1
  O  O324  1  0.26328661  0.88506289  0.23985557  1
  O  O325  1  0.24401539  0.89122511  0.74478878  1
  O  O326  1  0.75024003  0.36942374  0.23158712  1
  O  O327  1  0.73767414  0.35942983  0.75248870  1
  O  O328  1  0.74253911  0.87004394  0.24231661  1
  O  O329  1  0.73379537  0.88112860  0.74197177  1
  O  O330  1  0.26046918  0.10727139  0.24706982  1
  O  O331  1  0.25487715  0.10887213  0.75727858  1
  O  O332  1  0.22654218  0.62119749  0.26768773  1
  O  O333  1  0.22422110  0.60466222  0.72791593  1
  O  O334  1  0.75664786  0.14294801  0.26437737  1
  O  O335  1  0.73125511  0.11398434  0.74812821  1
  O  O336  1  0.73847777  0.61469441  0.26383870  1
  O  O337  1  0.77025722  0.62279564  0.73643583  1
  O  O338  1  0.36992563  0.12626506  0.36320638  1
  O  O339  1  0.36751153  0.12305111  0.88165542  1
  O  O340  1  0.36288996  0.60426649  0.38982242  1
  O  O341  1  0.37973796  0.61417297  0.87956634  1
  O  O342  1  0.87194522  0.11663349  0.37030610  1
  O  O343  1  0.86886108  0.10915688  0.87597555  1
  O  O344  1  0.85456486  0.63484138  0.36939838  1
  O  O345  1  0.88268593  0.65765697  0.88320928  1
  O  O346  1  0.12929484  0.38779903  0.12252378  1
  O  O347  1  0.11981886  0.37820333  0.65383012  1
  O  O348  1  0.14494986  0.87248213  0.11688983  1
  O  O349  1  0.11989591  0.88749169  0.63346368  1
  O  O350  1  0.62502465  0.38884797  0.11916235  1
  O  O351  1  0.62282137  0.38130952  0.63964914  1
  O  O352  1  0.62749311  0.88889976  0.13218777  1
  O  O353  1  0.62108767  0.87619462  0.62499786  1
  O  O354  1  0.12641807  0.25050794  0.25670804  1
  O  O355  1  0.11529123  0.24834135  0.74352091  1
  O  O356  1  0.11800598  0.75836629  0.23877047  1
  O  O357  1  0.13977091  0.76721490  0.75783504  1
  O  O358  1  0.60153012  0.24612708  0.24519151  1
  O  O359  1  0.61715739  0.26125056  0.76001635  1
  O  O360  1  0.61037570  0.74553176  0.26022234  1
  O  O361  1  0.62050151  0.76525979  0.74150613  1
  O  O362  1  0.37229041  0.23582119  0.24514734  1
  O  O363  1  0.38581394  0.25049485  0.76722061  1
  O  O364  1  0.38614846  0.75316620  0.23743375  1
  O  O365  1  0.39420855  0.76139604  0.73683439  1
  O  O366  1  0.89377601  0.25835767  0.25193718  1
  O  O367  1  0.88902652  0.23787457  0.74004629  1
  O  O368  1  0.87694459  0.75129908  0.23827133  1
  O  O369  1  0.87650532  0.77178077  0.75104523  1
  O  O370  1  0.38593883  0.49114898  0.52952746  1
  O  O371  1  0.38660302  0.49165159  0.99208545  1
  O  O372  1  0.37255585  0.98746686  0.49789642  1
  O  O373  1  0.39280592  0.98859809  1.01181405  1
  O  O374  1  0.88908217  0.47860181  0.50838928  1
  O  O375  1  0.87783589  0.50492095  0.98002086  1
  O  O376  1  0.89047101  1.00858046  0.49167421  1
  O  O377  1  0.88116994  0.99699397  0.99109155  1
  O  O378  1  0.10583053  -0.00987969  -0.00208763  1
  O  O379  1  0.12734004  0.01341894  0.49984037  1
  O  O380  1  0.12713959  0.51177782  0.00098468  1
  O  O381  1  0.10004025  0.48680505  0.50552170  1
  O  O382  1  0.61573009  0.00907952  0.01148588  1
  O  O383  1  0.61829663  0.00055482  0.49550013  1
  O  O384  1  0.61636313  0.51014384  0.00654529  1
  O  O385  1  0.61257297  0.49870265  0.51164900  1
  O  O386  1  0.36738418  0.37674189  0.10643769  1
  O  O387  1  0.36296580  0.35660935  0.64145408  1
  O  O388  1  0.37093933  0.86588587  0.11432307  1
  O  O389  1  0.38472422  0.86204077  0.61751193  1
  O  O390  1  0.86013204  0.38934275  0.11858168  1
  O  O391  1  0.88197830  0.35938749  0.63862131  1
  O  O392  1  0.85478232  0.86980695  0.13008921  1
  O  O393  1  0.90516408  0.88427079  0.63084442  1
  O  O394  1  0.12603300  0.13630183  0.38724048  1
  O  O395  1  0.13759248  0.12446809  0.86662858  1
  O  O396  1  0.13710399  0.61721508  0.39208088  1
  O  O397  1  0.13873403  0.64370829  0.87596286  1
  O  O398  1  0.64454114  0.12696042  0.37266502  1
  O  O399  1  0.61642946  0.13298478  0.88971220  1
  O  O400  1  0.62814673  0.62426834  0.38596977  1
  O  O401  1  0.62402352  0.62142800  0.89298517  1
