# generated using pymatgen
data_V73Zn73O256
_symmetry_space_group_name_H-M   'P 1'
_cell_length_a   16.98759158
_cell_length_b   16.94030028
_cell_length_c   16.92012584
_cell_angle_alpha   90.39623833
_cell_angle_beta   89.88422694
_cell_angle_gamma   90.26276173
_symmetry_Int_Tables_number   1
_chemical_formula_structural   V73Zn73O256
_chemical_formula_sum   'V73 Zn73 O256'
_cell_volume   4869.01029112
_cell_formula_units_Z   1
loop_
 _symmetry_equiv_pos_site_id
 _symmetry_equiv_pos_as_xyz
  1  'x, y, z'
loop_
 _atom_site_type_symbol
 _atom_site_label
 _atom_site_symmetry_multiplicity
 _atom_site_fract_x
 _atom_site_fract_y
 _atom_site_fract_z
 _atom_site_occupancy
  V  V0  1  0.25964389  0.49623076  0.25641485  1
  V  V1  1  0.37300676  0.37560117  0.48882324  1
  V  V2  1  0.76120719  0.74536175  -0.00200457  1
  V  V3  1  -0.00383928  0.87844020  0.87800062  1
  V  V4  1  -0.06552550  -0.05657399  0.05232981  1
  V  V5  1  0.87577075  0.63128660  0.22183698  1
  V  V6  1  0.36117841  0.61925677  0.74446790  1
  V  V7  1  0.24501739  0.37025443  0.12590792  1
  V  V8  1  0.38499279  0.75432443  0.12070663  1
  V  V9  1  0.24738989  0.11983205  0.88515204  1
  V  V10  1  -0.00799268  0.12851668  0.11405555  1
  V  V11  1  0.06831243  0.92396094  0.68987682  1
  V  V12  1  0.85050712  0.86906682  0.48120869  1
  V  V13  1  0.25601511  0.63789425  0.37716620  1
  V  V14  1  0.88302583  0.22863976  0.61817545  1
  V  V15  1  0.74480442  0.38163486  0.11893708  1
  V  V16  1  0.75188644  0.84877286  0.62524009  1
  V  V17  1  0.24641196  -0.01181987  0.74489210  1
  V  V18  1  0.61294331  0.37298819  0.25751826  1
  V  V19  1  0.85833981  0.50175433  0.86756604  1
  V  V20  1  0.57083860  -0.05948734  0.07053716  1
  V  V21  1  0.74871412  -0.00757665  0.24805239  1
  V  V22  1  0.61403649  0.51598651  0.11760132  1
  V  V23  1  0.25166036  0.61643335  0.88766167  1
  V  V24  1  0.45564908  0.18841592  0.18438762  1
  V  V25  1  0.62090915  0.25566595  0.87073494  1
  V  V26  1  0.35900112  0.75519619  0.61132881  1
  V  V27  1  0.86767940  0.62539669  0.75093499  1
  V  V28  1  0.63037493  0.71857374  0.87345257  1
  V  V29  1  0.38786723  0.63094765  0.24946796  1
  V  V30  1  0.00272235  0.62106847  0.62302366  1
  V  V31  1  0.76125309  0.37188438  0.60914183  1
  V  V32  1  0.60616553  0.13377488  0.48999100  1
  V  V33  1  0.11831199  0.11673554  0.00741637  1
  V  V34  1  0.49690304  0.62720849  0.62866728  1
  V  V35  1  0.49571305  0.51680077  -0.00438507  1
  V  V36  1  0.62289818  0.63014040  0.49849770  1
  V  V37  1  0.00576019  0.50781141  -0.01407111  1
  V  V38  1  0.74721871  0.13743257  0.37265429  1
  V  V39  1  0.74707557  0.25112690  -0.00623453  1
  V  V40  1  0.25381829  0.37637954  0.63465717  1
  V  V41  1  0.12892698  0.64272350  0.49517802  1
  V  V42  1  0.62897567  0.87833987  0.75768280  1
  V  V43  1  0.87344631  0.12681997  0.24658115  1
  V  V44  1  0.36746931  0.12211154  0.76390550  1
  V  V45  1  0.11583160  0.25420279  0.87809016  1
  V  V46  1  0.75285085  0.50633312  0.24916332  1
  V  V47  1  0.49495063  0.10270018  0.63683549  1
  V  V48  1  0.87614182  0.00181105  0.86357147  1
  V  V49  1  0.61205883  0.87489661  0.24999343  1
  V  V50  1  0.38159772  0.36846316  0.00293122  1
  V  V51  1  0.03232493  0.86588976  0.36822837  1
  V  V52  1  0.49552426  0.25833946  0.75295171  1
  V  V53  1  0.62546525  0.49468816  0.62409541  1
  V  V54  1  0.63045011  0.37523507  0.74487528  1
  V  V55  1  -0.00004347  0.75096317  0.22741512  1
  V  V56  1  0.12962976  0.49566534  0.61194558  1
  V  V57  1  0.24484832  0.87038947  0.14868327  1
  V  V58  1  0.62100802  0.74745649  0.37197318  1
  V  V59  1  0.76257607  0.62987786  0.38406934  1
  V  V60  1  0.50378040  0.88443539  0.39946614  1
  V  V61  1  0.13581714  0.76070409  0.87881451  1
  V  V62  1  0.11976830  0.38557935  0.76043907  1
  V  V63  1  0.37116976  0.25100810  0.62621492  1
  V  V64  1  0.00422247  0.74423697  0.74719882  1
  V  V65  1  0.49516881  0.49343316  0.48691693  1
  V  V66  1  0.61526297  0.11981258  0.00561247  1
  V  V67  1  0.87407467  0.25317145  0.12109436  1
  V  V68  1  0.11763982  0.50531444  0.13673749  1
  V  V69  1  0.75417608  0.12060141  0.85911276  1
  V  V70  1  0.88065681  0.37777043  -0.01176687  1
  V  V71  1  0.35905474  0.04537919  0.37805230  1
  V  V72  1  0.11913436  0.25311013  0.38090608  1
  Zn  Zn73  1  0.24680971  0.25262363  0.00390431  1
  Zn  Zn74  1  0.12299249  0.63200496  0.00635819  1
  Zn  Zn75  1  0.37814414  0.48518188  0.86578448  1
  Zn  Zn76  1  -0.00460767  0.25262836  0.74777010  1
  Zn  Zn77  1  0.48112989  0.77408072  0.78176800  1
  Zn  Zn78  1  0.65432239  0.00467593  0.62807596  1
  Zn  Zn79  1  0.99873482  -0.01025859  0.51722507  1
  Zn  Zn80  1  0.34167277  0.89016242  0.49563586  1
  Zn  Zn81  1  0.75682120  0.87671875  0.11403019  1
  Zn  Zn82  1  0.14618679  0.11651949  0.22548505  1
  Zn  Zn83  1  0.18892477  0.19391706  0.69819210  1
  Zn  Zn84  1  0.19410546  0.68811377  0.18577030  1
  Zn  Zn85  1  0.18390297  0.68955222  0.68832234  1
  Zn  Zn86  1  0.67823578  0.18674973  0.19070672  1
  Zn  Zn87  1  0.68884912  0.19297022  0.67185388  1
  Zn  Zn88  1  0.69230127  0.69582666  0.18339827  1
  Zn  Zn89  1  0.67916434  0.68430096  0.69235719  1
  Zn  Zn90  1  0.30534795  0.19931631  0.29046911  1
  Zn  Zn91  1  0.30449293  0.31012648  0.81840059  1
  Zn  Zn92  1  0.32270874  0.81624428  0.31708984  1
  Zn  Zn93  1  0.31399464  0.80597032  0.80749593  1
  Zn  Zn94  1  0.79962904  0.31147209  0.30274437  1
  Zn  Zn95  1  0.81276258  0.31137188  0.80004664  1
  Zn  Zn96  1  0.80932502  0.80383544  0.30249852  1
  Zn  Zn97  1  0.81153257  0.80814398  0.81486280  1
  Zn  Zn98  1  0.19340807  0.43054551  0.43678170  1
  Zn  Zn99  1  0.19219940  0.43965337  0.94077191  1
  Zn  Zn100  1  0.19918103  0.95086238  0.33693379  1
  Zn  Zn101  1  0.19133152  0.94057155  0.95079656  1
  Zn  Zn102  1  0.68997785  0.44365170  0.43605461  1
  Zn  Zn103  1  0.68052907  0.44302798  0.93488628  1
  Zn  Zn104  1  0.68332698  0.95042089  0.43814895  1
  Zn  Zn105  1  0.69147774  0.93278595  0.92965991  1
  Zn  Zn106  1  0.29037795  0.10555566  0.10955073  1
  Zn  Zn107  1  0.32235923  0.05187434  0.57064422  1
  Zn  Zn108  1  0.31654008  0.55818196  0.07236317  1
  Zn  Zn109  1  0.30943376  0.55798384  0.55796459  1
  Zn  Zn110  1  0.79600147  0.06407274  0.06107141  1
  Zn  Zn111  1  0.81084400  0.05289681  0.54826449  1
  Zn  Zn112  1  0.80868845  0.56323173  0.05143412  1
  Zn  Zn113  1  0.80699877  0.56877222  0.57207265  1
  Zn  Zn114  1  0.40886418  0.36736239  0.21576372  1
  Zn  Zn115  1  0.44176655  0.44111269  0.68426242  1
  Zn  Zn116  1  0.42422352  0.94402137  0.20014332  1
  Zn  Zn117  1  0.42510710  0.92004672  0.71351532  1
  Zn  Zn118  1  0.93116427  0.44689685  0.17710287  1
  Zn  Zn119  1  0.94184350  0.44074766  0.68786999  1
  Zn  Zn120  1  0.96603623  0.96468766  0.23065133  1
  Zn  Zn121  1  0.88033430  0.96731396  0.65923408  1
  Zn  Zn122  1  0.05182412  0.05735012  0.37103930  1
  Zn  Zn123  1  0.06876339  0.06024148  0.82165173  1
  Zn  Zn124  1  0.08119324  0.60650209  0.29082841  1
  Zn  Zn125  1  0.06735349  0.56451391  0.81286506  1
  Zn  Zn126  1  0.56178518  0.05872165  0.30967413  1
  Zn  Zn127  1  0.58476367  0.08142030  0.78826930  1
  Zn  Zn128  1  0.56681220  0.55595270  0.30933304  1
  Zn  Zn129  1  0.55461325  0.55871450  0.80806161  1
  Zn  Zn130  1  0.44960617  0.20887941  0.43553778  1
  Zn  Zn131  1  0.43676199  0.19126571  0.94298635  1
  Zn  Zn132  1  0.43934988  0.68705983  0.43623067  1
  Zn  Zn133  1  0.43108477  0.69171497  0.93780501  1
  Zn  Zn134  1  0.93175073  0.17767424  0.44635297  1
  Zn  Zn135  1  0.93491396  0.18804200  0.93303308  1
  Zn  Zn136  1  0.94896296  0.70228013  0.44349159  1
  Zn  Zn137  1  0.93666141  0.68920691  0.93501830  1
  Zn  Zn138  1  0.06255183  0.31778618  0.06363241  1
  Zn  Zn139  1  0.05606168  0.31451338  0.56370293  1
  Zn  Zn140  1  0.07084743  0.81308692  0.06380484  1
  Zn  Zn141  1  0.15236188  0.85707198  0.51161910  1
  Zn  Zn142  1  0.56421864  0.32021456  0.05953297  1
  Zn  Zn143  1  0.55929188  0.30350428  0.55525702  1
  Zn  Zn144  1  0.55677338  0.76141787  0.05000230  1
  Zn  Zn145  1  0.55005681  0.82787126  0.59585433  1
  O  O146  1  0.10040451  0.13296180  0.12078253  1
  O  O147  1  0.09141145  0.12800055  0.66900494  1
  O  O148  1  0.13493327  0.60894153  0.11814681  1
  O  O149  1  0.12701907  0.61340432  0.61405855  1
  O  O150  1  0.62885559  0.13162764  0.10384643  1
  O  O151  1  0.59883333  0.10664800  0.66627595  1
  O  O152  1  0.62928581  0.61447401  0.12994505  1
  O  O153  1  0.61652856  0.61537124  0.61908265  1
  O  O154  1  0.37167141  0.36537224  0.39330320  1
  O  O155  1  0.36202256  0.37546917  0.89459101  1
  O  O156  1  0.40006892  0.86396508  0.38995322  1
  O  O157  1  0.40905899  0.86335891  0.81333318  1
  O  O158  1  0.90170744  0.37274528  0.33071166  1
  O  O159  1  0.86609547  0.38684260  0.87811289  1
  O  O160  1  0.85271718  0.87402034  0.38089368  1
  O  O161  1  0.88836619  0.88350451  0.86668397  1
  O  O162  1  0.26087381  0.04374043  0.37030277  1
  O  O163  1  0.23742748  0.01478851  0.87168158  1
  O  O164  1  0.24193802  0.49812175  0.35902437  1
  O  O165  1  0.25644620  0.51393920  0.87716851  1
  O  O166  1  0.74633924  0.01059626  0.35439532  1
  O  O167  1  0.75638970  0.01452643  0.87538595  1
  O  O168  1  0.74529659  0.51805972  0.35957990  1
  O  O169  1  0.76008046  0.50243917  0.87639982  1
  O  O170  1  0.23720554  0.49767041  0.13567533  1
  O  O171  1  0.23730698  0.49285137  0.62574870  1
  O  O172  1  0.26384119  0.97638166  0.10682761  1
  O  O173  1  0.25548604  0.99559886  0.64479411  1
  O  O174  1  0.74311499  0.49634122  0.12274943  1
  O  O175  1  0.73132964  0.49298828  0.61868597  1
  O  O176  1  0.74403365  0.99849318  0.13801266  1
  O  O177  1  0.76749521  0.98961007  0.63001501  1
  O  O178  1  -0.04540517  0.37764800  0.27555061  1
  O  O179  1  0.01762651  0.37721604  0.74716499  1
  O  O180  1  -0.00010817  0.85340888  0.24122459  1
  O  O181  1  0.01255990  0.86416434  0.75778910  1
  O  O182  1  0.51378613  0.38689720  0.24897014  1
  O  O183  1  0.50735368  0.36343210  0.74390413  1
  O  O184  1  0.51310768  0.87845612  0.26510592  1
  O  O185  1  0.52967673  0.85633893  0.71344781  1
  O  O186  1  0.51743084  0.13936773  0.24919740  1
  O  O187  1  0.48237420  0.13276845  0.75508692  1
  O  O188  1  0.48527186  0.61556402  0.25701733  1
  O  O189  1  0.48955421  0.62324002  0.73709236  1
  O  O190  1  0.97629313  0.12142365  0.22970015  1
  O  O191  1  1.03735101  0.12982828  0.72702604  1
  O  O192  1  0.97440502  0.62670613  0.25501548  1
  O  O193  1  0.99756852  0.62649678  0.74509173  1
  O  O194  1  0.37100051  0.26407730  0.00284252  1
  O  O195  1  0.38478361  0.26576146  0.51729874  1
  O  O196  1  0.37622406  0.74890910  0.01975758  1
  O  O197  1  0.36829501  0.73736629  0.51084891  1
  O  O198  1  0.86446792  0.25966113  -0.00197661  1
  O  O199  1  0.88436648  0.25053921  0.51706570  1
  O  O200  1  0.86163693  0.75710833  -0.01716337  1
  O  O201  1  0.89268402  0.78058323  0.50374814  1
  O  O202  1  0.13450097  0.26751088  0.48631031  1
  O  O203  1  0.12168573  0.24822588  0.99236891  1
  O  O204  1  0.13869956  0.73900979  0.50555459  1
  O  O205  1  0.11981488  0.74491584  0.98316935  1
  O  O206  1  0.66287708  0.18536095  0.55291460  1
  O  O207  1  0.63086137  0.24805300  0.98834039  1
  O  O208  1  0.62251023  0.73107774  0.49454847  1
  O  O209  1  0.63536263  0.73409611  0.98062627  1
  O  O210  1  0.50634386  0.24978128  0.12289008  1
  O  O211  1  0.48965844  0.23908959  0.63927173  1
  O  O212  1  0.48607657  0.74835506  0.13298772  1
  O  O213  1  0.48769095  0.73059380  0.61339838  1
  O  O214  1  0.98152371  0.24751923  0.11462562  1
  O  O215  1  0.98999706  0.25401046  0.62803029  1
  O  O216  1  1.00055797  0.74729747  0.12705636  1
  O  O217  1  1.01111516  0.73169056  0.64270855  1
  O  O218  1  0.01604748  0.25046580  0.38983417  1
  O  O219  1  0.01077983  0.24216267  0.86734158  1
  O  O220  1  -0.00513789  0.76627414  0.36185475  1
  O  O221  1  0.00901596  0.76105877  0.86977361  1
  O  O222  1  0.55387922  0.23215403  0.46190698  1
  O  O223  1  0.51137614  0.24516967  0.86555685  1
  O  O224  1  0.51659306  0.75694010  0.38137921  1
  O  O225  1  0.52010953  0.73003728  0.87865257  1
  O  O226  1  0.20965893  0.11044230  0.54531991  1
  O  O227  1  0.23768007  0.13117591  1.00511198  1
  O  O228  1  0.24092903  0.61482281  0.48600461  1
  O  O229  1  0.25629715  0.62324330  0.98891878  1
  O  O230  1  0.78134661  0.11798573  0.46462837  1
  O  O231  1  0.73883461  0.13675333  0.98870555  1
  O  O232  1  0.73978702  0.61196558  0.48890475  1
  O  O233  1  0.75468185  0.64234639  0.99798995  1
  O  O234  1  0.25674393  0.37884997  0.01184289  1
  O  O235  1  0.26683483  0.38244785  0.51536552  1
  O  O236  1  0.26689638  0.91941393  0.04133773  1
  O  O237  1  0.23716560  0.89889660  0.45391683  1
  O  O238  1  0.75420351  0.37141446  0.00102177  1
  O  O239  1  0.74668811  0.37828975  0.50919483  1
  O  O240  1  0.73845844  0.86269794  0.00044155  1
  O  O241  1  0.74774346  0.87312473  0.50762412  1
  O  O242  1  0.12397218  0.50849121  0.24013137  1
  O  O243  1  0.12763413  0.48924998  0.74667387  1
  O  O244  1  0.12127134  1.03003830  0.29050564  1
  O  O245  1  0.12949807  0.99042826  0.74751315  1
  O  O246  1  0.63487505  0.49608082  0.23400181  1
  O  O247  1  0.61064207  0.48479554  0.73601757  1
  O  O248  1  0.63398653  0.98358908  0.25407852  1
  O  O249  1  0.62441572  0.98188602  0.75186660  1
  O  O250  1  0.39187478  0.00475146  0.29002108  1
  O  O251  1  0.35766170  0.01552848  0.75869868  1
  O  O252  1  0.35947737  0.51423432  0.24549952  1
  O  O253  1  0.38119867  0.51408216  0.75216699  1
  O  O254  1  0.85856402  0.01781902  0.24110364  1
  O  O255  1  0.88039404  0.00887345  0.76557110  1
  O  O256  1  0.86081722  0.51606216  0.23757959  1
  O  O257  1  0.87940795  0.50653124  0.76248846  1
  O  O258  1  0.12739165  0.35792271  0.36968299  1
  O  O259  1  0.13172397  0.37141864  0.86735457  1
  O  O260  1  0.12631799  0.85979856  0.34031752  1
  O  O261  1  0.12303863  0.86599427  0.88705970  1
  O  O262  1  0.63376643  0.38781653  0.35527965  1
  O  O263  1  0.63391032  0.36329805  0.86290574  1
  O  O264  1  0.62314499  0.86787265  0.37091138  1
  O  O265  1  0.62047593  0.87364443  0.85871758  1
  O  O266  1  0.40096832  0.12417700  0.12699010  1
  O  O267  1  0.37781743  0.13216968  0.63908340  1
  O  O268  1  0.36479981  0.63784598  0.14219453  1
  O  O269  1  0.37572954  0.62155607  0.63106058  1
  O  O270  1  0.87247879  0.13597635  0.11943208  1
  O  O271  1  0.87532258  0.12869273  0.61750182  1
  O  O272  1  0.87754123  0.62456594  0.12366398  1
  O  O273  1  0.88996101  0.60972290  0.63784893  1
  O  O274  1  0.23632472  0.27146541  0.12600838  1
  O  O275  1  0.26198983  0.25672608  0.63250083  1
  O  O276  1  0.26118224  0.76401536  0.13608808  1
  O  O277  1  0.25966005  0.74719662  0.62701167  1
  O  O278  1  0.75219103  0.26106464  0.10833477  1
  O  O279  1  0.77078687  0.26623071  0.62712498  1
  O  O280  1  0.74806759  0.75809538  0.10807260  1
  O  O281  1  0.73775410  0.74970018  0.61743297  1
  O  O282  1  0.22374408  0.25022342  0.35917582  1
  O  O283  1  0.23436116  0.23867694  0.87952410  1
  O  O284  1  0.25191939  0.73581016  0.37177922  1
  O  O285  1  0.23928628  0.74681135  0.87123366  1
  O  O286  1  0.74836595  0.23844460  0.36843764  1
  O  O287  1  0.74468001  0.24362820  0.87783205  1
  O  O288  1  0.73805674  0.73382653  0.37085039  1
  O  O289  1  0.73740219  0.75184569  0.88138921  1
  O  O290  1  0.00146356  0.12846691  0.00577190  1
  O  O291  1  0.00025950  0.08951137  0.46373268  1
  O  O292  1  -0.00095036  0.61109662  -0.00565385  1
  O  O293  1  0.01773061  0.63404363  0.50895597  1
  O  O294  1  0.51751659  0.12748334  -0.01120965  1
  O  O295  1  0.50578530  0.11066782  0.53321106  1
  O  O296  1  0.49176532  0.61528721  0.00461771  1
  O  O297  1  0.50381322  0.61093235  0.50398773  1
  O  O298  1  0.48917338  0.38741036  0.50789759  1
  O  O299  1  0.48464910  0.38236837  1.00488442  1
  O  O300  1  0.51620866  0.87369868  0.49793949  1
  O  O301  1  0.52642607  0.87327193  1.01341758  1
  O  O302  1  1.01914835  0.36883915  0.47604172  1
  O  O303  1  0.98503699  0.38636225  1.00244520  1
  O  O304  1  1.04605298  0.89212968  0.47173904  1
  O  O305  1  1.00000576  0.88041811  0.99627974  1
  O  O306  1  0.50349110  0.49853352  0.38862943  1
  O  O307  1  0.49607226  0.50390870  0.88985543  1
  O  O308  1  0.51690565  0.98482946  0.38656710  1
  O  O309  1  0.43972805  0.97030179  0.91034144  1
  O  O310  1  0.92845929  0.50782850  0.43917160  1
  O  O311  1  0.99829390  0.49833652  0.88398149  1
  O  O312  1  0.98902476  0.96168208  0.34443405  1
  O  O313  1  0.99503762  0.98911581  0.87298142  1
  O  O314  1  -0.01547694  0.00791902  0.12016796  1
  O  O315  1  -0.00020319  -0.02297571  0.63606783  1
  O  O316  1  0.01262410  0.49595096  0.11593361  1
  O  O317  1  0.01894256  0.50903067  0.62916182  1
  O  O318  1  0.50203748  -0.01275506  0.12459748  1
  O  O319  1  0.47503417  0.00606976  0.64786611  1
  O  O320  1  0.51388867  0.50387158  0.11513046  1
  O  O321  1  0.50761828  0.50772144  0.61506575  1
  O  O322  1  0.26114224  0.39069020  0.23518104  1
  O  O323  1  0.23980398  0.37330316  0.74183296  1
  O  O324  1  0.25829888  0.88870624  0.25227619  1
  O  O325  1  0.25037252  0.89109525  0.76226486  1
  O  O326  1  0.74981445  0.38991971  0.23494551  1
  O  O327  1  0.73456490  0.37207903  0.73502737  1
  O  O328  1  0.74726602  0.88443924  0.24453421  1
  O  O329  1  0.73784283  0.86039680  0.73969151  1
  O  O330  1  0.25516991  0.13111402  0.21455349  1
  O  O331  1  0.25076092  0.12044172  0.76393621  1
  O  O332  1  0.24799654  0.61616816  0.26511685  1
  O  O333  1  0.25900124  0.62280784  0.75207397  1
  O  O334  1  0.74929659  0.11892989  0.25263574  1
  O  O335  1  0.74257739  0.13290958  0.76116562  1
  O  O336  1  0.76315586  0.62614616  0.25552490  1
  O  O337  1  0.77016239  0.62778654  0.73807551  1
  O  O338  1  0.37627556  0.15086816  0.37622341  1
  O  O339  1  0.35953744  0.13719269  0.87434296  1
  O  O340  1  0.36292579  0.62499750  0.36743599  1
  O  O341  1  0.36103446  0.63532395  0.86062411  1
  O  O342  1  0.87149475  0.14271781  0.34782987  1
  O  O343  1  0.85969332  0.12107281  0.87853469  1
  O  O344  1  0.86136364  0.63739060  0.38979942  1
  O  O345  1  0.87967456  0.61116445  0.86301371  1
  O  O346  1  0.13390385  0.39228766  0.11976669  1
  O  O347  1  0.13146584  0.38295073  0.63165322  1
  O  O348  1  0.14537950  0.86682128  0.13228055  1
  O  O349  1  0.12442956  0.87312686  0.62686292  1
  O  O350  1  0.63479978  0.38789102  0.12535738  1
  O  O351  1  0.62891690  0.37407832  0.62400962  1
  O  O352  1  0.62073584  0.87449154  0.14054817  1
  O  O353  1  0.64549955  0.88469293  0.62637060  1
  O  O354  1  0.10364002  0.23272524  0.27897552  1
  O  O355  1  0.12401413  0.26679586  0.76065550  1
  O  O356  1  0.09859283  0.71593321  0.24587502  1
  O  O357  1  0.11691611  0.74064494  0.76853316  1
  O  O358  1  0.63344923  0.27543612  0.24115296  1
  O  O359  1  0.61606734  0.25545128  0.75219641  1
  O  O360  1  0.63391508  0.76626774  0.25837371  1
  O  O361  1  0.62593217  0.75167054  0.76619501  1
  O  O362  1  0.39110375  0.25474656  0.23947467  1
  O  O363  1  0.37794954  0.24506266  0.74887711  1
  O  O364  1  0.37717188  0.73447615  0.25346950  1
  O  O365  1  0.37686992  0.73174416  0.73087184  1
  O  O366  1  0.85610680  0.23994934  0.22696676  1
  O  O367  1  0.88108581  0.25486447  0.73265318  1
  O  O368  1  0.87985361  0.73798755  0.24101535  1
  O  O369  1  0.88945361  0.73175502  0.76273386  1
  O  O370  1  0.38632740  0.49004694  0.50289500  1
  O  O371  1  0.38655579  0.49525339  1.00256844  1
  O  O372  1  0.37261676  1.00921782  0.47926151  1
  O  O373  1  0.39661646  0.97728379  0.96795191  1
  O  O374  1  0.87940464  0.48591971  0.48942903  1
  O  O375  1  0.88207290  0.49681980  0.98549002  1
  O  O376  1  0.88682378  0.96401259  0.51484129  1
  O  O377  1  0.87246712  1.00024857  0.99217141  1
  O  O378  1  0.12051810  0.01742372  0.00134883  1
  O  O379  1  0.15844525  0.06179927  0.52170871  1
  O  O380  1  0.11166328  0.50084844  0.00011774  1
  O  O381  1  0.12755749  0.49485759  0.51074050  1
  O  O382  1  0.62460940  0.00839466  0.00089901  1
  O  O383  1  0.63861758  0.03131915  0.51061633  1
  O  O384  1  0.61124776  0.49782278  0.00668295  1
  O  O385  1  0.61226107  0.50425791  0.50485283  1
  O  O386  1  0.35842211  0.38294811  0.11304270  1
  O  O387  1  0.36826990  0.36807778  0.63212199  1
  O  O388  1  0.37046640  0.85903802  0.14514658  1
  O  O389  1  0.37687343  0.85945670  0.61145174  1
  O  O390  1  0.86389374  0.37320847  0.11111645  1
  O  O391  1  0.85829087  0.39752972  0.62311875  1
  O  O392  1  0.87974893  0.88870019  0.11262284  1
  O  O393  1  0.85334272  0.85724146  0.63317561  1
  O  O394  1  0.12952170  0.15269782  0.40575140  1
  O  O395  1  0.12832303  0.13342115  0.88814641  1
  O  O396  1  0.13301950  0.62190868  0.39082808  1
  O  O397  1  0.14148153  0.62986962  0.87765121  1
  O  O398  1  0.63820856  0.12258080  0.38469223  1
  O  O399  1  0.63653333  0.13401412  0.87863814  1
  O  O400  1  0.62839522  0.62932373  0.37928196  1
  O  O401  1  0.63824442  0.62004070  0.85745955  1
