# generated using pymatgen
data_V73Zn73O256
_symmetry_space_group_name_H-M   'P 1'
_cell_length_a   16.94272532
_cell_length_b   16.95170127
_cell_length_c   16.96604365
_cell_angle_alpha   90.09116594
_cell_angle_beta   90.25132151
_cell_angle_gamma   89.84263681
_symmetry_Int_Tables_number   1
_chemical_formula_structural   V73Zn73O256
_chemical_formula_sum   'V73 Zn73 O256'
_cell_volume   4872.71244409
_cell_formula_units_Z   1
loop_
 _symmetry_equiv_pos_site_id
 _symmetry_equiv_pos_as_xyz
  1  'x, y, z'
loop_
 _atom_site_type_symbol
 _atom_site_label
 _atom_site_symmetry_multiplicity
 _atom_site_fract_x
 _atom_site_fract_y
 _atom_site_fract_z
 _atom_site_occupancy
  V  V0  1  0.13769702  0.62500166  -0.00411159  1
  V  V1  1  0.25440300  0.13957411  0.38657838  1
  V  V2  1  0.38510762  0.36520614  0.00129041  1
  V  V3  1  0.86983171  0.12338677  0.75855424  1
  V  V4  1  0.37595433  0.51713166  0.36991015  1
  V  V5  1  0.62544259  0.50526509  0.13486646  1
  V  V6  1  0.49353628  0.50871498  0.00838036  1
  V  V7  1  -0.00118270  0.50061814  0.49260833  1
  V  V8  1  0.37932900  0.48064828  0.86421047  1
  V  V9  1  -0.00235740  0.85532266  0.36922079  1
  V  V10  1  0.24690079  0.00210447  0.25671349  1
  V  V11  1  0.14076051  0.48354456  0.11938280  1
  V  V12  1  0.88024656  0.37428965  0.49518477  1
  V  V13  1  0.86740638  0.63049534  0.76026628  1
  V  V14  1  0.71806261  0.71134883  0.49328077  1
  V  V15  1  -0.01301945  0.63093836  0.63073181  1
  V  V16  1  0.42368163  0.67628454  0.80512318  1
  V  V17  1  0.73518855  -0.00049525  0.74188605  1
  V  V18  1  0.11616724  0.25369901  0.38766304  1
  V  V19  1  0.76334190  0.10942143  0.37516372  1
  V  V20  1  0.12182810  0.50117365  0.62439844  1
  V  V21  1  0.38221939  0.12918625  0.25238703  1
  V  V22  1  0.50369424  0.50169831  0.49884339  1
  V  V23  1  0.87768760  0.74971487  0.09932944  1
  V  V24  1  0.24526074  0.62612833  0.86006359  1
  V  V25  1  0.13100902  0.37494781  0.74404704  1
  V  V26  1  0.62563780  0.49686071  0.62771261  1
  V  V27  1  0.39606119  0.88638881  -0.03039170  1
  V  V28  1  0.62663783  0.00359159  0.13223230  1
  V  V29  1  0.37598974  0.73303281  0.59186935  1
  V  V30  1  0.25643419  0.50172305  0.25348494  1
  V  V31  1  0.13323327  0.00019071  0.63492570  1
  V  V32  1  0.25062510  0.25575953  0.00902220  1
  V  V33  1  0.25191035  0.87892729  0.11495348  1
  V  V34  1  0.37731785  0.24978596  0.12849983  1
  V  V35  1  0.01094479  0.12825554  0.62143673  1
  V  V36  1  0.50470185  0.12584716  0.12554232  1
  V  V37  1  0.11788552  -0.00099472  0.12692428  1
  V  V38  1  0.12148556  0.36587833  0.25819927  1
  V  V39  1  0.61844921  0.26935658  0.86480119  1
  V  V40  1  0.50005357  -0.01393991  0.51504367  1
  V  V41  1  -0.00325893  0.13560391  0.14780317  1
  V  V42  1  -0.00226633  0.25279698  0.75335849  1
  V  V43  1  0.49919229  0.36075701  0.36997370  1
  V  V44  1  0.64033937  0.13625528  0.00139145  1
  V  V45  1  0.75539778  0.86928825  0.11482240  1
  V  V46  1  -0.00046758  0.00494110  0.49168234  1
  V  V47  1  0.88499682  -0.00463648  0.87875206  1
  V  V48  1  0.61810906  0.85123431  0.72492288  1
  V  V49  1  0.27302654  0.85674137  0.61103558  1
  V  V50  1  0.75824400  0.38219607  0.12524439  1
  V  V51  1  0.87526066  0.24900119  0.62480336  1
  V  V52  1  0.11474832  0.12748183  0.00754572  1
  V  V53  1  0.85328329  0.49996607  0.37051500  1
  V  V54  1  0.61879548  0.86339529  0.26300860  1
  V  V55  1  0.38604948  -0.00877152  0.37708308  1
  V  V56  1  0.86759034  0.63996151  0.25760610  1
  V  V57  1  0.50209121  0.62611032  0.62665856  1
  V  V58  1  -0.01246444  0.49827044  0.00559518  1
  V  V59  1  0.74488691  0.37300983  0.62810200  1
  V  V60  1  0.12593353  0.25391479  0.88117126  1
  V  V61  1  0.13098200  0.85039432  0.74472015  1
  V  V62  1  0.63360950  0.63095629  -0.00786016  1
  V  V63  1  0.74753520  0.24523113  0.49244225  1
  V  V64  1  0.37328001  0.75283592  0.13505339  1
  V  V65  1  0.62187611  0.11173966  0.50876551  1
  V  V66  1  0.41006698  0.13022414  0.71390985  1
  V  V67  1  0.76806726  -0.00669039  0.25633616  1
  V  V68  1  0.35689199  0.37242684  0.49985637  1
  V  V69  1  0.24843472  0.10771769  0.87750806  1
  V  V70  1  0.87535152  0.86973988  0.52032557  1
  V  V71  1  0.75428604  0.49700984  0.76076552  1
  V  V72  1  -0.01424610  0.38078502  0.88225486  1
  Zn  Zn73  1  0.01233034  0.63519006  0.12935500  1
  Zn  Zn74  1  0.88010960  0.25799873  0.13069998  1
  Zn  Zn75  1  -0.00473032  0.85358835  0.86881949  1
  Zn  Zn76  1  0.61368985  0.23226019  0.36518780  1
  Zn  Zn77  1  0.12261037  0.86564469  0.25714901  1
  Zn  Zn78  1  0.76359914  0.26765387  -0.00439383  1
  Zn  Zn79  1  0.52475804  -0.00211325  -0.02278093  1
  Zn  Zn80  1  0.62494667  0.36285697  0.25048956  1
  Zn  Zn81  1  0.26067259  0.49235971  0.74361962  1
  Zn  Zn82  1  0.19089426  0.18623285  0.19109162  1
  Zn  Zn83  1  0.19986952  0.18441476  0.69203738  1
  Zn  Zn84  1  0.20013524  0.68226982  0.17681288  1
  Zn  Zn85  1  0.17943982  0.67861341  0.57327752  1
  Zn  Zn86  1  0.72883388  0.21036791  0.21243613  1
  Zn  Zn87  1  0.68403790  0.18793160  0.68881426  1
  Zn  Zn88  1  0.68850551  0.68433420  0.18386779  1
  Zn  Zn89  1  0.69547377  0.68644984  0.67671178  1
  Zn  Zn90  1  0.30921829  0.32202306  0.31243671  1
  Zn  Zn91  1  0.31571416  0.29523738  0.81086131  1
  Zn  Zn92  1  0.30857930  0.81177807  0.31151482  1
  Zn  Zn93  1  0.29263457  0.82284489  0.81115296  1
  Zn  Zn94  1  0.81930628  0.32626345  0.29921041  1
  Zn  Zn95  1  0.80136466  0.30948604  0.81618468  1
  Zn  Zn96  1  0.80837296  0.81444927  0.32963253  1
  Zn  Zn97  1  0.81066114  0.82732845  0.79141416  1
  Zn  Zn98  1  0.18645959  0.54891489  0.43633868  1
  Zn  Zn99  1  0.19263177  0.43560098  0.93405091  1
  Zn  Zn100  1  0.17664825  0.94001729  0.44542649  1
  Zn  Zn101  1  0.15919935  0.92420103  0.93590171  1
  Zn  Zn102  1  0.68368857  0.43442019  0.44039884  1
  Zn  Zn103  1  0.67691429  0.43567413  0.94095748  1
  Zn  Zn104  1  0.68934230  0.92776410  0.44479273  1
  Zn  Zn105  1  0.72708214  0.97682101  0.94929795  1
  Zn  Zn106  1  0.31057952  0.06201092  0.05639536  1
  Zn  Zn107  1  0.31411350  0.05470860  0.56157469  1
  Zn  Zn108  1  0.31567336  0.56185032  0.05907355  1
  Zn  Zn109  1  0.31746612  0.54564255  0.56737451  1
  Zn  Zn110  1  0.81956570  0.06257361  0.07050423  1
  Zn  Zn111  1  0.81671453  0.05832598  0.56511310  1
  Zn  Zn112  1  0.80435665  0.57011569  0.06630991  1
  Zn  Zn113  1  0.81047890  0.56311289  0.56379855  1
  Zn  Zn114  1  0.43889699  0.43174952  0.18732211  1
  Zn  Zn115  1  0.44078722  0.42359721  0.67647810  1
  Zn  Zn116  1  0.43940972  0.93804885  0.19042117  1
  Zn  Zn117  1  0.44770916  0.95853281  0.79979267  1
  Zn  Zn118  1  0.94266812  0.44566285  0.19131360  1
  Zn  Zn119  1  0.93532628  0.43836241  0.68764751  1
  Zn  Zn120  1  0.94196577  0.92693083  0.18627822  1
  Zn  Zn121  1  0.95378938  0.93758160  0.69591164  1
  Zn  Zn122  1  0.06992647  0.07361806  0.31867209  1
  Zn  Zn123  1  0.06471262  0.06569912  0.81507225  1
  Zn  Zn124  1  0.05236777  0.55936949  0.29939257  1
  Zn  Zn125  1  0.05645640  0.56477935  0.81225309  1
  Zn  Zn126  1  0.57084699  0.05934764  0.31461315  1
  Zn  Zn127  1  0.57156135  0.09313357  0.80909250  1
  Zn  Zn128  1  0.55503550  0.56046730  0.31162895  1
  Zn  Zn129  1  0.56567297  0.55484460  0.81282543  1
  Zn  Zn130  1  0.43098765  0.18183273  0.52359482  1
  Zn  Zn131  1  0.45384915  0.14727845  0.91323612  1
  Zn  Zn132  1  0.12200727  0.71701645  0.40423930  1
  Zn  Zn133  1  0.47089244  0.72238950  0.98978371  1
  Zn  Zn134  1  0.93893232  0.18937535  0.43595386  1
  Zn  Zn135  1  0.93262452  0.19013526  0.94627935  1
  Zn  Zn136  1  0.92846122  0.68446816  0.44196655  1
  Zn  Zn137  1  0.93463852  0.67217198  0.93278326  1
  Zn  Zn138  1  0.05491803  0.31304506  0.06641680  1
  Zn  Zn139  1  0.19497728  0.31527606  0.55968432  1
  Zn  Zn140  1  0.04395074  0.79380532  0.01519284  1
  Zn  Zn141  1  0.05337940  0.81736906  0.56377184  1
  Zn  Zn142  1  0.56525214  0.31258663  0.06785427  1
  Zn  Zn143  1  0.56913595  0.31788845  0.54666319  1
  Zn  Zn144  1  0.56597763  0.82094236  0.07422019  1
  Zn  Zn145  1  0.55830211  0.80220038  0.54366540  1
  O  O146  1  0.11519022  0.12142496  0.12740502  1
  O  O147  1  0.11408118  0.12555502  0.63133606  1
  O  O148  1  0.12885003  0.60808150  0.11423157  1
  O  O149  1  0.10466661  0.60545376  0.63291034  1
  O  O150  1  0.61923495  0.11680233  0.12606177  1
  O  O151  1  0.63716118  0.12624359  0.60596986  1
  O  O152  1  0.62653567  0.61116174  0.11426123  1
  O  O153  1  0.60800068  0.61272945  0.63321531  1
  O  O154  1  0.38622038  0.38101735  0.38000604  1
  O  O155  1  0.37226327  0.37537254  0.88335548  1
  O  O156  1  0.36442297  0.89366200  0.36997395  1
  O  O157  1  0.37527881  0.88790521  0.86687536  1
  O  O158  1  0.86540656  0.38446463  0.38564374  1
  O  O159  1  0.88855228  0.36872122  0.87007313  1
  O  O160  1  0.89596485  0.87570368  0.38377969  1
  O  O161  1  0.88246060  0.89099712  0.85600129  1
  O  O162  1  0.24975978  0.01077001  0.36613207  1
  O  O163  1  0.22329757  0.01228371  0.89290311  1
  O  O164  1  0.26441961  0.50007882  0.36315233  1
  O  O165  1  0.26861833  0.49720006  0.87308100  1
  O  O166  1  0.75360582  0.00189307  0.36928318  1
  O  O167  1  0.77021435  0.00152379  0.84890058  1
  O  O168  1  0.75421086  0.49821882  0.37731770  1
  O  O169  1  0.74007447  0.48798848  0.85799169  1
  O  O170  1  0.24511001  0.49419466  0.12789141  1
  O  O171  1  0.22570557  0.49873638  0.63087597  1
  O  O172  1  0.24494722  1.00046311  0.13815323  1
  O  O173  1  0.23381030  1.00550321  0.62205201  1
  O  O174  1  0.73236929  0.49742553  0.12065888  1
  O  O175  1  0.74238697  0.48862321  0.62666240  1
  O  O176  1  0.75082116  0.99092064  0.14011157  1
  O  O177  1  0.76243106  1.00158512  0.64526151  1
  O  O178  1  0.02219778  0.38272100  0.24467886  1
  O  O179  1  0.00310857  0.36761020  0.76086156  1
  O  O180  1  0.00266245  0.87012258  0.26406432  1
  O  O181  1  0.02701386  0.87836548  0.76178182  1
  O  O182  1  0.50160544  0.37788510  0.26661183  1
  O  O183  1  0.49442440  0.32021983  0.70026452  1
  O  O184  1  0.52003979  0.87688432  0.24249843  1
  O  O185  1  0.53693591  0.88942446  0.77250153  1
  O  O186  1  0.49034560  0.11669392  0.24206696  1
  O  O187  1  0.51070970  0.13533458  0.72182513  1
  O  O188  1  0.49574597  0.64339649  0.23919916  1
  O  O189  1  0.49183510  0.61843051  0.74256931  1
  O  O190  1  1.00241853  0.12706426  0.24623024  1
  O  O191  1  0.99440128  0.13864057  0.74491657  1
  O  O192  1  0.97286836  0.60427734  0.23217454  1
  O  O193  1  0.98139896  0.61637694  0.74224179  1
  O  O194  1  0.36767638  0.25245238  0.00954720  1
  O  O195  1  0.37708705  0.27327085  0.49997660  1
  O  O196  1  0.37070682  0.79241423  0.00206821  1
  O  O197  1  0.38014263  0.73241809  0.49731059  1
  O  O198  1  0.87365871  0.25018685  0.01649089  1
  O  O199  1  0.86981575  0.25398217  0.50754087  1
  O  O200  1  0.86386802  0.74083527  0.00268852  1
  O  O201  1  0.88796106  0.76985112  0.50488951  1
  O  O202  1  0.12711283  0.26005982  0.48601266  1
  O  O203  1  0.12936999  0.24999367  0.99856413  1
  O  O204  1  0.12661407  0.75383708  0.50925043  1
  O  O205  1  0.13555496  0.72195894  1.01209005  1
  O  O206  1  0.63370382  0.23692382  0.49417305  1
  O  O207  1  0.62514240  0.24098691  0.99942257  1
  O  O208  1  0.61675556  0.72508449  0.48990969  1
  O  O209  1  0.59678180  0.72798676  1.00897184  1
  O  O210  1  0.48995942  0.23694598  0.12129633  1
  O  O211  1  0.50282054  0.27430329  0.63852729  1
  O  O212  1  0.47433724  0.76090300  0.11028709  1
  O  O213  1  0.48989332  0.73077281  0.61690485  1
  O  O214  1  1.00040370  0.24002488  0.13341675  1
  O  O215  1  0.99003258  0.24219665  0.63678872  1
  O  O216  1  0.98478196  0.75101673  0.10644142  1
  O  O217  1  0.99987068  0.72793165  0.62230810  1
  O  O218  1  0.01727916  0.23901647  0.37518785  1
  O  O219  1  0.00578387  0.25979551  0.87293469  1
  O  O220  1  0.00542503  0.75389812  0.38187991  1
  O  O221  1  0.00731635  0.75051098  0.91048625  1
  O  O222  1  0.49772709  0.26201131  0.38193296  1
  O  O223  1  0.52399853  0.22844041  0.87774548  1
  O  O224  1  0.50218406  0.69815982  0.29579439  1
  O  O225  1  0.47541626  0.72499622  0.87431305  1
  O  O226  1  0.25911175  0.12387113  0.48380261  1
  O  O227  1  0.23301159  0.13621758  1.00097959  1
  O  O228  1  0.24361013  0.60891073  0.51140417  1
  O  O229  1  0.24075749  0.60805057  0.98395293  1
  O  O230  1  0.74566623  0.12284470  0.49362807  1
  O  O231  1  0.73998684  0.13311255  1.02563997  1
  O  O232  1  0.73929205  0.61061678  0.49117402  1
  O  O233  1  0.73350459  0.62958334  0.99853608  1
  O  O234  1  0.26090673  0.36109515  -0.00363433  1
  O  O235  1  0.25731680  0.38038174  0.48643048  1
  O  O236  1  0.24173056  0.88885299  0.01696225  1
  O  O237  1  0.24767013  0.88862354  0.51798742  1
  O  O238  1  0.74400936  0.38724359  0.01726870  1
  O  O239  1  0.75568667  0.36301953  0.50757136  1
  O  O240  1  0.74799534  0.88245329  0.01709081  1
  O  O241  1  0.77701775  0.89239171  0.50561302  1
  O  O242  1  0.13435587  0.49117696  0.23545302  1
  O  O243  1  0.11304702  0.48313232  0.74392694  1
  O  O244  1  0.13893291  1.01235502  0.24489612  1
  O  O245  1  0.12223090  1.00761318  0.73612208  1
  O  O246  1  0.61697388  0.50774744  0.23650676  1
  O  O247  1  0.63564264  0.49901038  0.73724501  1
  O  O248  1  0.63651751  0.99139003  0.24331547  1
  O  O249  1  0.64016395  1.02581535  0.74478691  1
  O  O250  1  0.36628007  0.00807253  0.25768276  1
  O  O251  1  0.38254382  0.03899949  0.74823292  1
  O  O252  1  0.36636205  0.49076585  0.25668596  1
  O  O253  1  0.38055714  0.47360632  0.76081885  1
  O  O254  1  0.86586633  -0.00866321  0.24832594  1
  O  O255  1  0.88385693  0.01749269  0.75422608  1
  O  O256  1  0.87258993  0.49117439  0.27138615  1
  O  O257  1  0.85950640  0.50108100  0.74781663  1
  O  O258  1  0.12585831  0.36129027  0.36290743  1
  O  O259  1  0.11525378  0.36770126  0.87019542  1
  O  O260  1  0.10363081  0.88660548  0.37603015  1
  O  O261  1  0.17467443  0.85918142  0.83968759  1
  O  O262  1  0.60904442  0.37427682  0.37733523  1
  O  O263  1  0.60672314  0.36898130  0.87775754  1
  O  O264  1  0.62954603  0.87825946  0.36227773  1
  O  O265  1  0.66876869  0.80654219  0.89330061  1
  O  O266  1  0.38410473  0.12726586  0.13044691  1
  O  O267  1  0.37951600  0.13296561  0.61164395  1
  O  O268  1  0.35137750  0.65712966  0.10826449  1
  O  O269  1  0.38559206  0.62557333  0.62404433  1
  O  O270  1  0.89891262  0.11551596  0.12720791  1
  O  O271  1  0.88427242  0.13523848  0.63464784  1
  O  O272  1  0.86895398  0.64632964  0.13008233  1
  O  O273  1  0.88149281  0.61699963  0.63582126  1
  O  O274  1  0.26207514  0.23997385  0.11643176  1
  O  O275  1  0.25110175  0.26044546  0.63641352  1
  O  O276  1  0.25118793  0.77451219  0.12771451  1
  O  O277  1  0.26649978  0.74919553  0.61171900  1
  O  O278  1  0.74017588  0.27688027  0.11618356  1
  O  O279  1  0.75862941  0.25271567  0.61751679  1
  O  O280  1  0.75830698  0.76453163  0.12560371  1
  O  O281  1  0.74552762  0.73844387  0.58975150  1
  O  O282  1  0.25260256  0.24206135  0.37401209  1
  O  O283  1  0.23623610  0.24438453  0.88738242  1
  O  O284  1  0.21105571  0.75050925  0.33230047  1
  O  O285  1  0.25788605  0.72376879  0.86730158  1
  O  O286  1  0.75444239  0.23635149  0.38888654  1
  O  O287  1  0.73007498  0.26206402  0.88687173  1
  O  O288  1  0.75720804  0.75468570  0.40817539  1
  O  O289  1  0.73140467  0.76941245  0.88413857  1
  O  O290  1  0.01230724  0.13268184  0.01125049  1
  O  O291  1  -0.00514553  0.12250809  0.51701596  1
  O  O292  1  0.01593430  0.60493897  -0.00148418  1
  O  O293  1  -0.01572866  0.60697435  0.51527186  1
  O  O294  1  0.51691027  0.11698055  0.01537511  1
  O  O295  1  0.51708074  0.11580179  0.49685832  1
  O  O296  1  0.48316826  0.60711156  0.00643212  1
  O  O297  1  0.49674526  0.60537098  0.51952614  1
  O  O298  1  0.49439225  0.38603787  0.48929147  1
  O  O299  1  0.48873836  0.37909963  1.00281378  1
  O  O300  1  0.50478667  0.88797398  0.49364009  1
  O  O301  1  0.50103801  0.88397653  0.98830930  1
  O  O302  1  0.98138890  0.38764862  0.50705250  1
  O  O303  1  0.99975260  0.38323122  0.99061306  1
  O  O304  1  0.99572958  0.89037715  0.49069023  1
  O  O305  1  1.05363188  0.89136676  0.96282768  1
  O  O306  1  0.49227038  0.49757454  0.38098304  1
  O  O307  1  0.48257933  0.50015268  0.88682006  1
  O  O308  1  0.48665910  1.00042759  0.36937659  1
  O  O309  1  0.49575955  1.03699725  0.87447796  1
  O  O310  1  0.99180573  0.49952475  0.39216322  1
  O  O311  1  1.00177120  0.48669824  0.88706906  1
  O  O312  1  1.00408017  1.01857882  0.39277983  1
  O  O313  1  0.98507758  1.01179272  0.87678869  1
  O  O314  1  0.01529947  0.00535992  0.13893592  1
  O  O315  1  0.00660017  0.02030001  0.62791765  1
  O  O316  1  0.01452347  0.49355668  0.11060729  1
  O  O317  1  0.00285868  0.49987652  0.61931172  1
  O  O318  1  0.51499847  0.00575301  0.12766085  1
  O  O319  1  0.49134100  -0.00646916  0.60961572  1
  O  O320  1  0.50346140  0.49545215  0.11466506  1
  O  O321  1  0.50793147  0.49959516  0.62227347  1
  O  O322  1  0.23718751  0.38867601  0.25106342  1
  O  O323  1  0.23260475  0.37252366  0.76186473  1
  O  O324  1  0.24519919  0.89634836  0.24915600  1
  O  O325  1  0.24537917  0.87359988  0.71182895  1
  O  O326  1  0.73991870  0.38401436  0.23355808  1
  O  O327  1  0.75798612  0.38303160  0.73576981  1
  O  O328  1  0.74754491  0.88438852  0.25181897  1
  O  O329  1  0.72120565  0.88864664  0.75236821  1
  O  O330  1  0.26237381  0.11698682  0.25258611  1
  O  O331  1  0.23478774  0.12354056  0.77834255  1
  O  O332  1  0.24867211  0.60031873  0.24064585  1
  O  O333  1  0.23505181  0.60622294  0.76227223  1
  O  O334  1  0.74898447  0.10484952  0.26663724  1
  O  O335  1  0.76778880  0.12353004  0.74480367  1
  O  O336  1  0.76926827  0.62221276  0.24114351  1
  O  O337  1  0.75663629  0.60678559  0.74146203  1
  O  O338  1  0.36378466  0.11496764  0.36418287  1
  O  O339  1  0.34626588  0.11833057  0.90185412  1
  O  O340  1  0.37993436  0.61185644  0.36750274  1
  O  O341  1  0.36329277  0.60568049  0.85966164  1
  O  O342  1  0.86127615  0.12224265  0.38540767  1
  O  O343  1  0.88093105  0.12740704  0.86140282  1
  O  O344  1  0.87679560  0.61140483  0.36633176  1
  O  O345  1  0.87428216  0.61382690  0.85927771  1
  O  O346  1  0.12866950  0.38102537  0.12701486  1
  O  O347  1  0.12122239  0.37858235  0.63997351  1
  O  O348  1  0.13492496  0.89426990  0.13683640  1
  O  O349  1  0.11695088  0.89182034  0.63316695  1
  O  O350  1  0.62197631  0.39308543  0.12824437  1
  O  O351  1  0.63746786  0.37890419  0.61929227  1
  O  O352  1  0.64120372  0.88345149  0.13400635  1
  O  O353  1  0.60992995  0.86291794  0.62657313  1
  O  O354  1  0.13414249  0.26224036  0.25303994  1
  O  O355  1  0.11461946  0.25969167  0.76054775  1
  O  O356  1  0.15703985  0.75266542  0.26292437  1
  O  O357  1  0.13037507  0.75615186  0.72618121  1
  O  O358  1  0.63242944  0.24742038  0.25594576  1
  O  O359  1  0.63455407  0.25046283  0.76523459  1
  O  O360  1  0.63631797  0.76501302  0.24408477  1
  O  O361  1  0.62852666  0.75190324  0.74314038  1
  O  O362  1  0.36692492  0.24015517  0.23921369  1
  O  O363  1  0.37493966  0.21395344  0.76360208  1
  O  O364  1  0.36949239  0.75515778  0.23549046  1
  O  O365  1  0.37081436  0.74335676  0.75295531  1
  O  O366  1  0.84103683  0.23884394  0.23540768  1
  O  O367  1  0.87841415  0.24443981  0.74546048  1
  O  O368  1  0.87372232  0.74001837  0.26214414  1
  O  O369  1  0.85387692  0.73089564  0.75495559  1
  O  O370  1  0.38200472  0.49522399  0.48082222  1
  O  O371  1  0.38093670  0.48508415  0.99881865  1
  O  O372  1  0.38947927  1.00735960  0.48505311  1
  O  O373  1  0.37538589  0.98016767  1.00776413  1
  O  O374  1  0.87625781  0.49245033  0.49134457  1
  O  O375  1  0.89001611  0.51128378  1.01227717  1
  O  O376  1  0.89557275  0.99593685  0.51100069  1
  O  O377  1  0.85417784  1.00497784  0.97663495  1
  O  O378  1  0.12976302  0.01527627  0.02438730  1
  O  O379  1  0.10655177  0.00191521  0.51927178  1
  O  O380  1  0.12714604  0.49578251  0.01059868  1
  O  O381  1  0.10721940  0.49135092  0.51454406  1
  O  O382  1  0.63824011  0.00990832  0.01626175  1
  O  O383  1  0.61672066  0.00482903  0.49837782  1
  O  O384  1  0.60630428  0.51000442  0.00542858  1
  O  O385  1  0.61527939  0.49295999  0.51393106  1
  O  O386  1  0.38095154  0.35861544  0.11830504  1
  O  O387  1  0.36317505  0.40441848  0.59829872  1
  O  O388  1  0.35795718  0.87718844  0.13428077  1
  O  O389  1  0.37503473  0.84733477  0.61267055  1
  O  O390  1  0.86206551  0.38592142  0.13269777  1
  O  O391  1  0.86740502  0.36458473  0.61846685  1
  O  O392  1  0.86702723  0.86223297  0.12638168  1
  O  O393  1  0.89546537  0.87714908  0.62057160  1
  O  O394  1  0.14503200  0.14264186  0.36952681  1
  O  O395  1  0.12141561  0.13857665  0.88869017  1
  O  O396  1  0.11572478  0.60887069  0.37451391  1
  O  O397  1  0.13332386  0.61036630  0.88516494  1
  O  O398  1  0.64020449  0.11905198  0.38729954  1
  O  O399  1  0.64133227  0.11899215  0.90186957  1
  O  O400  1  0.54706907  0.67309040  0.35538616  1
  O  O401  1  0.61493588  0.61660821  0.89368093  1
