# generated using pymatgen
data_V73Zn73O256
_symmetry_space_group_name_H-M   'P 1'
_cell_length_a   16.91765033
_cell_length_b   16.85755750
_cell_length_c   16.87813756
_cell_angle_alpha   89.75991347
_cell_angle_beta   90.31618286
_cell_angle_gamma   90.08437101
_symmetry_Int_Tables_number   1
_chemical_formula_structural   V73Zn73O256
_chemical_formula_sum   'V73 Zn73 O256'
_cell_volume   4813.35988669
_cell_formula_units_Z   1
loop_
 _symmetry_equiv_pos_site_id
 _symmetry_equiv_pos_as_xyz
  1  'x, y, z'
loop_
 _atom_site_type_symbol
 _atom_site_label
 _atom_site_symmetry_multiplicity
 _atom_site_fract_x
 _atom_site_fract_y
 _atom_site_fract_z
 _atom_site_occupancy
  V  V0  1  0.61858017  0.12551976  0.50200445  1
  V  V1  1  0.12287287  0.00917856  0.12086636  1
  V  V2  1  0.38692497  0.12898770  0.74645094  1
  V  V3  1  0.88223780  0.37814932  -0.00388130  1
  V  V4  1  0.74841030  0.37569884  0.12157795  1
  V  V5  1  0.26510634  0.75128368  0.00705882  1
  V  V6  1  0.62766636  0.74271557  0.86865693  1
  V  V7  1  -0.00066808  0.24980784  0.25342796  1
  V  V8  1  0.13374120  0.26198394  0.86084732  1
  V  V9  1  0.87537545  0.11097789  0.24977357  1
  V  V10  1  0.12577207  -0.00645404  0.64124439  1
  V  V11  1  0.75723438  0.24906616  0.49916597  1
  V  V12  1  0.24913484  0.12249661  0.36693013  1
  V  V13  1  -0.00938121  0.12804369  0.64225763  1
  V  V14  1  0.36902615  0.00698682  0.37540292  1
  V  V15  1  0.89018658  0.37357050  0.49372670  1
  V  V16  1  0.75657629  0.37310352  0.62405912  1
  V  V17  1  0.62444157  0.51595884  0.11789431  1
  V  V18  1  0.00566681  0.50334541  0.01966296  1
  V  V19  1  0.74176132  0.88308844  0.12420380  1
  V  V20  1  0.28885527  0.37219449  0.12716330  1
  V  V21  1  0.25298011  0.60886086  0.87432524  1
  V  V22  1  0.75483041  0.49977581  0.75508845  1
  V  V23  1  0.25065468  0.86100848  0.63499208  1
  V  V24  1  0.62355166  0.37054033  0.24798661  1
  V  V25  1  0.76571321  -0.00069236  0.74515659  1
  V  V26  1  0.75220979  0.72923157  0.49606416  1
  V  V27  1  0.25780570  0.87694782  0.12457760  1
  V  V28  1  0.24286659  0.38242974  0.64907795  1
  V  V29  1  0.75170449  0.50432090  0.25461053  1
  V  V30  1  0.11731263  0.10951666  0.50081281  1
  V  V31  1  0.38986563  0.36841542  -0.02111763  1
  V  V32  1  -0.00349971  0.00919514  0.00700430  1
  V  V33  1  0.87193074  0.63376454  0.74433276  1
  V  V34  1  0.49138604  0.00179649  0.50440968  1
  V  V35  1  0.61927067  0.00202393  0.62864148  1
  V  V36  1  0.26088719  0.63137137  0.37590686  1
  V  V37  1  0.88153344  0.75662176  0.11680302  1
  V  V38  1  0.11511130  0.50030781  0.63141372  1
  V  V39  1  -0.00870303  0.87061645  0.88780270  1
  V  V40  1  0.24934815  0.26098608  0.50889407  1
  V  V41  1  0.47763842  0.63494240  0.12199067  1
  V  V42  1  0.49427237  0.88027531  0.87458034  1
  V  V43  1  0.24634219  0.12242817  0.88296540  1
  V  V44  1  0.76282013  0.86981569  0.61239793  1
  V  V45  1  0.12535771  0.37398005  0.22809077  1
  V  V46  1  0.87916793  0.24583311  0.12721592  1
  V  V47  1  0.75107358  0.24955650  -0.00202336  1
  V  V48  1  0.74212906  0.74250433  -0.00195097  1
  V  V49  1  0.62592174  0.74662909  0.37280368  1
  V  V50  1  0.61576148  0.25089332  0.86936737  1
  V  V51  1  0.89125446  0.50249936  0.37756778  1
  V  V52  1  0.75959260  0.12270375  0.86669262  1
  V  V53  1  -0.01934741  0.88785066  0.38143698  1
  V  V54  1  0.61349436  0.37068926  0.75035435  1
  V  V55  1  0.61769606  0.25170734  0.36674744  1
  V  V56  1  0.00218362  0.75390649  0.74231638  1
  V  V57  1  0.48995315  -0.00227985  0.00145395  1
  V  V58  1  0.11561774  0.26518962  0.38109111  1
  V  V59  1  0.49366026  0.23758806  0.23443352  1
  V  V60  1  0.48802159  0.62211023  0.59798273  1
  V  V61  1  0.12528912  0.75254942  0.87643250  1
  V  V62  1  0.88598829  0.50653467  0.87534451  1
  V  V63  1  0.12869551  0.87972837  0.25662623  1
  V  V64  1  0.12306639  0.63603627  0.49141829  1
  V  V65  1  0.37115610  0.86510392  0.50725688  1
  V  V66  1  0.11982337  0.62597472  0.01733781  1
  V  V67  1  0.75495404  0.11316309  0.37094447  1
  V  V68  1  0.00742459  0.74469375  0.25628590  1
  V  V69  1  0.62521749  0.11426388  0.00651114  1
  V  V70  1  0.48933279  0.76327436  0.24311019  1
  V  V71  1  0.49956569  0.50860404  -0.01980590  1
  V  V72  1  0.87633857  0.62661774  0.24639280  1
  Zn  Zn73  1  -0.00391925  0.62250646  0.61212654  1
  Zn  Zn74  1  0.23998924  0.50774711  0.24733753  1
  Zn  Zn75  1  0.87663264  -0.00422209  0.87917265  1
  Zn  Zn76  1  0.62297235  0.87456321  0.74740716  1
  Zn  Zn77  1  0.41587466  0.50287524  0.40389534  1
  Zn  Zn78  1  0.62296996  -0.11370341  0.25127750  1
  Zn  Zn79  1  0.46398716  0.76610390  0.71591240  1
  Zn  Zn80  1  0.61990742  0.50661947  0.61919184  1
  Zn  Zn81  1  0.25782018  -0.00224630  0.75991842  1
  Zn  Zn82  1  0.32223458  0.18139931  0.18423937  1
  Zn  Zn83  1  0.18490501  0.18583238  0.69523147  1
  Zn  Zn84  1  0.19646141  0.69459222  0.19400970  1
  Zn  Zn85  1  0.18651950  0.67386149  0.69094707  1
  Zn  Zn86  1  0.68393422  0.05874194  0.18802994  1
  Zn  Zn87  1  0.69260920  0.18755006  0.68538586  1
  Zn  Zn88  1  0.69172701  0.69620530  0.19180085  1
  Zn  Zn89  1  0.67783759  0.68677387  0.67993499  1
  Zn  Zn90  1  0.30676635  0.30421481  0.31637195  1
  Zn  Zn91  1  0.31529503  0.30505592  0.80951539  1
  Zn  Zn92  1  0.31281864  0.81930348  0.31818450  1
  Zn  Zn93  1  0.31369878  0.80551384  0.81182876  1
  Zn  Zn94  1  0.81143346  0.31133785  0.31469156  1
  Zn  Zn95  1  0.81442201  0.31677844  0.81762746  1
  Zn  Zn96  1  0.80736156  0.81293452  0.31207044  1
  Zn  Zn97  1  0.80819510  0.81414288  0.81053476  1
  Zn  Zn98  1  0.18714806  0.45389862  0.44708941  1
  Zn  Zn99  1  0.19344958  0.43003970  0.95451559  1
  Zn  Zn100  1  0.19315909  0.93124369  0.44452807  1
  Zn  Zn101  1  0.18529732  0.93736226  0.94100984  1
  Zn  Zn102  1  0.69574924  0.43632737  0.43216963  1
  Zn  Zn103  1  0.68621585  0.44206425  0.93340820  1
  Zn  Zn104  1  0.68000187  0.93148593  0.43612141  1
  Zn  Zn105  1  0.69029172  0.92580263  0.93739523  1
  Zn  Zn106  1  0.30746424  0.06069413  0.05537458  1
  Zn  Zn107  1  0.30612374  0.07187002  0.56993208  1
  Zn  Zn108  1  0.31130460  0.54965201  0.05685263  1
  Zn  Zn109  1  0.30623705  0.55757606  0.55756164  1
  Zn  Zn110  1  0.81753989  0.06062817  0.05766893  1
  Zn  Zn111  1  0.81785563  0.05759533  0.55727479  1
  Zn  Zn112  1  0.81644672  0.56752814  0.06466447  1
  Zn  Zn113  1  0.81398603  0.55801867  0.56383351  1
  Zn  Zn114  1  0.45302883  0.45470119  0.21780384  1
  Zn  Zn115  1  0.43717878  0.42475637  0.57501745  1
  Zn  Zn116  1  0.42360558  0.99442906  0.17371710  1
  Zn  Zn117  1  0.43303538  0.94245968  0.69220207  1
  Zn  Zn118  1  0.93763049  0.43390530  0.19065462  1
  Zn  Zn119  1  0.93521218  0.43859398  0.68393434  1
  Zn  Zn120  1  0.94036977  0.92886742  0.18808490  1
  Zn  Zn121  1  0.94540663  0.93328218  0.68238086  1
  Zn  Zn122  1  0.06394140  0.06355094  0.30824925  1
  Zn  Zn123  1  0.06614700  0.06271404  0.81903652  1
  Zn  Zn124  1  0.07261589  0.55985603  0.31373817  1
  Zn  Zn125  1  0.06504626  0.56644620  0.81724901  1
  Zn  Zn126  1  0.55496044  0.06167629  0.31998978  1
  Zn  Zn127  1  0.56609106  0.06419775  0.81477634  1
  Zn  Zn128  1  0.56321510  0.57696061  0.30686634  1
  Zn  Zn129  1  0.57112968  0.56882994  0.78707812  1
  Zn  Zn130  1  0.39629511  0.25261327  0.62509588  1
  Zn  Zn131  1  0.43347716  0.17870834  0.93488025  1
  Zn  Zn132  1  0.44029592  0.69120756  0.42485163  1
  Zn  Zn133  1  0.42797569  0.69832620  0.89789267  1
  Zn  Zn134  1  0.93794685  0.17865250  0.44032005  1
  Zn  Zn135  1  0.93749539  0.18471905  0.93613919  1
  Zn  Zn136  1  0.93708435  0.69303802  0.43457873  1
  Zn  Zn137  1  0.93614182  0.68252898  0.93591635  1
  Zn  Zn138  1  0.06041889  0.30433869  0.05784042  1
  Zn  Zn139  1  0.06813942  0.30638633  0.57476758  1
  Zn  Zn140  1  0.06687637  0.81395693  0.06842178  1
  Zn  Zn141  1  0.06702572  0.81493632  0.55560470  1
  Zn  Zn142  1  0.55675656  0.31321352  0.05846958  1
  Zn  Zn143  1  0.57736025  0.32109811  0.54898280  1
  Zn  Zn144  1  0.55978568  0.81368467  0.05815668  1
  Zn  Zn145  1  0.56509470  0.81202984  0.55697488  1
  O  O146  1  0.12686259  0.10485162  0.12816439  1
  O  O147  1  0.11986152  0.11136700  0.61792903  1
  O  O148  1  0.12687326  0.63439264  0.11549999  1
  O  O149  1  0.12033189  0.61876209  0.61757567  1
  O  O150  1  0.63650488  0.12596688  0.10472043  1
  O  O151  1  0.64010937  0.11086494  0.61453898  1
  O  O152  1  0.63768435  0.61440090  0.12244216  1
  O  O153  1  0.59291409  0.61025144  0.67668702  1
  O  O154  1  0.35356947  0.40863284  0.34348979  1
  O  O155  1  0.37481436  0.37419408  0.88079179  1
  O  O156  1  0.35729403  0.89457503  0.39869740  1
  O  O157  1  0.39490677  0.87070325  0.87317238  1
  O  O158  1  0.87148858  0.38670252  0.38343011  1
  O  O159  1  0.87446263  0.38554965  0.89094058  1
  O  O160  1  0.88135216  0.88057152  0.36588926  1
  O  O161  1  0.88824705  0.87256324  0.87368011  1
  O  O162  1  0.25382483  0.01274057  0.38285339  1
  O  O163  1  0.23953359  0.01240951  0.87640279  1
  O  O164  1  0.23423690  0.51756357  0.36742565  1
  O  O165  1  0.23547945  0.51096996  0.88622611  1
  O  O166  1  0.74585657  0.01587587  0.38684971  1
  O  O167  1  0.75169816  0.00266116  0.85933299  1
  O  O168  1  0.75711433  0.49732359  0.35823044  1
  O  O169  1  0.76450923  0.49435770  0.86403039  1
  O  O170  1  0.25773065  0.48118293  0.13472827  1
  O  O171  1  0.23604069  0.48997022  0.62688298  1
  O  O172  1  0.23120422  0.98428200  0.10721835  1
  O  O173  1  0.23629053  0.99655442  0.62896262  1
  O  O174  1  0.74579378  0.49221513  0.12510921  1
  O  O175  1  0.74323112  0.49175222  0.63303053  1
  O  O176  1  0.75321686  0.98924053  0.12026960  1
  O  O177  1  0.74821746  0.99308867  0.63175040  1
  O  O178  1  0.00852192  0.36000921  0.24216610  1
  O  O179  1  -0.03191853  0.34168612  0.75208798  1
  O  O180  1  0.01060004  0.86765867  0.25901269  1
  O  O181  1  -0.00466657  0.85861101  0.76260269  1
  O  O182  1  0.52103622  0.35856195  0.23991823  1
  O  O183  1  0.51897274  0.37794111  0.75064736  1
  O  O184  1  0.50579033  0.86189157  0.22822524  1
  O  O185  1  0.50225386  0.87264131  0.75648443  1
  O  O186  1  0.50348911  0.13915634  0.25391505  1
  O  O187  1  0.48828694  0.12454357  0.75888243  1
  O  O188  1  0.50612155  0.64226454  0.22556638  1
  O  O189  1  0.41897388  0.56778901  0.75915200  1
  O  O190  1  0.98414977  0.13547546  0.25581441  1
  O  O191  1  0.99802625  0.11618440  0.74326192  1
  O  O192  1  0.99774463  0.63863865  0.25553652  1
  O  O193  1  0.98842585  0.63886563  0.75233059  1
  O  O194  1  0.40168205  0.26921573  -0.00202876  1
  O  O195  1  0.34656788  0.24725137  0.51022626  1
  O  O196  1  0.36151987  0.74720342  -0.00533291  1
  O  O197  1  0.38429508  0.76862690  0.49294127  1
  O  O198  1  0.87183544  0.25697405  0.00466834  1
  O  O199  1  0.86872051  0.26320697  0.48833722  1
  O  O200  1  0.87603684  0.74470330  0.01358822  1
  O  O201  1  0.85245059  0.73877160  0.49617283  1
  O  O202  1  0.12067526  0.24186011  0.48806036  1
  O  O203  1  0.08556798  0.23530697  0.97069174  1
  O  O204  1  0.13357674  0.73580514  0.50958050  1
  O  O205  1  0.12034659  0.73872233  0.99467938  1
  O  O206  1  0.63703654  0.24509490  0.48914672  1
  O  O207  1  0.63446448  0.24506289  0.98719495  1
  O  O208  1  0.63223904  0.75596454  0.48297453  1
  O  O209  1  0.63787552  0.74808837  0.99416049  1
  O  O210  1  0.50492403  0.24487860  0.13439702  1
  O  O211  1  0.47981181  0.32037853  0.59509310  1
  O  O212  1  0.49508016  0.74190633  0.12127512  1
  O  O213  1  0.51279026  0.73256885  0.62284928  1
  O  O214  1  0.98524769  0.24897351  0.13075961  1
  O  O215  1  1.00684813  0.22782054  0.62652552  1
  O  O216  1  0.98752461  0.75944985  0.13872025  1
  O  O217  1  1.00812923  0.75561961  0.64160951  1
  O  O218  1  0.00854423  0.24455001  0.36962133  1
  O  O219  1  0.02593849  0.25295267  0.90816939  1
  O  O220  1  -0.00783905  0.76297481  0.35841773  1
  O  O221  1  0.00570328  0.75553422  0.87448633  1
  O  O222  1  0.52023077  0.25308550  0.37183968  1
  O  O223  1  0.51904789  0.24446962  0.87569318  1
  O  O224  1  0.51180794  0.74873035  0.35511915  1
  O  O225  1  0.52036857  0.76460379  0.88819198  1
  O  O226  1  0.23071218  0.13712764  0.50074348  1
  O  O227  1  0.25523214  0.12880852  0.98359426  1
  O  O228  1  0.23863527  0.62123287  0.48705678  1
  O  O229  1  0.23600449  0.63463238  1.00175039  1
  O  O230  1  0.74692553  0.13358912  0.49286907  1
  O  O231  1  0.74598304  0.13172952  0.98933888  1
  O  O232  1  0.73866658  0.62999242  0.51252255  1
  O  O233  1  0.75777616  0.64207143  1.00113150  1
  O  O234  1  0.28243174  0.38323131  0.01583635  1
  O  O235  1  0.23714560  0.36177141  0.49426301  1
  O  O236  1  0.24357392  0.85974673  0.00977205  1
  O  O237  1  0.26157999  0.87637034  0.51952946  1
  O  O238  1  0.75780717  0.37078119  0.00312325  1
  O  O239  1  0.75385314  0.36671521  0.50585937  1
  O  O240  1  0.75379048  0.86159093  0.01243167  1
  O  O241  1  0.75287878  0.87982750  0.51155624  1
  O  O242  1  0.11660700  0.47627985  0.24736007  1
  O  O243  1  0.11848938  0.51301401  0.73368991  1
  O  O244  1  0.11811201  0.98744557  0.23567246  1
  O  O245  1  0.12885513  0.99610227  0.74301861  1
  O  O246  1  0.63740417  0.49199173  0.23367982  1
  O  O247  1  0.64247264  0.47866824  0.76120441  1
  O  O248  1  0.62105889  0.99990805  0.25743517  1
  O  O249  1  0.63332405  1.00360773  0.73567925  1
  O  O250  1  0.38017864  -0.00630359  0.27831479  1
  O  O251  1  0.37210208  0.01879266  0.74539114  1
  O  O252  1  0.34752025  0.45109925  0.27232751  1
  O  O253  1  0.37709590  0.50856065  0.75941840  1
  O  O254  1  0.88185961  0.01330974  0.24236057  1
  O  O255  1  0.86657276  -0.00559883  0.75066589  1
  O  O256  1  0.87153199  0.50363291  0.25576599  1
  O  O257  1  0.87452057  0.50758419  0.75756525  1
  O  O258  1  0.12300768  0.36416318  0.37731644  1
  O  O259  1  0.13809374  0.36066290  0.88611783  1
  O  O260  1  0.13473837  0.88031513  0.35831286  1
  O  O261  1  0.11497402  0.85800414  0.88141313  1
  O  O262  1  0.64229716  0.36041208  0.35943705  1
  O  O263  1  0.63660345  0.35923144  0.86524821  1
  O  O264  1  0.62902729  0.86091086  0.36691136  1
  O  O265  1  0.62015346  0.86785772  0.86834582  1
  O  O266  1  0.37091686  0.09307148  0.14052756  1
  O  O267  1  0.37446941  0.13522140  0.63621606  1
  O  O268  1  0.37958458  0.62028073  0.12412073  1
  O  O269  1  0.38805156  0.62574078  0.61146128  1
  O  O270  1  0.86122228  0.13540833  0.13966952  1
  O  O271  1  0.89137953  0.11569809  0.62245510  1
  O  O272  1  0.87739047  0.63692951  0.13676776  1
  O  O273  1  0.88136921  0.61772624  0.63958632  1
  O  O274  1  0.27443007  0.27076371  0.13057353  1
  O  O275  1  0.22272376  0.26603046  0.61581142  1
  O  O276  1  0.25229435  0.75939266  0.11540851  1
  O  O277  1  0.24207947  0.76221561  0.63875362  1
  O  O278  1  0.76022766  0.26017591  0.10854962  1
  O  O279  1  0.74925091  0.25860129  0.61249566  1
  O  O280  1  0.76068136  0.75495842  0.11494138  1
  O  O281  1  0.73636867  0.76190053  0.61055084  1
  O  O282  1  0.23478965  0.24154619  0.38544043  1
  O  O283  1  0.23997997  0.24120430  0.87224887  1
  O  O284  1  0.25695825  0.73392836  0.37114056  1
  O  O285  1  0.23621020  0.75051311  0.89011016  1
  O  O286  1  0.74696553  0.24098231  0.38264524  1
  O  O287  1  0.75443438  0.24311090  0.88231912  1
  O  O288  1  0.74305638  0.74918650  0.38588581  1
  O  O289  1  0.74244002  0.75871015  0.88815462  1
  O  O290  1  -0.00229435  0.10828172  -0.00041496  1
  O  O291  1  0.01415907  0.12244698  0.50479167  1
  O  O292  1  0.00918118  0.61540421  0.00044532  1
  O  O293  1  0.01143311  0.63578716  0.49827245  1
  O  O294  1  0.51741659  0.11191140  -0.01422604  1
  O  O295  1  0.51765935  0.11959588  0.50501385  1
  O  O296  1  0.50010572  0.61187574  0.01533238  1
  O  O297  1  0.50467460  0.62709280  0.49895049  1
  O  O298  1  0.55244564  0.42422948  0.48685677  1
  O  O299  1  0.50009942  0.39324980  0.99605454  1
  O  O300  1  0.48479934  0.89060379  0.51301371  1
  O  O301  1  0.50808174  0.88738219  0.98664958  1
  O  O302  1  0.98702579  0.36734132  0.50409806  1
  O  O303  1  0.99164926  0.39120791  1.01034363  1
  O  O304  1  1.00272388  0.86576823  0.47895429  1
  O  O305  1  0.99884419  0.87032965  0.98998566  1
  O  O306  1  0.49001450  0.49718979  0.32182532  1
  O  O307  1  0.51319467  0.51905762  0.88205586  1
  O  O308  1  0.48175695  1.01155788  0.39482042  1
  O  O309  1  0.51083192  0.98678543  0.87929750  1
  O  O310  1  0.98902747  0.49635773  0.36893297  1
  O  O311  1  0.99063845  0.50395049  0.88423344  1
  O  O312  1  1.00539501  0.98536199  0.36666950  1
  O  O313  1  1.00420294  0.98424351  0.88526499  1
  O  O314  1  0.00621615  -0.00935603  0.11418026  1
  O  O315  1  0.01772798  0.00252611  0.62820955  1
  O  O316  1  -0.00635949  0.50600884  0.11812854  1
  O  O317  1  0.00765347  0.50032897  0.62439246  1
  O  O318  1  0.50950189  -0.00722738  0.10091091  1
  O  O319  1  0.51510042  0.00166289  0.62303607  1
  O  O320  1  0.51681905  0.51530063  0.13202731  1
  O  O321  1  0.50089874  0.51462615  0.61866806  1
  O  O322  1  0.23065014  0.36353989  0.24116251  1
  O  O323  1  0.24239510  0.37470995  0.74817540  1
  O  O324  1  0.23734602  0.86561757  0.23777388  1
  O  O325  1  0.26129933  0.87903197  0.74039594  1
  O  O326  1  0.74857778  0.38080165  0.23743900  1
  O  O327  1  0.76464300  0.38235491  0.73844379  1
  O  O328  1  0.74945563  0.86825022  0.22907743  1
  O  O329  1  0.74788423  0.88758997  0.73967620  1
  O  O330  1  0.24643644  0.13446212  0.26867859  1
  O  O331  1  0.25662653  0.12137528  0.75708026  1
  O  O332  1  0.24291759  0.62291012  0.26415819  1
  O  O333  1  0.24788944  0.62973786  0.77483864  1
  O  O334  1  0.75949367  0.11933316  0.26219957  1
  O  O335  1  0.75030839  0.11125812  0.75314823  1
  O  O336  1  0.76237362  0.61417883  0.24123530  1
  O  O337  1  0.76358850  0.61470950  0.74052969  1
  O  O338  1  0.35440392  0.11636166  0.38493258  1
  O  O339  1  0.35921276  0.13409000  0.86187867  1
  O  O340  1  0.36483231  0.61490339  0.38363784  1
  O  O341  1  0.35144209  0.61592963  0.90066756  1
  O  O342  1  0.86433844  0.12967714  0.36277529  1
  O  O343  1  0.86405876  0.12104300  0.87610478  1
  O  O344  1  0.87987225  0.61097589  0.36266997  1
  O  O345  1  0.87578952  0.61752691  0.86117754  1
  O  O346  1  0.12684855  0.36488500  0.12670091  1
  O  O347  1  0.12641899  0.39047756  0.62270679  1
  O  O348  1  0.13165986  0.87789238  0.13663140  1
  O  O349  1  0.13750454  0.88506570  0.62036168  1
  O  O350  1  0.63686668  0.37646285  0.12671573  1
  O  O351  1  0.64000259  0.37441197  0.64024294  1
  O  O352  1  0.63944602  0.87142502  0.12138552  1
  O  O353  1  0.63437198  0.89124688  0.62222979  1
  O  O354  1  0.11315271  0.25906522  0.26503204  1
  O  O355  1  0.11779759  0.25569724  0.76107743  1
  O  O356  1  0.11137093  0.76007240  0.24409147  1
  O  O357  1  0.11119254  0.73971960  0.76790266  1
  O  O358  1  0.62230876  0.25144713  0.25891289  1
  O  O359  1  0.63415088  0.25705822  0.75890877  1
  O  O360  1  0.62257642  0.75789596  0.25516008  1
  O  O361  1  0.63784541  0.75722074  0.76379035  1
  O  O362  1  0.39037346  0.25187636  0.25583110  1
  O  O363  1  0.37564753  0.23894887  0.74243471  1
  O  O364  1  0.38993380  0.76098022  0.25554045  1
  O  O365  1  0.39140117  0.72754699  0.78773530  1
  O  O366  1  0.88017086  0.24994087  0.24341125  1
  O  O367  1  0.91860380  0.28314450  0.76103053  1
  O  O368  1  0.88132620  0.74173971  0.24391985  1
  O  O369  1  0.88066935  0.73982348  0.75377528  1
  O  O370  1  0.37183845  0.48227623  0.50216990  1
  O  O371  1  0.39551689  0.49226626  0.99643907  1
  O  O372  1  0.38013489  1.00211985  0.50525745  1
  O  O373  1  0.39148137  1.00499390  0.99353695  1
  O  O374  1  0.87195301  0.49292527  0.48465154  1
  O  O375  1  0.88505696  0.49938169  0.99701162  1
  O  O376  1  0.88024599  1.01228486  0.47834043  1
  O  O377  1  0.88994705  0.99561180  0.99813405  1
  O  O378  1  0.10797305  -0.01001539  0.00994591  1
  O  O379  1  0.12883253  0.00781493  0.50496385  1
  O  O380  1  0.11334965  0.50992949  0.00543031  1
  O  O381  1  0.12188014  0.51795051  0.51468203  1
  O  O382  1  0.63408434  0.01402162  -0.00927898  1
  O  O383  1  0.61626556  0.00505181  0.50751124  1
  O  O384  1  0.61807949  0.49513571  0.01186109  1
  O  O385  1  0.61254593  0.48193406  0.49796420  1
  O  O386  1  0.38837240  0.38494517  0.13438348  1
  O  O387  1  0.34112550  0.37165034  0.62961932  1
  O  O388  1  0.35380555  0.89514726  0.13424431  1
  O  O389  1  0.36527958  0.87440891  0.62080489  1
  O  O390  1  0.86650422  0.36992345  0.11674108  1
  O  O391  1  0.86589147  0.38632123  0.60451884  1
  O  O392  1  0.86716181  0.86074962  0.12900823  1
  O  O393  1  0.86175206  0.87350113  0.62840514  1
  O  O394  1  0.13038690  0.12418073  0.38518588  1
  O  O395  1  0.13867662  0.13618233  0.86764843  1
  O  O396  1  0.12568759  0.63037036  0.38552919  1
  O  O397  1  0.12978388  0.63537046  0.88950740  1
  O  O398  1  0.63697674  0.13490343  0.38182430  1
  O  O399  1  0.64059467  0.13737674  0.87523565  1
  O  O400  1  0.63044067  0.64328849  0.36466517  1
  O  O401  1  0.61903866  0.64267873  0.86428588  1
