# generated using pymatgen
data_V73Zn73O256
_symmetry_space_group_name_H-M   'P 1'
_cell_length_a   16.88594624
_cell_length_b   16.83985514
_cell_length_c   16.86412357
_cell_angle_alpha   89.89339930
_cell_angle_beta   89.86399001
_cell_angle_gamma   89.61418352
_symmetry_Int_Tables_number   1
_chemical_formula_structural   V73Zn73O256
_chemical_formula_sum   'V73 Zn73 O256'
_cell_volume   4795.29931713
_cell_formula_units_Z   1
loop_
 _symmetry_equiv_pos_site_id
 _symmetry_equiv_pos_as_xyz
  1  'x, y, z'
loop_
 _atom_site_type_symbol
 _atom_site_label
 _atom_site_symmetry_multiplicity
 _atom_site_fract_x
 _atom_site_fract_y
 _atom_site_fract_z
 _atom_site_occupancy
  V  V0  1  0.75764792  0.01739935  0.24327704  1
  V  V1  1  0.12202067  0.74648055  0.37867839  1
  V  V2  1  0.37215576  0.62873764  0.24217510  1
  V  V3  1  0.12149320  0.76069515  0.87017099  1
  V  V4  1  -0.00407901  0.61037899  0.61999760  1
  V  V5  1  -0.00053243  0.25115113  0.73096648  1
  V  V6  1  0.64171188  0.86723209  0.25695055  1
  V  V7  1  0.38440924  0.86330192  0.50223779  1
  V  V8  1  -0.01287132  0.87287610  0.39050899  1
  V  V9  1  0.12274094  0.87923701  0.23906889  1
  V  V10  1  0.50070587  0.00504062  0.50039950  1
  V  V11  1  -0.00205037  0.12158472  0.60741070  1
  V  V12  1  0.76883279  0.77255736  0.51313418  1
  V  V13  1  0.24852876  0.74193049  0.51407346  1
  V  V14  1  -0.01047794  0.74430780  0.74237301  1
  V  V15  1  0.74612989  0.75667172  0.00147745  1
  V  V16  1  0.75281477  0.62737555  0.86262190  1
  V  V17  1  0.37093532  0.12033177  0.73997433  1
  V  V18  1  0.24377921  0.49629595  0.24390084  1
  V  V19  1  0.12046099  0.36865154  0.24320542  1
  V  V20  1  0.61757591  0.75145132  0.87427488  1
  V  V21  1  0.50358256  0.13437762  0.62041059  1
  V  V22  1  0.24525288  0.62754483  0.37695978  1
  V  V23  1  0.58579170  0.50566443  0.58718528  1
  V  V24  1  0.61847226  0.24249262  0.37457467  1
  V  V25  1  0.87797906  0.87561849  -0.02502490  1
  V  V26  1  0.26757708  0.25963145  0.49649378  1
  V  V27  1  0.14404990  0.37599944  0.74788364  1
  V  V28  1  0.86842507  0.76170810  0.12570068  1
  V  V29  1  0.62246883  0.12604034  -0.00977869  1
  V  V30  1  0.62563655  -0.00388058  0.11853048  1
  V  V31  1  0.38142297  0.00006609  0.37048499  1
  V  V32  1  0.48983234  0.75162986  0.73547352  1
  V  V33  1  0.86038416  0.62102855  0.25076743  1
  V  V34  1  0.24385671  0.77104227  0.00082304  1
  V  V35  1  0.37377056  0.62806834  0.74253073  1
  V  V36  1  -0.00447628  0.75025784  0.25051825  1
  V  V37  1  0.50899277  0.25417805  0.77023635  1
  V  V38  1  0.61268995  0.38842573  0.24368155  1
  V  V39  1  0.37991232  0.49992717  0.38353930  1
  V  V40  1  0.37784012  0.49669816  0.86717366  1
  V  V41  1  0.00915827  0.01536836  0.00570699  1
  V  V42  1  -0.00684293  0.38928158  0.38206980  1
  V  V43  1  0.25011170  0.24988855  0.01011802  1
  V  V44  1  0.86204557  0.02425994  0.86688566  1
  V  V45  1  0.75371085  0.46701705  0.76240587  1
  V  V46  1  0.24918663  0.62384364  0.88259664  1
  V  V47  1  0.49453442  0.37013168  0.38591627  1
  V  V48  1  0.01406819  0.35390970  0.88244591  1
  V  V49  1  0.49482827  0.50148492  -0.00113351  1
  V  V50  1  0.86263973  0.50495539  0.37829242  1
  V  V51  1  0.89282823  0.50554752  0.88226333  1
  V  V52  1  0.62247887  0.62186523  0.00074630  1
  V  V53  1  0.36851002  0.77316311  0.11661257  1
  V  V54  1  0.74693886  0.38947092  0.13219471  1
  V  V55  1  0.38014954  0.36960195  0.00886208  1
  V  V56  1  0.87718753  0.23748405  0.13965925  1
  V  V57  1  0.24411162  0.89892768  0.62654309  1
  V  V58  1  0.74660064  0.25008051  -0.00380094  1
  V  V59  1  0.49578760  0.77186191  0.25360161  1
  V  V60  1  0.24193876  0.13183927  0.86776357  1
  V  V61  1  0.75063906  0.13261218  0.39344438  1
  V  V62  1  0.14826130  0.50527074  0.61280690  1
  V  V63  1  0.49052693  0.88208978  0.88981002  1
  V  V64  1  0.37032784  0.00124195  0.88566005  1
  V  V65  1  0.11311750  0.25592074  0.38970738  1
  V  V66  1  0.62473162  0.87644230  0.74512235  1
  V  V67  1  0.62996325  -0.00513651  0.62409479  1
  V  V68  1  0.49925178  0.62693081  0.12438953  1
  V  V69  1  0.00492051  0.62222172  0.11455782  1
  V  V70  1  0.20444927  0.08929475  0.39989570  1
  V  V71  1  0.86779960  0.00089125  0.39342966  1
  V  V72  1  0.24246057  -0.00434176  0.24715889  1
  Zn  Zn73  1  0.85557730  0.28359651  0.61604627  1
  Zn  Zn74  1  0.31944587  0.30853003  0.66138659  1
  Zn  Zn75  1  0.11437798  0.88879468  0.73516218  1
  Zn  Zn76  1  0.89102003  0.37883501  0.01186222  1
  Zn  Zn77  1  0.50046965  0.12950154  0.13513490  1
  Zn  Zn78  1  0.10944370  0.49102345  0.10134367  1
  Zn  Zn79  1  0.38375771  0.25994790  0.15042509  1
  Zn  Zn80  1  0.69583742  0.62383640  0.45654765  1
  Zn  Zn81  1  0.12459854  0.13011959  -0.00405458  1
  Zn  Zn82  1  0.23567944  0.19906516  0.22363187  1
  Zn  Zn83  1  0.17579895  0.18727484  0.67638384  1
  Zn  Zn84  1  0.18649399  0.69190526  0.18435159  1
  Zn  Zn85  1  0.18453768  0.67979644  0.69604018  1
  Zn  Zn86  1  0.68273033  0.19629091  0.18635191  1
  Zn  Zn87  1  0.69649382  0.19316153  0.70835820  1
  Zn  Zn88  1  0.68266635  0.68977203  0.18616832  1
  Zn  Zn89  1  0.72596428  0.62830105  0.64026495  1
  Zn  Zn90  1  0.30297382  0.31727258  0.33001991  1
  Zn  Zn91  1  0.32947309  0.30390235  0.82529337  1
  Zn  Zn92  1  0.31319132  0.81731480  0.31394928  1
  Zn  Zn93  1  0.30683189  0.81718854  0.80830868  1
  Zn  Zn94  1  0.80760283  0.31655068  0.31073244  1
  Zn  Zn95  1  0.83164798  0.30757275  0.82646136  1
  Zn  Zn96  1  0.80618718  0.79170735  0.33442276  1
  Zn  Zn97  1  0.83091790  0.83877342  0.76406852  1
  Zn  Zn98  1  0.19118551  0.43748460  0.43485931  1
  Zn  Zn99  1  0.18882031  0.43025361  0.93363442  1
  Zn  Zn100  1  0.18904698  0.91523005  0.43588064  1
  Zn  Zn101  1  0.15307552  0.97332652  0.88745088  1
  Zn  Zn102  1  0.68248993  0.43955319  0.42709403  1
  Zn  Zn103  1  0.68702628  0.43901634  0.94199697  1
  Zn  Zn104  1  0.68446205  0.93560164  0.43479547  1
  Zn  Zn105  1  0.69029795  0.94252131  0.92615030  1
  Zn  Zn106  1  0.31015306  0.06868227  0.06314558  1
  Zn  Zn107  1  0.31754642  0.06776335  0.55457979  1
  Zn  Zn108  1  0.27626149  0.54159871  0.03851340  1
  Zn  Zn109  1  0.36380321  0.49466686  0.60037928  1
  Zn  Zn110  1  0.81013318  0.06306601  0.05862907  1
  Zn  Zn111  1  0.79709639  0.09876793  0.59664316  1
  Zn  Zn112  1  0.81535745  0.56804070  0.06033492  1
  Zn  Zn113  1  0.81192874  0.47620939  0.56235869  1
  Zn  Zn114  1  0.43341592  0.44353127  0.18794584  1
  Zn  Zn115  1  0.49441431  0.35909834  0.61606536  1
  Zn  Zn116  1  0.41936112  0.97620535  0.16661653  1
  Zn  Zn117  1  0.43218939  0.93526279  0.68565192  1
  Zn  Zn118  1  0.93556186  0.43590832  0.19121437  1
  Zn  Zn119  1  0.94691733  0.44391256  0.69705838  1
  Zn  Zn120  1  0.93516468  0.94140399  0.19018316  1
  Zn  Zn121  1  0.93197805  0.93770927  0.67494343  1
  Zn  Zn122  1  0.03881466  0.06297248  0.43299946  1
  Zn  Zn123  1  0.01656842  0.04661409  0.79225123  1
  Zn  Zn124  1  0.05969049  0.56568992  0.30613826  1
  Zn  Zn125  1  0.07527993  0.56361536  0.80448171  1
  Zn  Zn126  1  0.57032869  0.05090876  0.31339474  1
  Zn  Zn127  1  0.55889152  0.06399347  0.80819515  1
  Zn  Zn128  1  0.55792185  0.56684303  0.31450025  1
  Zn  Zn129  1  0.57947749  0.57610237  0.77232248  1
  Zn  Zn130  1  0.43287346  0.18310568  0.30669667  1
  Zn  Zn131  1  0.44248196  0.18030365  0.94026057  1
  Zn  Zn132  1  0.43507144  0.69015803  0.43134686  1
  Zn  Zn133  1  0.43076029  0.69071343  0.93724228  1
  Zn  Zn134  1  0.92282101  0.20780285  0.43737429  1
  Zn  Zn135  1  0.93179879  0.18869331  0.95206198  1
  Zn  Zn136  1  0.92183114  0.66953308  0.45651737  1
  Zn  Zn137  1  0.93707262  0.69232430  0.93167016  1
  Zn  Zn138  1  0.06251893  0.30587215  0.07013464  1
  Zn  Zn139  1  0.06293008  0.33735811  0.56431933  1
  Zn  Zn140  1  0.05798681  0.81223699  0.05604544  1
  Zn  Zn141  1  0.06188129  0.80333157  0.56942883  1
  Zn  Zn142  1  0.56054906  0.30794865  0.06609570  1
  Zn  Zn143  1  0.68297051  0.32454575  0.56101967  1
  Zn  Zn144  1  0.56259371  0.81931896  0.07103120  1
  Zn  Zn145  1  0.57484382  0.79950655  0.55927137  1
  O  O146  1  0.12585299  0.13495486  0.14529850  1
  O  O147  1  0.09978529  0.13127136  0.61468708  1
  O  O148  1  0.10712943  0.62983667  0.12979946  1
  O  O149  1  0.12911372  0.60984975  0.62924209  1
  O  O150  1  0.62762685  0.11048345  0.12402061  1
  O  O151  1  0.60667158  0.10444309  0.63098601  1
  O  O152  1  0.61003140  0.63712297  0.11322149  1
  O  O153  1  0.61601790  0.57881576  0.65913608  1
  O  O154  1  0.38414903  0.38932556  0.36598387  1
  O  O155  1  0.37356268  0.39140863  0.88435159  1
  O  O156  1  0.36872921  0.87954815  0.39543271  1
  O  O157  1  0.38006846  0.88822369  0.86918354  1
  O  O158  1  0.88348536  0.39221377  0.35821676  1
  O  O159  1  0.90147181  0.38596648  0.88440625  1
  O  O160  1  0.88163298  0.87692595  0.37570324  1
  O  O161  1  0.87266755  0.86937016  0.87545170  1
  O  O162  1  0.26306344  -0.00705870  0.37846182  1
  O  O163  1  0.26230086  0.01839593  0.87383694  1
  O  O164  1  0.25633754  0.51014039  0.36493125  1
  O  O165  1  0.26467045  0.51504989  0.88013075  1
  O  O166  1  0.75249962  0.00937345  0.36946059  1
  O  O167  1  0.76339490  -0.00100393  0.86049578  1
  O  O168  1  0.76095829  0.50977690  0.37451555  1
  O  O169  1  0.75372097  0.51367851  0.87504029  1
  O  O170  1  0.25847271  0.50806193  0.14613269  1
  O  O171  1  0.24768068  0.50001714  0.62587701  1
  O  O172  1  0.24933030  1.01062140  0.14953968  1
  O  O173  1  0.24612319  0.99828110  0.61282289  1
  O  O174  1  0.74977427  0.48892436  0.11543353  1
  O  O175  1  0.74507141  0.48927617  0.66552749  1
  O  O176  1  0.74956930  1.00237818  0.14006557  1
  O  O177  1  0.72704013  1.00152101  0.61276415  1
  O  O178  1  0.01618780  0.37968442  0.25526913  1
  O  O179  1  0.01556523  0.37112071  0.76660143  1
  O  O180  1  0.00415685  0.86740277  0.25676641  1
  O  O181  1  0.00287207  0.85212569  0.72918260  1
  O  O182  1  0.50744374  0.37918090  0.24904427  1
  O  O183  1  0.50214809  0.34877223  0.73816218  1
  O  O184  1  0.50168235  0.87103892  0.23981270  1
  O  O185  1  0.49757858  0.86436284  0.75588321  1
  O  O186  1  0.50295606  0.11399188  0.25190564  1
  O  O187  1  0.48851094  0.12962302  0.73827700  1
  O  O188  1  0.49140520  0.63508190  0.24180150  1
  O  O189  1  0.48734037  0.64283460  0.76047861  1
  O  O190  1  1.06455105  0.12136009  0.18378638  1
  O  O191  1  0.99932455  0.14612802  0.73291668  1
  O  O192  1  0.99150611  0.63860997  0.24199405  1
  O  O193  1  1.01479345  0.63752752  0.74283953  1
  O  O194  1  0.37807100  0.26351518  -0.00232250  1
  O  O195  1  0.36220017  0.24601181  0.48100914  1
  O  O196  1  0.36695624  0.75658607  0.01140454  1
  O  O197  1  0.36414348  0.75523242  0.49704211  1
  O  O198  1  0.86083040  0.25936305  0.01243387  1
  O  O199  1  0.85467868  0.27188757  0.49847178  1
  O  O200  1  0.86688394  0.76020531  0.00275513  1
  O  O201  1  0.86979954  0.75318850  0.51201531  1
  O  O202  1  0.12043427  0.26306650  0.49020896  1
  O  O203  1  0.14583494  0.24794550  1.01403508  1
  O  O204  1  0.13981841  0.75440983  0.48982129  1
  O  O205  1  0.13564837  0.75297903  0.99114209  1
  O  O206  1  0.62903715  0.26415275  0.47184854  1
  O  O207  1  0.63287899  0.23842567  1.00438831  1
  O  O208  1  0.65721954  0.72741742  0.53112041  1
  O  O209  1  0.62579563  0.74678833  0.99263226  1
  O  O210  1  0.49211895  0.24503187  0.12882070  1
  O  O211  1  0.50738686  0.23323656  0.61684542  1
  O  O212  1  0.48432211  0.74807582  0.12765671  1
  O  O213  1  0.49999395  0.75072092  0.63738418  1
  O  O214  1  0.97686886  0.25773480  0.12216985  1
  O  O215  1  1.00064306  0.26248922  0.62772351  1
  O  O216  1  0.98893078  0.74579207  0.13274546  1
  O  O217  1  1.00453897  0.73048035  0.63418531  1
  O  O218  1  0.00581856  0.26802223  0.37394025  1
  O  O219  1  -0.00033756  0.25356597  0.87391938  1
  O  O220  1  0.00127997  0.75691542  0.36857734  1
  O  O221  1  0.01663050  0.74035991  0.86438733  1
  O  O222  1  0.50621853  0.26065154  0.36644217  1
  O  O223  1  0.49243268  0.25520242  0.87042184  1
  O  O224  1  0.48305939  0.76069612  0.35157752  1
  O  O225  1  0.50118924  0.76388960  0.87688942  1
  O  O226  1  0.25234075  0.13072781  0.48024345  1
  O  O227  1  0.24814891  0.13094272  0.98990768  1
  O  O228  1  0.25653946  0.63859753  0.48338229  1
  O  O229  1  0.26198304  0.64373687  0.98488766  1
  O  O230  1  0.74578521  0.12350918  0.49183744  1
  O  O231  1  0.73943617  0.14059702  1.00650361  1
  O  O232  1  0.76735514  0.58941098  0.53987074  1
  O  O233  1  0.73776462  0.63252279  0.99378336  1
  O  O234  1  0.26415531  0.35744016  -0.00456093  1
  O  O235  1  0.25562421  0.36153577  0.49051450  1
  O  O236  1  0.24894653  0.86714011  -0.00305717  1
  O  O237  1  0.25663467  0.86013329  0.51120334  1
  O  O238  1  0.73551557  0.36573361  0.01485435  1
  O  O239  1  0.75216993  0.39366252  0.50245744  1
  O  O240  1  0.75467825  0.86142949  -0.01329285  1
  O  O241  1  0.75114250  0.87097329  0.49847394  1
  O  O242  1  0.13577520  0.49685360  0.24748216  1
  O  O243  1  0.14106096  0.47993856  0.76061391  1
  O  O244  1  0.12995427  0.98294500  0.25647943  1
  O  O245  1  0.11340524  0.99206669  0.78134923  1
  O  O246  1  0.62029812  0.49016465  0.25635858  1
  O  O247  1  0.63545407  0.47235394  0.78734623  1
  O  O248  1  0.64401418  0.98657311  0.24385482  1
  O  O249  1  0.61276057  0.98617565  0.73850766  1
  O  O250  1  0.35828271  -0.02311537  0.26726227  1
  O  O251  1  0.37626673  0.01572539  0.75290453  1
  O  O252  1  0.36515387  0.51129288  0.25691935  1
  O  O253  1  0.38428652  0.51404914  0.76613850  1
  O  O254  1  0.85760800  -0.00950267  0.26057192  1
  O  O255  1  0.90397026  0.00543719  0.77255241  1
  O  O256  1  0.87353365  0.51773264  0.24935690  1
  O  O257  1  0.86386918  0.48924508  0.77658650  1
  O  O258  1  0.11370260  0.37369731  0.36748860  1
  O  O259  1  0.12106575  0.36874159  0.86834185  1
  O  O260  1  0.10949095  0.86338637  0.36801731  1
  O  O261  1  0.12506888  0.86038557  0.87889306  1
  O  O262  1  0.60809721  0.37544071  0.36454654  1
  O  O263  1  0.61539546  0.42152549  0.84880526  1
  O  O264  1  0.62175880  0.88024022  0.35515555  1
  O  O265  1  0.60680066  0.87462058  0.86877319  1
  O  O266  1  0.39166817  0.08623242  0.13580394  1
  O  O267  1  0.38519966  0.12031601  0.63235006  1
  O  O268  1  0.37973291  0.63803959  0.13564464  1
  O  O269  1  0.36914920  0.61233622  0.64585616  1
  O  O270  1  0.86938463  0.13714207  0.12209833  1
  O  O271  1  0.88944326  0.16289532  0.60920668  1
  O  O272  1  0.88063896  0.63471793  0.13450368  1
  O  O273  1  0.90001817  0.59782732  0.63654934  1
  O  O274  1  0.27182685  0.22982371  0.11108434  1
  O  O275  1  0.25170980  0.23753672  0.60354077  1
  O  O276  1  0.25853257  0.75206714  0.11488211  1
  O  O277  1  0.24641060  0.73996971  0.61303809  1
  O  O278  1  0.75589507  0.26194200  0.12105988  1
  O  O279  1  0.74131845  0.26054201  0.63108832  1
  O  O280  1  0.75587293  0.74209886  0.11064221  1
  O  O281  1  0.74118124  0.74329236  0.61666670  1
  O  O282  1  0.22767879  0.24773927  0.38565779  1
  O  O283  1  0.26385109  0.23546929  0.89242025  1
  O  O284  1  0.24002577  0.74550043  0.37432837  1
  O  O285  1  0.24601293  0.75027995  0.88482908  1
  O  O286  1  0.74487556  0.23639988  0.37118945  1
  O  O287  1  0.75625328  0.25906477  0.89664139  1
  O  O288  1  0.75196629  0.72817849  0.41338889  1
  O  O289  1  0.73613357  0.73725499  0.88252574  1
  O  O290  1  0.00833584  0.12278880  0.00887075  1
  O  O291  1  -0.01073332  0.13612144  0.49968539  1
  O  O292  1  -0.00799405  0.63571596  0.01616931  1
  O  O293  1  0.00557369  0.62524422  0.51730269  1
  O  O294  1  0.51906242  0.12602941  0.00795604  1
  O  O295  1  0.49603731  0.10800031  0.50965436  1
  O  O296  1  0.50255292  0.62519895  0.00576735  1
  O  O297  1  0.53613709  0.64281135  0.46028586  1
  O  O298  1  0.49559866  0.37011223  0.48232912  1
  O  O299  1  0.49052662  0.38719258  1.00600939  1
  O  O300  1  0.48745245  0.86683255  0.51003963  1
  O  O301  1  0.49981674  0.87637447  0.98861319  1
  O  O302  1  0.99855235  0.38565936  0.48153916  1
  O  O303  1  1.01285683  0.37239589  0.98710871  1
  O  O304  1  1.00314387  0.86728265  0.48827652  1
  O  O305  1  0.97968960  0.87520427  0.99663944  1
  O  O306  1  0.48573484  0.49285427  0.37269388  1
  O  O307  1  0.48312421  0.51304883  0.89188126  1
  O  O308  1  0.49429115  0.99410982  0.38881426  1
  O  O309  1  0.48781750  0.98930516  0.86958221  1
  O  O310  1  0.99442707  0.49332110  0.36353145  1
  O  O311  1  0.99249014  0.51511319  0.87396071  1
  O  O312  1  0.97953438  0.98528421  0.37525548  1
  O  O313  1  0.97714813  1.00951959  0.90344648  1
  O  O314  1  -0.01605537  -0.00607544  0.10298861  1
  O  O315  1  -0.01753319  0.02211658  0.61940853  1
  O  O316  1  -0.00223966  0.51588956  0.12827567  1
  O  O317  1  0.02755313  0.50649780  0.64209974  1
  O  O318  1  0.52531315  -0.00684970  0.12299081  1
  O  O319  1  0.49896712  0.00023809  0.61302991  1
  O  O320  1  0.48872188  0.51815636  0.11437809  1
  O  O321  1  0.48664344  0.51335839  0.58623339  1
  O  O322  1  0.23987836  0.39102503  0.25991814  1
  O  O323  1  0.24540801  0.35025200  0.75296242  1
  O  O324  1  0.23256563  0.87957905  0.25639323  1
  O  O325  1  0.25153527  0.87883704  0.72877086  1
  O  O326  1  0.73770786  0.38081273  0.23880926  1
  O  O327  1  0.75048314  0.36861818  0.77091189  1
  O  O328  1  0.74258272  0.85658605  0.25819607  1
  O  O329  1  0.72033287  0.86515657  0.76492018  1
  O  O330  1  0.23177011  0.09903134  0.28595410  1
  O  O331  1  0.26207695  0.13923300  0.75654361  1
  O  O332  1  0.25374458  0.62320127  0.25688193  1
  O  O333  1  0.26755517  0.63901207  0.76750825  1
  O  O334  1  0.74743789  0.11725702  0.25709114  1
  O  O335  1  0.77669817  0.11675316  0.70839792  1
  O  O336  1  0.76075920  0.63586949  0.24922917  1
  O  O337  1  0.74319685  0.62540870  0.76342942  1
  O  O338  1  0.37646272  0.09952767  0.37379854  1
  O  O339  1  0.37702895  0.11489016  0.86436162  1
  O  O340  1  0.36849522  0.61998567  0.36234011  1
  O  O341  1  0.36840756  0.61996642  0.87151417  1
  O  O342  1  0.86199561  0.11300683  0.38061912  1
  O  O343  1  0.86614825  0.12391405  0.88310974  1
  O  O344  1  0.88253864  0.61893883  0.35856532  1
  O  O345  1  0.86042521  0.61908874  0.88151182  1
  O  O346  1  0.12352220  0.37757877  0.13888754  1
  O  O347  1  0.13030343  0.38860297  0.64084619  1
  O  O348  1  0.11544248  0.86908815  0.14003697  1
  O  O349  1  0.14077879  0.87483459  0.61725647  1
  O  O350  1  0.62990241  0.37420082  0.13656881  1
  O  O351  1  0.60286068  0.40254369  0.60688871  1
  O  O352  1  0.63417578  0.88471622  0.13397721  1
  O  O353  1  0.61781934  0.87984035  0.63717403  1
  O  O354  1  0.14043957  0.26686797  0.25815919  1
  O  O355  1  0.11274761  0.26380798  0.74214146  1
  O  O356  1  0.11550286  0.75766422  0.25721528  1
  O  O357  1  0.13139065  0.75926895  0.76290455  1
  O  O358  1  0.63142930  0.26850074  0.26548533  1
  O  O359  1  0.60741032  0.22599933  0.76208058  1
  O  O360  1  0.60840775  0.76089034  0.24071640  1
  O  O361  1  0.60442180  0.75919915  0.76255235  1
  O  O362  1  0.34395226  0.23821679  0.25705118  1
  O  O363  1  0.38558201  0.23724494  0.74659395  1
  O  O364  1  0.37682286  0.75167200  0.23765810  1
  O  O365  1  0.38263707  0.74469363  0.75220131  1
  O  O366  1  0.86681626  0.24857724  0.24019277  1
  O  O367  1  0.89689711  0.27095997  0.74295874  1
  O  O368  1  0.87830171  0.74460510  0.24661708  1
  O  O369  1  0.89092666  0.74043537  0.76049182  1
  O  O370  1  0.36441701  0.50859648  0.47973731  1
  O  O371  1  0.37543727  0.48983002  0.99578855  1
  O  O372  1  0.38585514  0.98850450  0.49268536  1
  O  O373  1  0.37365223  1.00389387  0.98402190  1
  O  O374  1  0.88568810  0.51070935  0.47398286  1
  O  O375  1  0.87167251  0.49665822  0.98692747  1
  O  O376  1  0.86305789  0.99693509  0.48942788  1
  O  O377  1  0.85865747  0.98358984  0.98720802  1
  O  O378  1  0.11246947  0.00354296  -0.00536917  1
  O  O379  1  0.14215121  0.02018153  0.45202724  1
  O  O380  1  0.16904647  0.50664098  0.01072234  1
  O  O381  1  0.13277759  0.49478447  0.51321886  1
  O  O382  1  0.64480869  0.00846125  0.01245959  1
  O  O383  1  0.60710151  -0.01662536  0.50990738  1
  O  O384  1  0.61193034  0.51529106  -0.00408497  1
  O  O385  1  0.62778397  0.52108381  0.49258603  1
  O  O386  1  0.37296709  0.37782911  0.11242796  1
  O  O387  1  0.38564912  0.38456385  0.61928478  1
  O  O388  1  0.37592442  0.87135916  0.12634010  1
  O  O389  1  0.35971579  0.88120039  0.60981784  1
  O  O390  1  0.86023818  0.37379604  0.12779684  1
  O  O391  1  0.87963329  0.39823136  0.62020921  1
  O  O392  1  0.87244144  0.86286923  0.12358769  1
  O  O393  1  0.84266866  0.87611411  0.65772171  1
  O  O394  1  0.11210560  0.14593444  0.37528102  1
  O  O395  1  0.14284401  0.12963839  0.87130606  1
  O  O396  1  0.13132199  0.63639103  0.36594976  1
  O  O397  1  0.14546633  0.63519527  0.86898895  1
  O  O398  1  0.63443097  0.13367188  0.37242079  1
  O  O399  1  0.62326696  0.10971363  0.89093997  1
  O  O400  1  0.59198276  0.64397683  0.39714675  1
  O  O401  1  0.62795819  0.63384227  0.87898630  1
