# generated using pymatgen
data_V73Zn73O256
_symmetry_space_group_name_H-M   'P 1'
_cell_length_a   16.94029110
_cell_length_b   16.98491894
_cell_length_c   17.00183916
_cell_angle_alpha   89.97845565
_cell_angle_beta   89.89568672
_cell_angle_gamma   89.95752556
_symmetry_Int_Tables_number   1
_chemical_formula_structural   V73Zn73O256
_chemical_formula_sum   'V73 Zn73 O256'
_cell_volume   4891.92039553
_cell_formula_units_Z   1
loop_
 _symmetry_equiv_pos_site_id
 _symmetry_equiv_pos_as_xyz
  1  'x, y, z'
loop_
 _atom_site_type_symbol
 _atom_site_label
 _atom_site_symmetry_multiplicity
 _atom_site_fract_x
 _atom_site_fract_y
 _atom_site_fract_z
 _atom_site_occupancy
  V  V0  1  0.48877481  0.76006923  0.74765965  1
  V  V1  1  0.49529003  0.12146292  0.12942886  1
  V  V2  1  -0.00421202  0.88576253  0.37389727  1
  V  V3  1  0.00662860  0.26536547  0.75895964  1
  V  V4  1  0.87377377  0.11741368  0.25488653  1
  V  V5  1  0.25793102  0.25811223  0.00616210  1
  V  V6  1  0.86857435  0.25574903  0.12475808  1
  V  V7  1  0.87082937  0.62829300  0.74334201  1
  V  V8  1  0.75152775  -0.00585405  0.73958217  1
  V  V9  1  0.37548361  0.25737505  0.13455734  1
  V  V10  1  0.60694085  0.62397202  -0.00563171  1
  V  V11  1  0.26141418  0.00952272  0.24769240  1
  V  V12  1  0.39096633  -0.00441373  0.39704801  1
  V  V13  1  0.25210687  0.12245060  0.87770261  1
  V  V14  1  0.71975942  0.64780261  0.41251441  1
  V  V15  1  0.74567188  0.13603119  0.37625079  1
  V  V16  1  0.89161518  -0.01309294  0.85940004  1
  V  V17  1  0.24399479  0.12131956  0.38817191  1
  V  V18  1  0.00080434  0.49698356  -0.00600365  1
  V  V19  1  0.62003639  0.13099175  0.49344668  1
  V  V20  1  0.25392664  0.86614011  0.13263819  1
  V  V21  1  0.34679948  0.62329078  0.73441414  1
  V  V22  1  0.15227814  0.38710893  0.23441884  1
  V  V23  1  0.37196119  0.76432298  0.60644115  1
  V  V24  1  0.50804869  0.25714697  0.74853392  1
  V  V25  1  0.48832871  0.62730909  0.14866652  1
  V  V26  1  0.86126477  0.63132107  0.25388111  1
  V  V27  1  0.38258207  0.12130504  0.75220266  1
  V  V28  1  -0.01791778  0.50990071  0.44851830  1
  V  V29  1  0.12489263  0.26507591  0.88053850  1
  V  V30  1  0.75311604  0.12274461  0.87699515  1
  V  V31  1  0.75171493  0.86690143  0.12666084  1
  V  V32  1  0.74849238  -0.01336434  0.26109711  1
  V  V33  1  0.12722559  -0.00736984  0.13155444  1
  V  V34  1  0.74221665  0.74949399  -0.01286688  1
  V  V35  1  0.49997366  0.11465298  0.61952414  1
  V  V36  1  0.37769142  -0.00849566  0.87659128  1
  V  V37  1  0.37742251  0.86781012  0.00303142  1
  V  V38  1  0.48432793  0.59710103  0.62504072  1
  V  V39  1  0.62898327  0.12106923  0.00237290  1
  V  V40  1  0.50254857  -0.00521836  0.00183172  1
  V  V41  1  0.49791206  0.76453133  0.26821383  1
  V  V42  1  0.63167794  0.50620212  0.13592129  1
  V  V43  1  -0.00935339  0.76686509  0.22821856  1
  V  V44  1  -0.00081342  0.12311392  0.12754705  1
  V  V45  1  0.11004420  0.75626718  0.87203322  1
  V  V46  1  0.22058085  0.75993597  0.49721838  1
  V  V47  1  0.12363282  0.00745183  0.61413755  1
  V  V48  1  0.36375182  0.24325181  0.61103074  1
  V  V49  1  0.75038541  0.46738119  0.71808216  1
  V  V50  1  0.62931713  -0.00576989  0.62165000  1
  V  V51  1  0.00492010  0.26103823  0.25038012  1
  V  V52  1  0.74653897  0.59900727  0.87520325  1
  V  V53  1  0.87428494  0.86907716  -0.00106031  1
  V  V54  1  0.24995954  0.62439405  0.36778866  1
  V  V55  1  0.51354876  0.25673791  0.25753954  1
  V  V56  1  0.24438050  0.61778715  0.86513283  1
  V  V57  1  0.10665688  0.48925243  0.65822980  1
  V  V58  1  0.12697032  0.12215064  0.00184979  1
  V  V59  1  0.87947399  0.13646732  0.74882342  1
  V  V60  1  0.11999915  0.75960713  0.34891226  1
  V  V61  1  -0.01492749  0.60760724  0.12605456  1
  V  V62  1  -0.01517592  0.01023120  0.49967308  1
  V  V63  1  0.62824407  -0.00767957  0.12950738  1
  V  V64  1  0.12734556  0.24884077  0.38123706  1
  V  V65  1  0.15800260  0.60631750  0.05265693  1
  V  V66  1  0.23863182  0.88036174  0.62096978  1
  V  V67  1  -0.00168131  -0.00705673  -0.00125689  1
  V  V68  1  0.88573918  0.84904030  0.51529868  1
  V  V69  1  0.87089173  0.38119520  -0.00819369  1
  V  V70  1  0.25583015  0.74983435  -0.00627478  1
  V  V71  1  0.23986087  -0.00458303  0.75101853  1
  V  V72  1  0.00853903  0.13552085  0.62448553  1
  Zn  Zn73  1  0.66152756  0.38243299  0.25235776  1
  Zn  Zn74  1  0.74715953  0.25442505  0.00328175  1
  Zn  Zn75  1  0.54779489  0.82751790  0.90139141  1
  Zn  Zn76  1  0.38248980  0.39721602  0.49168769  1
  Zn  Zn77  1  0.59745297  0.58160287  0.50816535  1
  Zn  Zn78  1  0.62105734  0.24881470  0.87378645  1
  Zn  Zn79  1  0.82581567  0.30482248  0.62435561  1
  Zn  Zn80  1  0.46078426  0.45514588  0.92891639  1
  Zn  Zn81  1  -0.00931442  0.63189601  0.60899511  1
  Zn  Zn82  1  0.18847701  0.18776061  0.18701300  1
  Zn  Zn83  1  0.18603404  0.19401552  0.69411895  1
  Zn  Zn84  1  0.31721376  0.68712007  0.19387987  1
  Zn  Zn85  1  0.15345268  0.70543908  0.68613051  1
  Zn  Zn86  1  0.68423425  0.18220075  0.19289340  1
  Zn  Zn87  1  0.68610912  0.18641595  0.68493231  1
  Zn  Zn88  1  0.67439686  0.69725868  0.18231114  1
  Zn  Zn89  1  0.65688291  0.64942784  0.70717709  1
  Zn  Zn90  1  0.31434220  0.31009031  0.31631476  1
  Zn  Zn91  1  0.33081330  0.33230062  0.78315345  1
  Zn  Zn92  1  0.31957163  0.81714718  0.31992742  1
  Zn  Zn93  1  0.30785194  0.81080440  0.80847738  1
  Zn  Zn94  1  0.81940495  0.30300196  0.31986990  1
  Zn  Zn95  1  0.80998104  0.31179472  0.81880083  1
  Zn  Zn96  1  0.81665273  0.80570721  0.32340301  1
  Zn  Zn97  1  0.81134426  0.81183400  0.80900677  1
  Zn  Zn98  1  0.20860381  0.42245251  0.41336801  1
  Zn  Zn99  1  0.29464117  0.43226655  0.92747698  1
  Zn  Zn100  1  0.17968851  0.93854310  0.43334550  1
  Zn  Zn101  1  0.18844572  0.93427109  0.94085462  1
  Zn  Zn102  1  0.81158037  0.48262871  0.35186996  1
  Zn  Zn103  1  0.67831368  0.43593621  0.95979545  1
  Zn  Zn104  1  0.72427780  0.95407738  0.46768768  1
  Zn  Zn105  1  0.69900068  0.93746237  0.93534921  1
  Zn  Zn106  1  0.31714089  0.06160709  0.06327657  1
  Zn  Zn107  1  0.31136555  0.06290105  0.56119004  1
  Zn  Zn108  1  0.33407801  0.56374922  0.04639681  1
  Zn  Zn109  1  0.29709901  0.57847361  0.54245907  1
  Zn  Zn110  1  0.81530631  0.05551151  0.06378239  1
  Zn  Zn111  1  0.80435135  0.10793365  0.57568761  1
  Zn  Zn112  1  0.81273481  0.56744795  0.06417322  1
  Zn  Zn113  1  0.82371292  0.54939537  0.55042386  1
  Zn  Zn114  1  0.45670939  0.43101172  0.17367078  1
  Zn  Zn115  1  0.29703869  0.43067577  0.64708363  1
  Zn  Zn116  1  0.43916093  0.93086539  0.19293545  1
  Zn  Zn117  1  0.43106627  0.93873657  0.68149997  1
  Zn  Zn118  1  0.91704432  0.43954773  0.19873913  1
  Zn  Zn119  1  0.92769801  0.44949611  0.69561915  1
  Zn  Zn120  1  0.93186072  0.93871377  0.18243649  1
  Zn  Zn121  1  0.93671179  0.94606425  0.68473567  1
  Zn  Zn122  1  0.06560976  0.06059413  0.31370339  1
  Zn  Zn123  1  0.06452167  0.06656234  0.81211320  1
  Zn  Zn124  1  0.08155532  0.57872604  0.28715855  1
  Zn  Zn125  1  0.05793706  0.56916581  0.82033315  1
  Zn  Zn126  1  0.56363857  0.06004276  0.30941286  1
  Zn  Zn127  1  0.58207525  0.01230981  0.82992042  1
  Zn  Zn128  1  0.59285003  0.60966665  0.30441952  1
  Zn  Zn129  1  0.53784398  0.46645388  0.75511356  1
  Zn  Zn130  1  0.43389510  0.17201492  0.42712858  1
  Zn  Zn131  1  0.43480582  0.28400845  0.92812716  1
  Zn  Zn132  1  0.43385065  0.68343039  0.44065214  1
  Zn  Zn133  1  0.47181415  0.62335886  0.87067354  1
  Zn  Zn134  1  0.94433377  0.18193848  0.43274061  1
  Zn  Zn135  1  0.93817281  0.18501571  0.93780918  1
  Zn  Zn136  1  0.94774117  0.68865760  0.42667559  1
  Zn  Zn137  1  0.92483625  0.68082638  0.93833818  1
  Zn  Zn138  1  0.06278112  0.31704668  0.06337525  1
  Zn  Zn139  1  0.01541776  0.34666172  0.58368197  1
  Zn  Zn140  1  0.07620539  0.81062413  0.04362189  1
  Zn  Zn141  1  0.04019898  0.82176097  0.58783223  1
  Zn  Zn142  1  0.57181029  0.31178154  0.07561124  1
  Zn  Zn143  1  0.53323952  0.29909185  0.54225571  1
  Zn  Zn144  1  0.56009295  0.80624404  0.07672630  1
  Zn  Zn145  1  0.58843170  0.79237764  0.61100798  1
  O  O146  1  0.11821893  0.11720362  0.11850602  1
  O  O147  1  0.11776680  0.11870316  0.63520087  1
  O  O148  1  0.09308514  0.63046146  0.12959399  1
  O  O149  1  0.13815098  0.59857266  0.62626574  1
  O  O150  1  0.62749133  0.10962076  0.12027729  1
  O  O151  1  0.61723139  0.11846279  0.61177040  1
  O  O152  1  0.60812006  0.62385170  0.11454752  1
  O  O153  1  0.59083756  0.61559358  0.61980649  1
  O  O154  1  0.43043521  0.48856632  0.34576011  1
  O  O155  1  0.37872827  0.36939186  0.87572943  1
  O  O156  1  0.36173635  0.90120250  0.37914771  1
  O  O157  1  0.36679646  0.88448581  0.88405508  1
  O  O158  1  0.87980891  0.32903524  0.41948343  1
  O  O159  1  0.87674972  0.36858442  0.89399612  1
  O  O160  1  0.89042790  0.86572360  0.39387056  1
  O  O161  1  0.85676181  0.88010810  0.89302557  1
  O  O162  1  0.23562138  0.00801996  0.35724509  1
  O  O163  1  0.25234360  0.00213865  0.87096603  1
  O  O164  1  0.22338144  0.53028508  0.38819284  1
  O  O165  1  0.24093744  0.51940854  0.87061713  1
  O  O166  1  0.74774706  -0.00665930  0.36214770  1
  O  O167  1  0.76585419  0.00631494  0.85951819  1
  O  O168  1  0.73132554  0.56289436  0.35944173  1
  O  O169  1  0.74509150  0.50089206  0.88982105  1
  O  O170  1  0.23187980  0.57103927  0.10834963  1
  O  O171  1  0.19922629  0.54024378  0.61578861  1
  O  O172  1  0.24634052  0.99629510  0.13250024  1
  O  O173  1  0.24168525  0.99916989  0.63118454  1
  O  O174  1  0.73110192  0.51308099  0.12118006  1
  O  O175  1  0.75312369  0.48827695  0.62034613  1
  O  O176  1  0.74461186  0.99053459  0.13323305  1
  O  O177  1  0.74505463  1.01681718  0.63347216  1
  O  O178  1  -0.01112429  0.35911634  0.25099006  1
  O  O179  1  -0.00479366  0.36184144  0.75937980  1
  O  O180  1  -0.01250390  0.87300112  0.25618923  1
  O  O181  1  -0.04740913  0.93132509  0.79751291  1
  O  O182  1  0.49599246  0.35628817  0.25132846  1
  O  O183  1  0.50218662  0.35539642  0.74092649  1
  O  O184  1  0.51035491  0.86322277  0.24812800  1
  O  O185  1  0.48601826  0.86092237  0.74609388  1
  O  O186  1  0.51804170  0.13510181  0.23324825  1
  O  O187  1  0.48808345  0.12009366  0.74025578  1
  O  O188  1  0.48406704  0.62451616  0.24916157  1
  O  O189  1  0.46714732  0.63999156  0.72710886  1
  O  O190  1  0.99269948  0.12208196  0.24046214  1
  O  O191  1  0.99512150  0.12926248  0.74671774  1
  O  O192  1  0.99040441  0.64577953  0.23465419  1
  O  O193  1  0.96821719  0.61699176  0.76723092  1
  O  O194  1  0.36264941  0.24526232  0.00720533  1
  O  O195  1  0.38013937  0.22287490  0.51304680  1
  O  O196  1  0.36504797  0.76248179  -0.00553838  1
  O  O197  1  0.35917340  0.75684475  0.50658621  1
  O  O198  1  0.88074073  0.25659365  0.01393290  1
  O  O199  1  0.88291632  0.27325699  0.47541507  1
  O  O200  1  0.85593771  0.75812379  -0.00404175  1
  O  O201  1  0.89134521  0.74986808  0.50694678  1
  O  O202  1  0.11720493  0.25950145  0.47562713  1
  O  O203  1  0.12913801  0.23829396  0.99918334  1
  O  O204  1  0.12207680  0.76452733  0.49108563  1
  O  O205  1  0.14859707  0.71815858  1.01741764  1
  O  O206  1  0.62063326  0.22908485  0.49829361  1
  O  O207  1  0.63015144  0.22986042  1.01142806  1
  O  O208  1  0.69869057  0.75705877  0.57096109  1
  O  O209  1  0.63075598  0.74240102  1.00296251  1
  O  O210  1  0.49219579  0.24204813  0.13071430  1
  O  O211  1  0.49516600  0.22970040  0.63141371  1
  O  O212  1  0.50212118  0.73435761  0.14129569  1
  O  O213  1  0.47556275  0.76117722  0.61587911  1
  O  O214  1  0.99184096  0.23994378  0.13421186  1
  O  O215  1  1.01678075  0.24552429  0.65034648  1
  O  O216  1  1.00260999  0.76781031  0.12890018  1
  O  O217  1  1.05086452  0.72184642  0.63572280  1
  O  O218  1  0.01335382  0.23606480  0.35504338  1
  O  O219  1  0.01584655  0.24234606  0.87331385  1
  O  O220  1  0.00906591  0.76290997  0.36121374  1
  O  O221  1  0.01346921  0.73488752  0.89462995  1
  O  O222  1  0.49537992  0.23191714  0.35295888  1
  O  O223  1  0.50248407  0.23583417  0.85275821  1
  O  O224  1  0.48606532  0.75245949  0.36812197  1
  O  O225  1  0.49345859  0.74034560  0.85082618  1
  O  O226  1  0.23907470  0.11368090  0.48653312  1
  O  O227  1  0.24232808  0.12386939  0.99669984  1
  O  O228  1  0.23573756  0.65690345  0.48770212  1
  O  O229  1  0.25927317  0.63219897  0.97612911  1
  O  O230  1  0.74208204  0.11397818  0.48046386  1
  O  O231  1  0.74940443  0.11863010  0.99192179  1
  O  O232  1  0.74667110  0.62303229  0.50707342  1
  O  O233  1  0.74918090  0.63893410  0.99322339  1
  O  O234  1  0.24319972  0.35463567  0.00069969  1
  O  O235  1  0.30852693  0.36891368  0.41067331  1
  O  O236  1  0.26002259  0.86930783  0.00945348  1
  O  O237  1  0.23921902  0.87323925  0.50934248  1
  O  O238  1  0.76569419  0.37155934  0.00533134  1
  O  O239  1  0.69712835  0.35573616  0.55888003  1
  O  O240  1  0.75200043  0.86657178  0.00830626  1
  O  O241  1  0.78881382  0.87891669  0.51631410  1
  O  O242  1  0.13191613  0.48438136  0.25022900  1
  O  O243  1  0.11244805  0.49194550  0.75786015  1
  O  O244  1  0.13027905  1.00179448  0.23452779  1
  O  O245  1  0.13545683  1.00652268  0.74468294  1
  O  O246  1  0.62313235  0.51836816  0.23872677  1
  O  O247  1  0.65282648  0.47737873  0.74621715  1
  O  O248  1  0.64145405  1.00091142  0.24281609  1
  O  O249  1  0.64486763  1.01659547  0.73685205  1
  O  O250  1  0.36198802  -0.00141025  0.25045344  1
  O  O251  1  0.36592314  0.00398801  0.75793091  1
  O  O252  1  0.38915768  0.48446971  0.28572414  1
  O  O253  1  0.34276366  0.52672827  0.72074932  1
  O  O254  1  0.86056740  0.01008719  0.24265938  1
  O  O255  1  0.86084976  0.02186063  0.74246576  1
  O  O256  1  0.87045698  0.52489172  0.25485421  1
  O  O257  1  0.84669625  0.50713474  0.75293563  1
  O  O258  1  0.13850884  0.35190329  0.34895130  1
  O  O259  1  0.12739531  0.35933130  0.88997619  1
  O  O260  1  0.10764206  0.87197701  0.37265729  1
  O  O261  1  0.11922372  0.84669616  0.92665299  1
  O  O262  1  0.61875514  0.39054778  0.37142263  1
  O  O263  1  0.59883258  0.36198438  0.91678935  1
  O  O264  1  0.62531467  0.84429150  0.44303441  1
  O  O265  1  0.61673243  0.90629078  0.86776150  1
  O  O266  1  0.38962752  0.13061795  0.11943846  1
  O  O267  1  0.38236430  0.11768256  0.63489513  1
  O  O268  1  0.38661051  0.62808728  0.12255115  1
  O  O269  1  0.36300913  0.64502139  0.62119402  1
  O  O270  1  0.88301282  0.12806460  0.13142145  1
  O  O271  1  0.89719720  0.13203255  0.63910195  1
  O  O272  1  0.88198467  0.63023530  0.13354753  1
  O  O273  1  0.87478655  0.61484420  0.63794100  1
  O  O274  1  0.26360822  0.23872412  0.11526026  1
  O  O275  1  0.26477669  0.22969025  0.62429273  1
  O  O276  1  0.25844570  0.76387504  0.12049356  1
  O  O277  1  0.24152496  0.76362548  0.61180083  1
  O  O278  1  0.76672643  0.23752987  0.12733922  1
  O  O279  1  0.76671956  0.21394753  0.61370904  1
  O  O280  1  0.73923812  0.76400548  0.11467053  1
  O  O281  1  0.74131996  0.73391437  0.62786322  1
  O  O282  1  0.24106670  0.22652429  0.36457430  1
  O  O283  1  0.23864589  0.23723175  0.89174513  1
  O  O284  1  0.23173929  0.76745027  0.38098660  1
  O  O285  1  0.23942569  0.75111140  0.88363272  1
  O  O286  1  0.74032919  0.23345616  0.36999483  1
  O  O287  1  0.74297502  0.23870281  0.88181375  1
  O  O288  1  0.74545975  0.74168830  0.38066059  1
  O  O289  1  0.73813146  0.75910440  0.88790087  1
  O  O290  1  0.00615785  0.12019203  0.01375790  1
  O  O291  1  -0.00098789  0.12659048  0.51447838  1
  O  O292  1  -0.02168577  0.60960015  0.01678704  1
  O  O293  1  -0.00829752  0.60474637  0.49260915  1
  O  O294  1  0.51638275  0.11115701  0.01551193  1
  O  O295  1  0.51254303  0.11828533  0.50419010  1
  O  O296  1  0.50813861  0.63428471  -0.01408024  1
  O  O297  1  0.47546057  0.60701976  0.51878057  1
  O  O298  1  0.48722211  0.37125215  0.47696213  1
  O  O299  1  0.52918758  0.36121302  0.97265328  1
  O  O300  1  0.56787802  0.82838509  0.48693948  1
  O  O301  1  0.49494389  0.87358318  1.00206830  1
  O  O302  1  1.02208373  0.40712631  0.47682838  1
  O  O303  1  0.99111025  0.38982284  1.01072030  1
  O  O304  1  0.99485165  0.89050833  0.49245940  1
  O  O305  1  0.98763497  0.88533603  1.00962995  1
  O  O306  1  0.59629719  0.45865810  0.39967966  1
  O  O307  1  0.50461196  0.51774196  0.84917638  1
  O  O308  1  0.48803510  1.00525648  0.37072627  1
  O  O309  1  0.48338898  1.00617146  0.88532050  1
  O  O310  1  1.00002079  0.52138153  0.35302247  1
  O  O311  1  0.99937390  0.50427356  0.89696796  1
  O  O312  1  1.00307639  0.99818924  0.38525071  1
  O  O313  1  1.00165675  1.01889344  0.89767899  1
  O  O314  1  0.00612757  0.00509981  0.11844369  1
  O  O315  1  0.00772782  0.01388184  0.61902323  1
  O  O316  1  -0.01001274  0.50700614  0.13113140  1
  O  O317  1  0.00629650  0.51519859  0.63719496  1
  O  O318  1  0.50889863  0.00140077  0.12449286  1
  O  O319  1  0.51530330  0.00564963  0.63399929  1
  O  O320  1  0.50587936  0.52034999  0.12825036  1
  O  O321  1  0.48492483  0.50174894  0.64914042  1
  O  O322  1  0.25178993  0.37182439  0.23777471  1
  O  O323  1  0.24898151  0.37688215  0.72880344  1
  O  O324  1  0.25378938  0.88386752  0.23431012  1
  O  O325  1  0.25260686  0.88861370  0.73915088  1
  O  O326  1  0.77136115  0.39615482  0.28590096  1
  O  O327  1  0.77133423  0.36413212  0.72574301  1
  O  O328  1  0.76221233  0.88339647  0.24500498  1
  O  O329  1  0.76366865  0.89580741  0.74326791  1
  O  O330  1  0.25002755  0.11071562  0.24566659  1
  O  O331  1  0.25703277  0.11699412  0.76076544  1
  O  O332  1  0.24672641  0.63940807  0.26707218  1
  O  O333  1  0.24268771  0.64888406  0.75238213  1
  O  O334  1  0.75310981  0.11335729  0.26156070  1
  O  O335  1  0.76104994  0.13035493  0.76434719  1
  O  O336  1  0.76555534  0.65022566  0.23314701  1
  O  O337  1  0.74269810  0.61102390  0.76643323  1
  O  O338  1  0.35339346  0.10337840  0.37669882  1
  O  O339  1  0.36091901  0.11157623  0.86928593  1
  O  O340  1  0.34949962  0.62949704  0.38684331  1
  O  O341  1  0.35523992  0.63112030  0.84508314  1
  O  O342  1  0.86220416  0.13001535  0.36424792  1
  O  O343  1  0.87415309  0.11378673  0.86833215  1
  O  O344  1  0.87187709  0.64518864  0.35434391  1
  O  O345  1  0.84861963  0.62531797  0.87231410  1
  O  O346  1  0.12480780  0.37027027  0.13820481  1
  O  O347  1  0.11242291  0.39363341  0.62462945  1
  O  O348  1  0.14453260  0.88359040  0.11203770  1
  O  O349  1  0.12906120  0.89310835  0.62746252  1
  O  O350  1  0.61771235  0.39853949  0.13595067  1
  O  O351  1  0.63603510  0.35660156  0.59998796  1
  O  O352  1  0.63421367  0.88498186  0.12280191  1
  O  O353  1  0.63004188  0.89623367  0.62872473  1
  O  O354  1  0.11119780  0.25414982  0.24082388  1
  O  O355  1  0.11957606  0.24811057  0.77136948  1
  O  O356  1  0.10903868  0.76407248  0.24954915  1
  O  O357  1  0.11961287  0.77715438  0.77604955  1
  O  O358  1  0.62021294  0.26400937  0.24205621  1
  O  O359  1  0.61189584  0.24030658  0.74921106  1
  O  O360  1  0.60024966  0.72347732  0.26341326  1
  O  O361  1  0.59042165  0.74280143  0.71924076  1
  O  O362  1  0.37942334  0.24864890  0.23741536  1
  O  O363  1  0.38605151  0.23600288  0.73903829  1
  O  O364  1  0.38670505  0.75977335  0.24934056  1
  O  O365  1  0.37118967  0.75145560  0.73055647  1
  O  O366  1  0.88497365  0.23738199  0.24174741  1
  O  O367  1  0.89403976  0.24366398  0.76686116  1
  O  O368  1  0.88760949  0.75306028  0.24400535  1
  O  O369  1  0.85349389  0.72802204  0.75007555  1
  O  O370  1  0.31420230  0.47026997  0.54445029  1
  O  O371  1  0.37438374  0.47703311  0.99683099  1
  O  O372  1  0.38476145  1.00282292  0.49784677  1
  O  O373  1  0.38041476  0.99006426  0.99446358  1
  O  O374  1  0.87521131  0.49539276  0.45593412  1
  O  O375  1  0.88137918  0.48667825  1.00927110  1
  O  O376  1  0.88629791  1.01328106  0.51018815  1
  O  O377  1  0.88218276  0.99237676  0.98859203  1
  O  O378  1  0.11972363  0.00686096  0.01032623  1
  O  O379  1  0.11578551  0.00248634  0.51112431  1
  O  O380  1  0.10743067  0.52388571  0.01135656  1
  O  O381  1  0.08414801  0.46514447  0.48025678  1
  O  O382  1  0.62524105  0.00312684  0.01201707  1
  O  O383  1  0.63564099  0.00651334  0.51603575  1
  O  O384  1  0.61949097  0.51912630  0.01341139  1
  O  O385  1  0.61857635  0.47020842  0.47601515  1
  O  O386  1  0.38634611  0.35573275  0.12156513  1
  O  O387  1  0.37842396  0.34279864  0.61511467  1
  O  O388  1  0.36405062  0.88512522  0.11340580  1
  O  O389  1  0.35591725  0.87093347  0.62189094  1
  O  O390  1  0.87556441  0.35766213  0.12715635  1
  O  O391  1  0.90792940  0.37533513  0.61172335  1
  O  O392  1  0.86112782  0.88411430  0.11035260  1
  O  O393  1  0.92111508  0.86003917  0.61531554  1
  O  O394  1  0.13371494  0.13405235  0.36642078  1
  O  O395  1  0.13573401  0.12157420  0.88850540  1
  O  O396  1  0.12632342  0.65566574  0.36416573  1
  O  O397  1  0.13657896  0.64148949  0.86758150  1
  O  O398  1  0.63465196  0.11387112  0.38411000  1
  O  O399  1  0.63847126  0.11143133  0.88862044  1
  O  O400  1  0.61144114  0.64455560  0.41357956  1
  O  O401  1  0.63976351  0.62494266  0.89316977  1
