# generated using pymatgen
data_In86Cu29Se144
_symmetry_space_group_name_H-M   'P 1'
_cell_length_a   17.59441321
_cell_length_b   17.59266440
_cell_length_c   23.44272089
_cell_angle_alpha   89.98890677
_cell_angle_beta   90.01110669
_cell_angle_gamma   89.99712413
_symmetry_Int_Tables_number   1
_chemical_formula_structural   In86Cu29Se144
_chemical_formula_sum   'In86 Cu29 Se144'
_cell_volume   7256.28622944
_cell_formula_units_Z   1
loop_
 _symmetry_equiv_pos_site_id
 _symmetry_equiv_pos_as_xyz
  1  'x, y, z'
loop_
 _atom_site_type_symbol
 _atom_site_label
 _atom_site_symmetry_multiplicity
 _atom_site_fract_x
 _atom_site_fract_y
 _atom_site_fract_z
 _atom_site_occupancy
  In  In0  1  0.00731699  0.15478039  0.11415208  1
  In  In1  1  0.01394660  0.16134835  0.63303957  1
  In  In2  1  0.00007642  0.52148862  0.12532535  1
  In  In3  1  0.00064602  0.50445096  0.63154408  1
  In  In4  1  -0.00786545  0.82233373  0.11361268  1
  In  In5  1  0.00046085  0.83425545  0.63616587  1
  In  In6  1  0.32361778  0.17041775  0.11366640  1
  In  In7  1  0.31957037  0.17273742  0.62965165  1
  In  In8  1  0.33680053  0.49516943  0.11960262  1
  In  In9  1  0.33050612  0.51693595  0.62601250  1
  In  In10  1  0.33425817  0.83376828  0.11244702  1
  In  In11  1  0.33495529  0.83303976  0.63785197  1
  In  In12  1  0.65281072  0.15911364  0.12260768  1
  In  In13  1  0.67525205  0.17746125  0.62467975  1
  In  In14  1  0.68402443  0.49585770  0.12124047  1
  In  In15  1  0.65892354  0.49543697  0.62045573  1
  In  In16  1  0.66813691  0.82899668  0.12828256  1
  In  In17  1  0.66105746  0.82638584  0.61862965  1
  In  In18  1  0.17355557  -0.00584760  0.38895254  1
  In  In19  1  0.17316560  -0.00941908  0.86333308  1
  In  In20  1  0.17046993  0.33514339  0.39278970  1
  In  In21  1  0.15954716  0.33148073  0.86202593  1
  In  In22  1  0.15469396  0.67157882  0.39128648  1
  In  In23  1  0.17975716  0.69146741  0.83129479  1
  In  In24  1  0.50369068  -0.01831966  0.38335733  1
  In  In25  1  0.48753854  -0.01251357  0.86965136  1
  In  In26  1  0.50739980  0.34726286  0.37973208  1
  In  In27  1  0.49987402  0.33842839  0.85349987  1
  In  In28  1  0.51301104  0.65929525  0.38466361  1
  In  In29  1  0.49456216  0.67569526  0.85927959  1
  In  In30  1  0.82526797  0.00171902  0.37368101  1
  In  In31  1  0.83442815  -0.02824417  0.86782800  1
  In  In32  1  0.84028399  0.32998677  0.38278999  1
  In  In33  1  0.85123010  0.35267375  0.86818602  1
  In  In34  1  0.83521481  0.66860324  0.37781910  1
  In  In35  1  0.83142244  0.66225260  0.88016741  1
  In  In36  1  0.00646410  0.17158454  0.38067250  1
  In  In37  1  0.01099754  0.17739539  0.87139168  1
  In  In38  1  -0.01665329  0.50962806  0.39040246  1
  In  In39  1  0.00320820  0.50573959  0.86467963  1
  In  In40  1  0.00971395  0.82396317  0.38426658  1
  In  In41  1  -0.00249063  0.83404329  0.85942227  1
  In  In42  1  0.32393207  0.16203356  0.38609203  1
  In  In43  1  0.32292962  0.15146366  0.86144199  1
  In  In44  1  0.32894070  0.51775600  0.39986773  1
  In  In45  1  0.32638100  0.50533567  0.84157264  1
  In  In46  1  0.33391587  0.81224408  0.40281267  1
  In  In47  1  0.33696014  0.82729172  0.86355189  1
  In  In48  1  0.67693325  0.16107757  0.37438220  1
  In  In49  1  0.65638506  0.16816407  0.87595204  1
  In  In50  1  0.66032539  0.51175705  0.38553086  1
  In  In51  1  0.68009699  0.51734359  0.87189840  1
  In  In52  1  0.67328808  0.83272809  0.37604802  1
  In  In53  1  0.66316110  0.81480550  0.88762537  1
  In  In54  1  0.16060706  -0.00443041  0.11028244  1
  In  In55  1  0.16033820  -0.00608256  0.63577481  1
  In  In56  1  0.17863281  0.32583940  0.11580226  1
  In  In57  1  0.17098501  0.34082844  0.63019627  1
  In  In58  1  0.15507017  0.66413920  0.12414265  1
  In  In59  1  0.17108589  0.67109942  0.63368707  1
  In  In60  1  0.50791580  -0.00730475  0.12581749  1
  In  In61  1  0.49078831  -0.02975461  0.62946138  1
  In  In62  1  0.49655625  0.33252525  0.11955186  1
  In  In63  1  0.46786548  0.37780485  0.65779386  1
  In  In64  1  0.49512439  0.68199557  0.12420765  1
  In  In65  1  0.49070643  0.66934100  0.62155690  1
  In  In66  1  0.83386335  -0.02668362  0.11991978  1
  In  In67  1  0.84715246  -0.00654696  0.63057369  1
  In  In68  1  0.82544747  0.34178207  0.11777872  1
  In  In69  1  0.82292903  0.34467478  0.63365324  1
  In  In70  1  0.83617289  0.66801132  0.12330489  1
  In  In71  1  0.84843890  0.68130176  0.62261591  1
  In  In72  1  -0.00024398  0.33358128  0.25683939  1
  In  In73  1  0.49157930  0.16372221  -0.00142785  1
  In  In74  1  0.49387296  0.17385941  0.50895403  1
  In  In75  1  0.15676551  0.50601253  -0.01697580  1
  In  In76  1  0.84083018  0.16412210  -0.00201796  1
  In  In77  1  0.66784946  -0.00335232  0.75246681  1
  In  In78  1  0.66075357  0.66514741  0.75028583  1
  In  In79  1  0.33507994  0.33583968  0.24621971  1
  In  In80  1  0.33354326  0.67115018  0.26164098  1
  In  In81  1  0.84228292  0.16664348  0.49884340  1
  In  In82  1  0.32799030  -0.00465912  0.25979666  1
  In  In83  1  0.66760582  0.33913094  0.25098821  1
  In  In84  1  0.00013711  -0.00921024  0.24805810  1
  In  In85  1  0.50249172  0.51157704  -0.01149755  1
  Cu  Cu86  1  0.66892017  -0.00311945  0.50222374  1
  Cu  Cu87  1  0.16677546  0.82701241  0.25441282  1
  Cu  Cu88  1  0.51277676  0.16610228  0.74353107  1
  Cu  Cu89  1  0.82869851  0.50166049  0.74747848  1
  Cu  Cu90  1  0.49860193  0.50630878  0.25757244  1
  Cu  Cu91  1  0.31911373  0.67011779  -0.01532139  1
  Cu  Cu92  1  0.82609458  0.15401014  0.24524372  1
  Cu  Cu93  1  0.65854860  0.34436649  0.50922449  1
  Cu  Cu94  1  0.83419934  0.50731174  0.25254796  1
  Cu  Cu95  1  0.00553446  0.33441993  0.51155736  1
  Cu  Cu96  1  0.33422868  0.34346826  0.51553604  1
  Cu  Cu97  1  0.00885192  -0.01181099  0.50999161  1
  Cu  Cu98  1  0.83158282  0.82617127  0.24724944  1
  Cu  Cu99  1  0.83431861  0.17472385  0.75372180  1
  Cu  Cu100  1  0.15613287  0.50232847  0.25687850  1
  Cu  Cu101  1  0.01378540  -0.00059455  -0.01506715  1
  Cu  Cu102  1  0.50374412  0.15437678  0.25116388  1
  Cu  Cu103  1  0.00418828  0.66516139  0.51092794  1
  Cu  Cu104  1  0.16828011  0.17027581  0.74930800  1
  Cu  Cu105  1  0.66465500  -0.01276161  0.00082241  1
  Cu  Cu106  1  0.32564915  -0.01238241  -0.01297727  1
  Cu  Cu107  1  0.00412975  0.67288431  -0.00908935  1
  Cu  Cu108  1  0.32676077  0.32667627  -0.01790361  1
  Cu  Cu109  1  0.00546202  0.34582565  -0.00833629  1
  Cu  Cu110  1  0.67554677  0.66958347  0.50268028  1
  Cu  Cu111  1  0.50764895  0.83406093  0.25330196  1
  Cu  Cu112  1  0.31883089  -0.00176977  0.51172801  1
  Cu  Cu113  1  0.16605171  0.16295812  0.24832124  1
  Cu  Cu114  1  0.67683474  0.34117550  -0.01086208  1
  Se  Se115  1  0.09095709  0.08723163  0.03977321  1
  Se  Se116  1  0.08687686  0.07891427  0.55935332  1
  Se  Se117  1  0.08236342  0.41925156  0.06124005  1
  Se  Se118  1  0.08530063  0.42240322  0.56177628  1
  Se  Se119  1  0.08929035  0.74938110  0.04904688  1
  Se  Se120  1  0.08164221  0.75095939  0.56677775  1
  Se  Se121  1  0.40320599  0.06532229  0.05586685  1
  Se  Se122  1  0.41180041  0.07418554  0.56616691  1
  Se  Se123  1  0.40798517  0.40502615  0.04413534  1
  Se  Se124  1  0.42007629  0.42981374  0.56073949  1
  Se  Se125  1  0.40768418  0.74101694  0.04623167  1
  Se  Se126  1  0.43137480  0.77928297  0.56342871  1
  Se  Se127  1  0.74424643  0.07510422  0.05688306  1
  Se  Se128  1  0.75064097  0.07716698  0.55938951  1
  Se  Se129  1  0.75934755  0.42439431  0.04199193  1
  Se  Se130  1  0.75503984  0.42141254  0.55354886  1
  Se  Se131  1  0.77000859  0.77072640  0.06152579  1
  Se  Se132  1  0.75762784  0.75558664  0.55378287  1
  Se  Se133  1  0.24563738  0.24467086  0.03823203  1
  Se  Se134  1  0.24656014  0.25395506  0.55569800  1
  Se  Se135  1  0.25307929  0.58589916  0.05365714  1
  Se  Se136  1  0.25980153  0.60838153  0.55637897  1
  Se  Se137  1  0.24346108  0.90864534  0.04634020  1
  Se  Se138  1  0.24608446  0.91102906  0.56824982  1
  Se  Se139  1  0.59383520  0.26117754  0.04880586  1
  Se  Se140  1  0.57959704  0.26434164  0.56842605  1
  Se  Se141  1  0.58274851  0.58322551  0.06579395  1
  Se  Se142  1  0.58641268  0.59283262  0.55731702  1
  Se  Se143  1  0.58020232  0.90666323  0.05582244  1
  Se  Se144  1  0.58094873  0.91521964  0.55172988  1
  Se  Se145  1  0.92977788  0.26312500  0.05672878  1
  Se  Se146  1  0.92005888  0.25414666  0.56783259  1
  Se  Se147  1  0.92194181  0.59085211  0.04891316  1
  Se  Se148  1  0.91592457  0.58075448  0.55829663  1
  Se  Se149  1  0.93121773  0.92475871  0.04705677  1
  Se  Se150  1  0.91868653  0.90945948  0.55818295  1
  Se  Se151  1  0.08304731  0.24750327  0.45456580  1
  Se  Se152  1  0.08892379  0.25879409  0.94421819  1
  Se  Se153  1  0.08140732  0.57622866  0.45605161  1
  Se  Se154  1  0.08597613  0.60799393  0.92326315  1
  Se  Se155  1  0.09206666  0.90646315  0.45304897  1
  Se  Se156  1  0.08607971  0.90946417  0.93054644  1
  Se  Se157  1  0.40584687  0.26633669  0.44333890  1
  Se  Se158  1  0.41654155  0.25164651  0.92765679  1
  Se  Se159  1  0.42488956  0.59307763  0.45742888  1
  Se  Se160  1  0.39757134  0.58216117  0.92765695  1
  Se  Se161  1  0.40421063  0.92397777  0.45181791  1
  Se  Se162  1  0.41465147  0.90393641  0.94199751  1
  Se  Se163  1  0.73663443  0.25822251  0.44961507  1
  Se  Se164  1  0.75535014  0.25461736  0.93409637  1
  Se  Se165  1  0.75688096  0.58303252  0.44944305  1
  Se  Se166  1  0.73587929  0.59910019  0.95086884  1
  Se  Se167  1  0.75459324  0.91820484  0.44677754  1
  Se  Se168  1  0.74913826  0.90946029  0.94517539  1
  Se  Se169  1  0.24197782  0.08794074  0.45827421  1
  Se  Se170  1  0.24700437  0.07819574  0.93851939  1
  Se  Se171  1  0.24751359  0.42349468  0.45949625  1
  Se  Se172  1  0.25589093  0.42012767  0.92745645  1
  Se  Se173  1  0.25379423  0.72332401  0.46479356  1
  Se  Se174  1  0.23946609  0.74742343  0.92479688  1
  Se  Se175  1  0.58787622  0.08324756  0.44574250  1
  Se  Se176  1  0.58455539  0.06900557  0.94335231  1
  Se  Se177  1  0.57711618  0.42819019  0.45435868  1
  Se  Se178  1  0.58694728  0.41197839  0.93139293  1
  Se  Se179  1  0.59209439  0.75263330  0.44732593  1
  Se  Se180  1  0.57107215  0.72908422  0.94404404  1
  Se  Se181  1  0.93203081  0.06738451  0.44315186  1
  Se  Se182  1  0.92110493  0.07612143  0.93090360  1
  Se  Se183  1  0.91578043  0.40895943  0.45518639  1
  Se  Se184  1  0.92374511  0.43286448  0.94382741  1
  Se  Se185  1  0.92243016  0.74404462  0.44990704  1
  Se  Se186  1  0.92025109  0.75550772  0.93608493  1
  Se  Se187  1  0.24291158  0.24621280  0.30936019  1
  Se  Se188  1  0.25544478  0.25343075  0.79955373  1
  Se  Se189  1  0.24209859  0.57762413  0.31677529  1
  Se  Se190  1  0.20463833  0.55469472  0.79105924  1
  Se  Se191  1  0.24847735  0.89621240  0.31991240  1
  Se  Se192  1  0.27338629  0.92755908  0.79534637  1
  Se  Se193  1  0.57593257  0.24448763  0.31066523  1
  Se  Se194  1  0.59300305  0.24966724  0.79804643  1
  Se  Se195  1  0.58819016  0.58618306  0.30596829  1
  Se  Se196  1  0.56959098  0.56715400  0.80368147  1
  Se  Se197  1  0.58803878  0.91860831  0.30709482  1
  Se  Se198  1  0.58324343  0.90185203  0.81188681  1
  Se  Se199  1  0.90460439  0.23273381  0.30709553  1
  Se  Se200  1  0.92218430  0.25550639  0.80437201  1
  Se  Se201  1  0.91966444  0.58436551  0.30799268  1
  Se  Se202  1  0.90732440  0.58552206  0.80377782  1
  Se  Se203  1  0.91118487  0.90509784  0.31108142  1
  Se  Se204  1  0.93054046  0.93364178  0.79070408  1
  Se  Se205  1  0.09062636  0.08217181  0.31096863  1
  Se  Se206  1  0.08795574  0.08710907  0.80524428  1
  Se  Se207  1  0.08575823  0.42094106  0.32034057  1
  Se  Se208  1  0.08071122  0.41856694  0.79685358  1
  Se  Se209  1  0.08600935  0.74480087  0.30947357  1
  Se  Se210  1  0.05219627  0.73660078  0.78433386  1
  Se  Se211  1  0.42146490  0.08803861  0.31694611  1
  Se  Se212  1  0.43077042  0.08843014  0.80230780  1
  Se  Se213  1  0.41270536  0.42788903  0.31380842  1
  Se  Se214  1  0.40737637  0.40670129  0.78517990  1
  Se  Se215  1  0.42565288  0.76158112  0.31851609  1
  Se  Se216  1  0.38624413  0.72069373  0.79117301  1
  Se  Se217  1  0.74242602  0.07512896  0.29952704  1
  Se  Se218  1  0.75776608  0.08839002  0.81420975  1
  Se  Se219  1  0.75899873  0.42194626  0.31447091  1
  Se  Se220  1  0.74886005  0.42027597  0.80580177  1
  Se  Se221  1  0.75092072  0.74647356  0.30605592  1
  Se  Se222  1  0.75264228  0.75585471  0.80830346  1
  Se  Se223  1  0.24429223  0.08267947  0.18806277  1
  Se  Se224  1  0.24903023  0.08161316  0.69852143  1
  Se  Se225  1  0.23591200  0.42755225  0.19158574  1
  Se  Se226  1  0.27339999  0.40871962  0.69032068  1
  Se  Se227  1  0.24906892  0.75392655  0.19042132  1
  Se  Se228  1  0.25595458  0.74645301  0.70924540  1
  Se  Se229  1  0.58644834  0.07430768  0.19772145  1
  Se  Se230  1  0.58437273  0.07979146  0.68221178  1
  Se  Se231  1  0.57195754  0.42532111  0.19039296  1
  Se  Se232  1  0.59961787  0.41068511  0.69870045  1
  Se  Se233  1  0.58301581  0.74689374  0.19807981  1
  Se  Se234  1  0.57303787  0.76114192  0.69518541  1
  Se  Se235  1  0.91236479  0.08372800  0.18503625  1
  Se  Se236  1  0.91173506  0.09279862  0.69555123  1
  Se  Se237  1  0.91123192  0.42190157  0.19210900  1
  Se  Se238  1  0.91740766  0.41790880  0.69900305  1
  Se  Se239  1  0.92146831  0.74983970  0.19410113  1
  Se  Se240  1  0.92145627  0.74623513  0.70584620  1
  Se  Se241  1  0.08754528  0.24453630  0.18886141  1
  Se  Se242  1  0.08535226  0.25675807  0.69829764  1
  Se  Se243  1  0.08037769  0.58983945  0.20239529  1
  Se  Se244  1  0.08847197  0.58353954  0.70030133  1
  Se  Se245  1  0.09290207  0.90551704  0.18805629  1
  Se  Se246  1  0.06356938  0.93200749  0.70743710  1
  Se  Se247  1  0.42378802  0.23394625  0.18964487  1
  Se  Se248  1  0.42589847  0.24102207  0.68761110  1
  Se  Se249  1  0.41650765  0.57896432  0.19342421  1
  Se  Se250  1  0.41837968  0.59151640  0.69843235  1
  Se  Se251  1  0.41718680  0.90764323  0.19527030  1
  Se  Se252  1  0.40534097  0.92425090  0.71207414  1
  Se  Se253  1  0.75305516  0.24281441  0.18682229  1
  Se  Se254  1  0.74728744  0.25397960  0.70196958  1
  Se  Se255  1  0.75185169  0.58347029  0.19324620  1
  Se  Se256  1  0.75366522  0.58468710  0.68489188  1
  Se  Se257  1  0.74969097  0.91566422  0.19857424  1
  Se  Se258  1  0.75243462  0.90657699  0.69032548  1
