# generated using pymatgen
data_In86Cu29Se144
_symmetry_space_group_name_H-M   'P 1'
_cell_length_a   17.58428254
_cell_length_b   17.58164078
_cell_length_c   23.44466790
_cell_angle_alpha   89.96718651
_cell_angle_beta   90.00828315
_cell_angle_gamma   90.01838262
_symmetry_Int_Tables_number   1
_chemical_formula_structural   In86Cu29Se144
_chemical_formula_sum   'In86 Cu29 Se144'
_cell_volume   7248.16452762
_cell_formula_units_Z   1
loop_
 _symmetry_equiv_pos_site_id
 _symmetry_equiv_pos_as_xyz
  1  'x, y, z'
loop_
 _atom_site_type_symbol
 _atom_site_label
 _atom_site_symmetry_multiplicity
 _atom_site_fract_x
 _atom_site_fract_y
 _atom_site_fract_z
 _atom_site_occupancy
  In  In0  1  -0.01733264  0.17664223  0.13359913  1
  In  In1  1  0.00851052  0.16936975  0.61821675  1
  In  In2  1  -0.00124773  0.50280978  0.13149445  1
  In  In3  1  -0.01088944  0.50298528  0.62529984  1
  In  In4  1  0.00964477  0.82556499  0.12766827  1
  In  In5  1  -0.00512333  0.82972702  0.62551356  1
  In  In6  1  0.33189778  0.16514865  0.13412229  1
  In  In7  1  0.32678710  0.17513352  0.62998183  1
  In  In8  1  0.33357973  0.48574720  0.12275718  1
  In  In9  1  0.34026828  0.49759168  0.63201088  1
  In  In10  1  0.33531787  0.84686342  0.11042279  1
  In  In11  1  0.34134959  0.82500014  0.63334721  1
  In  In12  1  0.66846057  0.15540495  0.13027864  1
  In  In13  1  0.68360599  0.17808880  0.61831788  1
  In  In14  1  0.66764260  0.51059378  0.12811646  1
  In  In15  1  0.65436625  0.48104774  0.60811320  1
  In  In16  1  0.65255114  0.83822975  0.13050079  1
  In  In17  1  0.65997403  0.84538671  0.61903386  1
  In  In18  1  0.16668445  0.00580920  0.37065977  1
  In  In19  1  0.17481142  -0.01280940  0.88201731  1
  In  In20  1  0.15141756  0.32011993  0.36907639  1
  In  In21  1  0.16539982  0.32903092  0.86687474  1
  In  In22  1  0.16452841  0.67537511  0.37191862  1
  In  In23  1  0.17109772  0.66586703  0.87042396  1
  In  In24  1  0.49459704  -0.00503035  0.36845402  1
  In  In25  1  0.48687313  -0.00033885  0.87927966  1
  In  In26  1  0.50843655  0.34489399  0.37858287  1
  In  In27  1  0.50730515  0.33962677  0.86907418  1
  In  In28  1  0.51597623  0.65725175  0.38429140  1
  In  In29  1  0.48981275  0.67688280  0.88571201  1
  In  In30  1  0.84951969  0.02777832  0.34661661  1
  In  In31  1  0.84562960  0.00841649  0.87927978  1
  In  In32  1  0.84810854  0.31512843  0.39685268  1
  In  In33  1  0.83535529  0.32656199  0.86573284  1
  In  In34  1  0.82579088  0.66064669  0.36665760  1
  In  In35  1  0.83480646  0.65382330  0.87315362  1
  In  In36  1  -0.00725581  0.16925083  0.37554718  1
  In  In37  1  -0.00777430  0.17194086  0.88070611  1
  In  In38  1  -0.01190213  0.48609972  0.36653601  1
  In  In39  1  0.00139460  0.49884823  0.86620469  1
  In  In40  1  -0.00124615  0.83508936  0.36342977  1
  In  In41  1  0.01616115  0.83001211  0.88151800  1
  In  In42  1  0.32191205  0.15848675  0.37010233  1
  In  In43  1  0.33204592  0.16313890  0.86650543  1
  In  In44  1  0.34997644  0.49433450  0.38045391  1
  In  In45  1  0.33777098  0.50828166  0.86818857  1
  In  In46  1  0.33692471  0.84641269  0.37256094  1
  In  In47  1  0.33537176  0.83162155  0.87617205  1
  In  In48  1  0.70454179  0.16594317  0.37461643  1
  In  In49  1  0.67213222  0.17868246  0.86924612  1
  In  In50  1  0.66526640  0.49618258  0.38618648  1
  In  In51  1  0.67096537  0.48614773  0.87571267  1
  In  In52  1  0.66506014  0.83269948  0.36874625  1
  In  In53  1  0.65887947  0.82286981  0.88029291  1
  In  In54  1  0.17253181  -0.00920798  0.12952334  1
  In  In55  1  0.16883196  0.01702364  0.62151369  1
  In  In56  1  0.16364159  0.33344827  0.13109311  1
  In  In57  1  0.17618926  0.32357852  0.62946442  1
  In  In58  1  0.14985771  0.67655658  0.12123060  1
  In  In59  1  0.16572333  0.66926631  0.63329153  1
  In  In60  1  0.49669003  -0.00640604  0.13082383  1
  In  In61  1  0.50098955  -0.01262119  0.62249716  1
  In  In62  1  0.48812290  0.32900734  0.12555952  1
  In  In63  1  0.49118403  0.34233226  0.63012034  1
  In  In64  1  0.50003473  0.67315071  0.12113874  1
  In  In65  1  0.49911102  0.66002830  0.62391748  1
  In  In66  1  0.82599122  0.01269270  0.13459483  1
  In  In67  1  0.83676828  0.00988607  0.61673459  1
  In  In68  1  0.84847188  0.32537279  0.12915340  1
  In  In69  1  0.83071130  0.33297386  0.62663582  1
  In  In70  1  0.83439121  0.66063970  0.13343503  1
  In  In71  1  0.84779656  0.66243507  0.62838552  1
  In  In72  1  0.16772309  0.49889783  0.50248986  1
  In  In73  1  0.00859110  0.00376908  0.74560539  1
  In  In74  1  0.82860366  0.83940612  0.49738288  1
  In  In75  1  0.50173502  0.16754347  0.49653174  1
  In  In76  1  0.66949488  0.33299435  0.25967973  1
  In  In77  1  0.83461754  0.49808585  0.00465621  1
  In  In78  1  0.66776319  0.00770761  0.74533983  1
  In  In79  1  0.66876807  0.65953333  0.75089891  1
  In  In80  1  0.32857537  0.66507320  0.24929805  1
  In  In81  1  0.16406008  0.16226027  -0.00413427  1
  In  In82  1  0.83247950  0.83651942  0.00134425  1
  In  In83  1  0.16853570  0.84092514  0.49069343  1
  In  In84  1  0.50143929  0.16202496  0.00623733  1
  In  In85  1  0.16520048  0.50223022  0.00094412  1
  Cu  Cu86  1  0.33646450  0.33203249  -0.00192205  1
  Cu  Cu87  1  0.84250790  0.83329974  0.74712139  1
  Cu  Cu88  1  0.66977737  0.67036842  0.49509448  1
  Cu  Cu89  1  0.83276585  0.49992496  0.25344804  1
  Cu  Cu90  1  0.50058511  0.17064262  0.74845911  1
  Cu  Cu91  1  0.16850916  0.49692198  0.24619289  1
  Cu  Cu92  1  0.33023236  0.66663670  -0.00575016  1
  Cu  Cu93  1  0.34776559  0.66961615  0.50497982  1
  Cu  Cu94  1  0.50172475  0.49886153  0.25775401  1
  Cu  Cu95  1  0.49436981  0.83361629  0.75365929  1
  Cu  Cu96  1  0.66439278  0.00220790  0.00788922  1
  Cu  Cu97  1  0.49746091  0.82514276  0.24778246  1
  Cu  Cu98  1  -0.00249867  0.32927396  0.50057426  1
  Cu  Cu99  1  0.49421192  0.16734171  0.25326294  1
  Cu  Cu100  1  0.82919571  0.83363242  0.24498258  1
  Cu  Cu101  1  0.83532699  0.49400326  0.74762237  1
  Cu  Cu102  1  0.66848154  0.00103216  0.49317859  1
  Cu  Cu103  1  0.65555321  0.66728111  0.00765974  1
  Cu  Cu104  1  0.16207899  0.49656056  0.74556297  1
  Cu  Cu105  1  0.66918842  0.33419142  -0.00646397  1
  Cu  Cu106  1  0.33367753  -0.00030976  0.49524213  1
  Cu  Cu107  1  0.16310272  0.83541506  0.24919754  1
  Cu  Cu108  1  0.16779054  0.16588935  0.74981606  1
  Cu  Cu109  1  0.16124553  0.16560910  0.24966322  1
  Cu  Cu110  1  0.32991322  0.32941753  0.50480359  1
  Cu  Cu111  1  0.49900013  0.50289142  0.74978267  1
  Cu  Cu112  1  -0.00111465  0.66471337  0.49694870  1
  Cu  Cu113  1  0.17305198  0.83190365  0.75652320  1
  Cu  Cu114  1  -0.00234966  0.00682832  0.00666651  1
  Se  Se115  1  0.07886928  0.08494943  0.06750128  1
  Se  Se116  1  0.07723040  0.07558771  0.55008953  1
  Se  Se117  1  0.07473630  0.41145007  0.05915627  1
  Se  Se118  1  0.07936673  0.40800940  0.56208247  1
  Se  Se119  1  0.08018816  0.75637263  0.04626183  1
  Se  Se120  1  0.08153975  0.74546011  0.55358417  1
  Se  Se121  1  0.40507336  0.07532678  0.06063850  1
  Se  Se122  1  0.41136085  0.07954456  0.55911575  1
  Se  Se123  1  0.42080884  0.41513748  0.05014222  1
  Se  Se124  1  0.41074752  0.41771763  0.55474938  1
  Se  Se125  1  0.41247107  0.74773635  0.05201627  1
  Se  Se126  1  0.42595660  0.75675168  0.55806208  1
  Se  Se127  1  0.75118786  0.08626511  0.05462959  1
  Se  Se128  1  0.74965685  0.08474057  0.54761789  1
  Se  Se129  1  0.74372079  0.40772180  0.06429393  1
  Se  Se130  1  0.76888188  0.42812977  0.55466553  1
  Se  Se131  1  0.74450449  0.74465917  0.06298407  1
  Se  Se132  1  0.74701499  0.74489999  0.56307782  1
  Se  Se133  1  0.25545344  0.25439522  0.05825502  1
  Se  Se134  1  0.24532652  0.24252897  0.55188268  1
  Se  Se135  1  0.25564669  0.59136315  0.06281809  1
  Se  Se136  1  0.25731326  0.59334541  0.56025915  1
  Se  Se137  1  0.23581255  0.91515170  0.04818826  1
  Se  Se138  1  0.25766001  0.91862581  0.56022378  1
  Se  Se139  1  0.59353950  0.25685723  0.06115611  1
  Se  Se140  1  0.58183074  0.25922453  0.56061856  1
  Se  Se141  1  0.57650172  0.57679238  0.05703680  1
  Se  Se142  1  0.58673723  0.58954492  0.55247640  1
  Se  Se143  1  0.57812777  0.91844921  0.05551376  1
  Se  Se144  1  0.58207981  0.91962224  0.54423058  1
  Se  Se145  1  0.91566093  0.24865339  0.05128354  1
  Se  Se146  1  0.91366767  0.24831357  0.55622905  1
  Se  Se147  1  0.92545070  0.59402016  0.05718528  1
  Se  Se148  1  0.91490144  0.58341354  0.54972319  1
  Se  Se149  1  0.91707217  0.92450387  0.06571424  1
  Se  Se150  1  0.92940267  0.92397956  0.55397609  1
  Se  Se151  1  0.08093414  0.24569336  0.44785661  1
  Se  Se152  1  0.07826304  0.26376960  0.94582579  1
  Se  Se153  1  0.07960390  0.58490553  0.43715313  1
  Se  Se154  1  0.07494786  0.58854156  0.93965593  1
  Se  Se155  1  0.06949761  0.92530885  0.43759068  1
  Se  Se156  1  0.07942721  0.92360026  0.95244980  1
  Se  Se157  1  0.40679615  0.25417032  0.43780595  1
  Se  Se158  1  0.41617199  0.25000075  0.93915428  1
  Se  Se159  1  0.42334600  0.58100265  0.45046999  1
  Se  Se160  1  0.41450609  0.57819638  0.94738896  1
  Se  Se161  1  0.42057250  0.91660828  0.44682536  1
  Se  Se162  1  0.42176803  0.90751047  0.94682490  1
  Se  Se163  1  0.72537366  0.27106450  0.44745833  1
  Se  Se164  1  0.75413586  0.25226345  0.94273982  1
  Se  Se165  1  0.75493181  0.58629055  0.44588520  1
  Se  Se166  1  0.73782714  0.59000424  0.94641837  1
  Se  Se167  1  0.75128617  0.92778641  0.43017038  1
  Se  Se168  1  0.74110168  0.92665441  0.93946484  1
  Se  Se169  1  0.24626940  0.08164164  0.44648246  1
  Se  Se170  1  0.26559049  0.07618462  0.94529362  1
  Se  Se171  1  0.25118203  0.40703437  0.43936971  1
  Se  Se172  1  0.25383245  0.41155766  0.93909786  1
  Se  Se173  1  0.26470504  0.74210363  0.44156630  1
  Se  Se174  1  0.24630171  0.74916265  0.94243863  1
  Se  Se175  1  0.59008139  0.08264646  0.43194940  1
  Se  Se176  1  0.59239018  0.08115069  0.93833744  1
  Se  Se177  1  0.57661904  0.42205364  0.45520000  1
  Se  Se178  1  0.58081277  0.41717542  0.94693621  1
  Se  Se179  1  0.58704362  0.75792028  0.44627809  1
  Se  Se180  1  0.57657199  0.75495756  0.95522464  1
  Se  Se181  1  0.89916306  0.08836219  0.43832832  1
  Se  Se182  1  0.91529122  0.09036190  0.95409355  1
  Se  Se183  1  0.91968830  0.42274085  0.45213543  1
  Se  Se184  1  0.91929336  0.41413509  0.93809470  1
  Se  Se185  1  0.91987514  0.74779212  0.43807696  1
  Se  Se186  1  0.91729392  0.74316063  0.94069593  1
  Se  Se187  1  0.24692713  0.24963676  0.30233604  1
  Se  Se188  1  0.25395817  0.25129874  0.79998386  1
  Se  Se189  1  0.24599468  0.57110821  0.31362526  1
  Se  Se190  1  0.24598887  0.57976789  0.79983133  1
  Se  Se191  1  0.24718818  0.91675278  0.30369296  1
  Se  Se192  1  0.25577268  0.91871437  0.80551237  1
  Se  Se193  1  0.57827931  0.23890770  0.31586852  1
  Se  Se194  1  0.58568601  0.25324907  0.79993505  1
  Se  Se195  1  0.58972860  0.57719303  0.30947122  1
  Se  Se196  1  0.57641728  0.57953821  0.81571495  1
  Se  Se197  1  0.57817522  0.91252187  0.30019840  1
  Se  Se198  1  0.58265255  0.91284354  0.80814452  1
  Se  Se199  1  0.91091845  0.25683674  0.30930043  1
  Se  Se200  1  0.92812065  0.24916538  0.80203632  1
  Se  Se201  1  0.92120643  0.58652714  0.30175987  1
  Se  Se202  1  0.91567039  0.58248067  0.79908601  1
  Se  Se203  1  0.91680061  0.91631617  0.29437569  1
  Se  Se204  1  0.91887510  0.91274037  0.80999960  1
  Se  Se205  1  0.07785503  0.08602120  0.30605118  1
  Se  Se206  1  0.09391040  0.08627417  0.81617180  1
  Se  Se207  1  0.08314605  0.41510663  0.30061879  1
  Se  Se208  1  0.08159195  0.41215167  0.79986804  1
  Se  Se209  1  0.08178871  0.74660463  0.29880743  1
  Se  Se210  1  0.08328143  0.74984986  0.80388433  1
  Se  Se211  1  0.40988207  0.07948330  0.30268374  1
  Se  Se212  1  0.42222528  0.08262415  0.80166055  1
  Se  Se213  1  0.41780143  0.41082180  0.30455450  1
  Se  Se214  1  0.41635412  0.41696134  0.80296414  1
  Se  Se215  1  0.42211107  0.74625057  0.31307723  1
  Se  Se216  1  0.41526698  0.74527839  0.80542915  1
  Se  Se217  1  0.72815501  0.07135733  0.29397087  1
  Se  Se218  1  0.76359817  0.08972906  0.80534890  1
  Se  Se219  1  0.76211579  0.41899492  0.31883702  1
  Se  Se220  1  0.74932901  0.41358842  0.80116071  1
  Se  Se221  1  0.74785477  0.74976492  0.30031376  1
  Se  Se222  1  0.75846413  0.75831318  0.80837381  1
  Se  Se223  1  0.24690377  0.08106553  0.19873211  1
  Se  Se224  1  0.25252149  0.08211622  0.69819482  1
  Se  Se225  1  0.25365208  0.41237554  0.19706933  1
  Se  Se226  1  0.25132236  0.41543732  0.69566010  1
  Se  Se227  1  0.24515630  0.75759533  0.18769503  1
  Se  Se228  1  0.25343530  0.74687217  0.70052390  1
  Se  Se229  1  0.57463685  0.08485284  0.19629263  1
  Se  Se230  1  0.57751686  0.09382204  0.68252669  1
  Se  Se231  1  0.57896740  0.41785939  0.19335588  1
  Se  Se232  1  0.58324068  0.42205702  0.69505096  1
  Se  Se233  1  0.58286885  0.74115086  0.19745924  1
  Se  Se234  1  0.58247619  0.75892730  0.69403261  1
  Se  Se235  1  0.91647609  0.08335117  0.20309027  1
  Se  Se236  1  0.91291331  0.09139629  0.69134799  1
  Se  Se237  1  0.91596931  0.41853515  0.19834233  1
  Se  Se238  1  0.92106043  0.41131065  0.69578952  1
  Se  Se239  1  0.91718710  0.75041883  0.19521504  1
  Se  Se240  1  0.92564298  0.74554822  0.69995800  1
  Se  Se241  1  0.07931272  0.25152509  0.19742233  1
  Se  Se242  1  0.08375706  0.24626936  0.69498164  1
  Se  Se243  1  0.08826376  0.58496586  0.19531568  1
  Se  Se244  1  0.07897484  0.58167608  0.69318027  1
  Se  Se245  1  0.07851759  0.91897839  0.19714984  1
  Se  Se246  1  0.09742447  0.90780395  0.68795789  1
  Se  Se247  1  0.41261754  0.25262231  0.20063028  1
  Se  Se248  1  0.41356717  0.25367671  0.69759970  1
  Se  Se249  1  0.42115699  0.57354554  0.19263172  1
  Se  Se250  1  0.41644553  0.58942266  0.69901143  1
  Se  Se251  1  0.41085250  0.90671666  0.19514419  1
  Se  Se252  1  0.41701092  0.92037313  0.69841845  1
  Se  Se253  1  0.75498032  0.24419909  0.19582428  1
  Se  Se254  1  0.74833394  0.25226062  0.69773357  1
  Se  Se255  1  0.74747133  0.58355175  0.20275725  1
  Se  Se256  1  0.75314131  0.57264109  0.68657676  1
  Se  Se257  1  0.74382779  0.91735911  0.19403241  1
  Se  Se258  1  0.76186677  0.91170265  0.68847991  1
