# generated using pymatgen
data_In86Cu29Se144
_symmetry_space_group_name_H-M   'P 1'
_cell_length_a   17.58381519
_cell_length_b   17.58557113
_cell_length_c   23.44763243
_cell_angle_alpha   89.97174171
_cell_angle_beta   89.99433321
_cell_angle_gamma   90.00772331
_symmetry_Int_Tables_number   1
_chemical_formula_structural   In86Cu29Se144
_chemical_formula_sum   'In86 Cu29 Se144'
_cell_volume   7250.50951147
_cell_formula_units_Z   1
loop_
 _symmetry_equiv_pos_site_id
 _symmetry_equiv_pos_as_xyz
  1  'x, y, z'
loop_
 _atom_site_type_symbol
 _atom_site_label
 _atom_site_symmetry_multiplicity
 _atom_site_fract_x
 _atom_site_fract_y
 _atom_site_fract_z
 _atom_site_occupancy
  In  In0  1  0.01656840  0.16756532  0.12499900  1
  In  In1  1  -0.00454175  0.16327382  0.62492453  1
  In  In2  1  0.00337937  0.49319500  0.13286580  1
  In  In3  1  -0.00323810  0.51410200  0.62052859  1
  In  In4  1  -0.00860927  0.82614619  0.11956939  1
  In  In5  1  0.00152787  0.82457423  0.63049366  1
  In  In6  1  0.32188450  0.16015570  0.11569421  1
  In  In7  1  0.33379778  0.18365615  0.62905392  1
  In  In8  1  0.33548268  0.50859663  0.11760587  1
  In  In9  1  0.34263423  0.50222146  0.63648401  1
  In  In10  1  0.33122719  0.83250029  0.12373423  1
  In  In11  1  0.32971328  0.81894904  0.62884953  1
  In  In12  1  0.65663225  0.17295567  0.13505712  1
  In  In13  1  0.67356316  0.16803478  0.62430810  1
  In  In14  1  0.66198391  0.50288417  0.13614231  1
  In  In15  1  0.65375722  0.49201904  0.60408468  1
  In  In16  1  0.67282173  0.82665114  0.13391308  1
  In  In17  1  0.66172569  0.84590128  0.61581161  1
  In  In18  1  0.17814440  -0.00233086  0.37370154  1
  In  In19  1  0.15667861  0.01011418  0.87874471  1
  In  In20  1  0.15149493  0.33346487  0.37494686  1
  In  In21  1  0.19714467  0.31824034  0.90448679  1
  In  In22  1  0.16703505  0.66197958  0.36292882  1
  In  In23  1  0.16641744  0.66727812  0.88259731  1
  In  In24  1  0.49159280  -0.01463281  0.36675989  1
  In  In25  1  0.50950367  0.00916193  0.87932397  1
  In  In26  1  0.51440034  0.33439068  0.37539006  1
  In  In27  1  0.47588682  0.31681526  0.84508323  1
  In  In28  1  0.50035830  0.66588592  0.38104999  1
  In  In29  1  0.49457395  0.66409081  0.86687114  1
  In  In30  1  0.83061232  0.01639081  0.37636810  1
  In  In31  1  0.83578581  -0.01552477  0.87859775  1
  In  In32  1  0.83297144  0.33571331  0.37805658  1
  In  In33  1  0.82725381  0.33994714  0.86945712  1
  In  In34  1  0.82988609  0.65630238  0.37512507  1
  In  In35  1  0.84730630  0.66647859  0.87393298  1
  In  In36  1  -0.01186692  0.17322551  0.38422540  1
  In  In37  1  0.03455632  0.16919203  0.86794330  1
  In  In38  1  -0.00551888  0.49547119  0.37079888  1
  In  In39  1  0.00628657  0.51481043  0.86829646  1
  In  In40  1  0.01149432  0.82694309  0.37076326  1
  In  In41  1  0.00316523  0.83229876  0.87833206  1
  In  In42  1  0.33657252  0.15336896  0.37603179  1
  In  In43  1  0.33103424  0.17295888  0.88052314  1
  In  In44  1  0.32745917  0.51508495  0.37363476  1
  In  In45  1  0.32639044  0.49452690  0.87205099  1
  In  In46  1  0.33674246  0.83444099  0.36689897  1
  In  In47  1  0.32642148  0.81473064  0.87779185  1
  In  In48  1  0.67422382  0.17901985  0.36634593  1
  In  In49  1  0.65164673  0.17609972  0.87860455  1
  In  In50  1  0.67007408  0.50518645  0.38336498  1
  In  In51  1  0.66978698  0.49390473  0.86719483  1
  In  In52  1  0.64690408  0.81075582  0.36499162  1
  In  In53  1  0.66816738  0.84292091  0.88153813  1
  In  In54  1  0.17849949  0.00380941  0.11774940  1
  In  In55  1  0.15331547  0.00158536  0.63166767  1
  In  In56  1  0.16228865  0.32513449  0.11719936  1
  In  In57  1  0.18142987  0.33451767  0.62933925  1
  In  In58  1  0.16683255  0.66243307  0.11959613  1
  In  In59  1  0.16367888  0.66432533  0.63426967  1
  In  In60  1  0.48835712  0.00700616  0.13258842  1
  In  In61  1  0.51040379  0.00443438  0.62230225  1
  In  In62  1  0.50980328  0.33900525  0.12653384  1
  In  In63  1  0.48509864  0.35093163  0.64155555  1
  In  In64  1  0.49831448  0.66698398  0.13156845  1
  In  In65  1  0.48971012  0.65495990  0.60404804  1
  In  In66  1  0.83906247  -0.01341555  0.12900240  1
  In  In67  1  0.82952070  0.01054588  0.62176691  1
  In  In68  1  0.82572800  0.34214305  0.13564374  1
  In  In69  1  0.82479744  0.32546517  0.62019494  1
  In  In70  1  0.82837511  0.67131041  0.13266499  1
  In  In71  1  0.84369526  0.66421137  0.61523304  1
  In  In72  1  0.82882972  0.83247555  0.48901260  1
  In  In73  1  0.49876561  0.83463429  0.01047258  1
  In  In74  1  0.00293162  0.00112082  0.24944177  1
  In  In75  1  0.32858726  0.00523054  0.75833456  1
  In  In76  1  0.84661592  0.15874971  0.00479592  1
  In  In77  1  0.00450242  0.33619512  0.75382412  1
  In  In78  1  0.33391545  0.33245359  0.24360041  1
  In  In79  1  0.66949454  0.00755443  0.74591550  1
  In  In80  1  0.16504420  0.49759035  0.49883409  1
  In  In81  1  0.16693696  0.83285189  0.50701591  1
  In  In82  1  0.66358040  0.66583857  0.74073071  1
  In  In83  1  0.83695643  0.50346868  -0.00622699  1
  In  In84  1  0.49452448  0.48993662  -0.00915478  1
  In  In85  1  0.50487777  0.16989886  0.49971090  1
  Cu  Cu86  1  0.16763270  0.49998005  0.75494784  1
  Cu  Cu87  1  0.66968307  0.33345607  0.49733113  1
  Cu  Cu88  1  0.66540741  0.32909774  0.00397016  1
  Cu  Cu89  1  0.33078894  0.00223102  0.49535380  1
  Cu  Cu90  1  0.16752178  0.16796260  0.24475714  1
  Cu  Cu91  1  0.83289038  0.17521832  0.25387382  1
  Cu  Cu92  1  0.50191360  0.82553578  0.24947719  1
  Cu  Cu93  1  0.83971858  0.82641105  0.75207709  1
  Cu  Cu94  1  0.66546177  0.67027684  0.00735494  1
  Cu  Cu95  1  0.00489747  0.33589660  0.00305573  1
  Cu  Cu96  1  0.33519058  0.66783689  0.49940558  1
  Cu  Cu97  1  0.15871931  0.82595316  0.75463017  1
  Cu  Cu98  1  0.33770045  0.33857458  0.50856847  1
  Cu  Cu99  1  0.83066734  0.50248022  0.25684795  1
  Cu  Cu100  1  0.17053338  0.82911158  0.24430188  1
  Cu  Cu101  1  0.49380933  0.83301854  0.74702745  1
  Cu  Cu102  1  0.83686488  0.16041063  0.74909913  1
  Cu  Cu103  1  0.66147107  0.00107686  0.49339751  1
  Cu  Cu104  1  0.00647283  -0.00272307  -0.00014871  1
  Cu  Cu105  1  0.33687148  -0.00257642  -0.00014687  1
  Cu  Cu106  1  -0.00192835  0.00368577  0.50535504  1
  Cu  Cu107  1  -0.00026702  0.67213115  0.00016078  1
  Cu  Cu108  1  0.16522424  0.50586072  0.24785456  1
  Cu  Cu109  1  0.67105170  0.00357030  0.00214305  1
  Cu  Cu110  1  0.83155752  0.83203203  0.25220132  1
  Cu  Cu111  1  0.50291791  0.50142407  0.25435551  1
  Cu  Cu112  1  0.49832634  0.15883867  0.25305319  1
  Cu  Cu113  1  -0.00289888  0.32691063  0.50132048  1
  Cu  Cu114  1  0.83031293  0.50054970  0.74398673  1
  Se  Se115  1  0.08760108  0.08385017  0.05228760  1
  Se  Se116  1  0.08502547  0.08502516  0.55620215  1
  Se  Se117  1  0.08312069  0.42240543  0.05636164  1
  Se  Se118  1  0.07760910  0.40716773  0.56258566  1
  Se  Se119  1  0.08504645  0.75316779  0.05382952  1
  Se  Se120  1  0.07577685  0.73534706  0.55663431  1
  Se  Se121  1  0.41848021  0.08218419  0.05303875  1
  Se  Se122  1  0.40884809  0.08236845  0.55883937  1
  Se  Se123  1  0.40951775  0.40289269  0.05760802  1
  Se  Se124  1  0.41806056  0.42451223  0.55924993  1
  Se  Se125  1  0.40836784  0.73398739  0.05617080  1
  Se  Se126  1  0.41276046  0.75994590  0.54956339  1
  Se  Se127  1  0.74861365  0.08081727  0.06658850  1
  Se  Se128  1  0.74300361  0.08210655  0.54981565  1
  Se  Se129  1  0.74284188  0.41870085  0.05761555  1
  Se  Se130  1  0.75730264  0.41580031  0.54840533  1
  Se  Se131  1  0.75146015  0.75139717  0.05778255  1
  Se  Se132  1  0.74316937  0.74868965  0.55625092  1
  Se  Se133  1  0.25162744  0.25255085  0.04919354  1
  Se  Se134  1  0.25046681  0.25200113  0.55270743  1
  Se  Se135  1  0.23860763  0.57007624  0.04978805  1
  Se  Se136  1  0.25327829  0.58814177  0.56028886  1
  Se  Se137  1  0.25296577  0.91251290  0.05046738  1
  Se  Se138  1  0.25649132  0.92639700  0.56442244  1
  Se  Se139  1  0.58220441  0.24786131  0.05713475  1
  Se  Se140  1  0.58626198  0.26161123  0.56252381  1
  Se  Se141  1  0.58392003  0.58238313  0.05762629  1
  Se  Se142  1  0.59340877  0.59604471  0.54149633  1
  Se  Se143  1  0.59152034  0.92475655  0.06625829  1
  Se  Se144  1  0.57509492  0.92114818  0.54540182  1
  Se  Se145  1  0.92103799  0.26233440  0.06500766  1
  Se  Se146  1  0.91313183  0.24367092  0.55492892  1
  Se  Se147  1  0.91956553  0.58926778  0.06096317  1
  Se  Se148  1  0.91544644  0.57820820  0.54360649  1
  Se  Se149  1  0.91714530  0.91831865  0.05117359  1
  Se  Se150  1  0.91883821  0.91541417  0.55940999  1
  Se  Se151  1  0.08484766  0.24701345  0.44903698  1
  Se  Se152  1  0.08530540  0.24538271  0.95411794  1
  Se  Se153  1  0.08069080  0.58884600  0.43754726  1
  Se  Se154  1  0.07835793  0.58267711  0.94913744  1
  Se  Se155  1  0.07730821  0.92456284  0.44405780  1
  Se  Se156  1  0.08900550  0.91366450  0.94644295  1
  Se  Se157  1  0.41017754  0.25872799  0.44030762  1
  Se  Se158  1  0.42775472  0.25499651  0.93698741  1
  Se  Se159  1  0.41427225  0.57908579  0.44790600  1
  Se  Se160  1  0.40969990  0.59210688  0.94084557  1
  Se  Se161  1  0.40981846  0.91548251  0.44305862  1
  Se  Se162  1  0.41675956  0.91860826  0.93820814  1
  Se  Se163  1  0.75134405  0.24640414  0.44574457  1
  Se  Se164  1  0.75468908  0.25315820  0.94713655  1
  Se  Se165  1  0.75866257  0.58115955  0.45211343  1
  Se  Se166  1  0.73946301  0.59359078  0.93870090  1
  Se  Se167  1  0.73780714  0.92164441  0.43054014  1
  Se  Se168  1  0.75225854  0.91455886  0.95429047  1
  Se  Se169  1  0.24473115  0.08642389  0.44747362  1
  Se  Se170  1  0.25362412  0.07971306  0.94475809  1
  Se  Se171  1  0.25746915  0.40814680  0.43883786  1
  Se  Se172  1  0.24598214  0.43798868  0.95543964  1
  Se  Se173  1  0.25039496  0.74447933  0.43936359  1
  Se  Se174  1  0.24531877  0.75026860  0.95368454  1
  Se  Se175  1  0.58388921  0.08195189  0.43080215  1
  Se  Se176  1  0.58588369  0.08778509  0.95323658  1
  Se  Se177  1  0.58234006  0.41818086  0.44925758  1
  Se  Se178  1  0.59334131  0.40568855  0.93687261  1
  Se  Se179  1  0.57809246  0.75297684  0.45003293  1
  Se  Se180  1  0.58426649  0.74385515  0.94215319  1
  Se  Se181  1  0.91169134  0.08460231  0.45286686  1
  Se  Se182  1  0.93131199  0.07846729  0.93537586  1
  Se  Se183  1  0.92136037  0.41481893  0.44622610  1
  Se  Se184  1  0.92766241  0.40942028  0.93726361  1
  Se  Se185  1  0.92826126  0.74364360  0.43949652  1
  Se  Se186  1  0.91314576  0.75300988  0.94764809  1
  Se  Se187  1  0.24668264  0.24548075  0.30959237  1
  Se  Se188  1  0.24192960  0.25012878  0.81389630  1
  Se  Se189  1  0.25646455  0.58746011  0.29410546  1
  Se  Se190  1  0.24661661  0.58763407  0.80859258  1
  Se  Se191  1  0.24900972  0.91515620  0.29966797  1
  Se  Se192  1  0.24114073  0.90721788  0.81290463  1
  Se  Se193  1  0.57961551  0.25054198  0.29933464  1
  Se  Se194  1  0.60069403  0.26421241  0.80160432  1
  Se  Se195  1  0.58372926  0.58237357  0.31183632  1
  Se  Se196  1  0.57597468  0.57387264  0.80102784  1
  Se  Se197  1  0.58495968  0.91367621  0.29969480  1
  Se  Se198  1  0.57751488  0.91149467  0.80532291  1
  Se  Se199  1  0.91899475  0.25402144  0.30771213  1
  Se  Se200  1  0.91498832  0.23967514  0.81342152  1
  Se  Se201  1  0.92011255  0.58687174  0.30298988  1
  Se  Se202  1  0.91349530  0.58216981  0.79810955  1
  Se  Se203  1  0.91178990  0.91352879  0.31230068  1
  Se  Se204  1  0.91907489  0.91268848  0.80554986  1
  Se  Se205  1  0.08822928  0.09210051  0.31148662  1
  Se  Se206  1  0.08319659  0.07246374  0.79536483  1
  Se  Se207  1  0.08469224  0.41956817  0.30129422  1
  Se  Se208  1  0.09634571  0.41557293  0.81804718  1
  Se  Se209  1  0.08426173  0.74792766  0.29621575  1
  Se  Se210  1  0.07822371  0.74189795  0.80981250  1
  Se  Se211  1  0.41066410  0.07578685  0.30112341  1
  Se  Se212  1  0.42818847  0.09216844  0.80947024  1
  Se  Se213  1  0.41810114  0.42022279  0.31098400  1
  Se  Se214  1  0.41875195  0.43422544  0.79846148  1
  Se  Se215  1  0.41889776  0.74332670  0.30559723  1
  Se  Se216  1  0.41294522  0.75083793  0.80139436  1
  Se  Se217  1  0.74972104  0.08506524  0.29979972  1
  Se  Se218  1  0.75562551  0.08776453  0.81643854  1
  Se  Se219  1  0.74779910  0.41930828  0.31148560  1
  Se  Se220  1  0.74909507  0.41442400  0.79471916  1
  Se  Se221  1  0.75260977  0.74494376  0.30591247  1
  Se  Se222  1  0.74943336  0.75433314  0.80992061  1
  Se  Se223  1  0.25128897  0.08278483  0.19478504  1
  Se  Se224  1  0.24447887  0.09189617  0.69271458  1
  Se  Se225  1  0.24253826  0.42278839  0.18658177  1
  Se  Se226  1  0.25350798  0.41958360  0.70056540  1
  Se  Se227  1  0.25125774  0.74432051  0.19010479  1
  Se  Se228  1  0.24694681  0.74677802  0.70213324  1
  Se  Se229  1  0.58396424  0.07689977  0.19988755  1
  Se  Se230  1  0.57310566  0.09951467  0.69509541  1
  Se  Se231  1  0.58480700  0.41391067  0.20344539  1
  Se  Se232  1  0.59409749  0.42416094  0.68985529  1
  Se  Se233  1  0.58796472  0.74157661  0.19909757  1
  Se  Se234  1  0.57670290  0.76174519  0.68411859  1
  Se  Se235  1  0.91202367  0.09502065  0.19074080  1
  Se  Se236  1  0.91695540  0.07691588  0.69554626  1
  Se  Se237  1  0.91396493  0.41895374  0.20205357  1
  Se  Se238  1  0.91416626  0.41804740  0.68723699  1
  Se  Se239  1  0.91796115  0.75248514  0.19822099  1
  Se  Se240  1  0.91446391  0.74062091  0.69472913  1
  Se  Se241  1  0.08400246  0.25584587  0.19758581  1
  Se  Se242  1  0.08891750  0.24611601  0.69122482  1
  Se  Se243  1  0.08109022  0.58879484  0.19412968  1
  Se  Se244  1  0.08050850  0.57710137  0.69901448  1
  Se  Se245  1  0.08927732  0.91319404  0.18592976  1
  Se  Se246  1  0.08013487  0.91023841  0.69869134  1
  Se  Se247  1  0.42250659  0.23847992  0.18721276  1
  Se  Se248  1  0.41901448  0.24895139  0.70218816  1
  Se  Se249  1  0.41789187  0.57568157  0.19500055  1
  Se  Se250  1  0.41739188  0.60486568  0.69116495  1
  Se  Se251  1  0.41704878  0.90781200  0.19507619  1
  Se  Se252  1  0.41773919  0.92004432  0.68942602  1
  Se  Se253  1  0.74492239  0.25462300  0.20030121  1
  Se  Se254  1  0.75415474  0.24539827  0.69766608  1
  Se  Se255  1  0.74841533  0.58511471  0.20029975  1
  Se  Se256  1  0.75263248  0.57753243  0.68051651  1
  Se  Se257  1  0.75045872  0.91833270  0.20068056  1
  Se  Se258  1  0.75896910  0.90786577  0.69187382  1
