# generated using pymatgen
data_In86Cu29Se144
_symmetry_space_group_name_H-M   'P 1'
_cell_length_a   17.66543079
_cell_length_b   17.66935776
_cell_length_c   23.51224822
_cell_angle_alpha   90.00234205
_cell_angle_beta   90.01344607
_cell_angle_gamma   89.99864354
_symmetry_Int_Tables_number   1
_chemical_formula_structural   In86Cu29Se144
_chemical_formula_sum   'In86 Cu29 Se144'
_cell_volume   7339.03810245
_cell_formula_units_Z   1
loop_
 _symmetry_equiv_pos_site_id
 _symmetry_equiv_pos_as_xyz
  1  'x, y, z'
loop_
 _atom_site_type_symbol
 _atom_site_label
 _atom_site_symmetry_multiplicity
 _atom_site_fract_x
 _atom_site_fract_y
 _atom_site_fract_z
 _atom_site_occupancy
  In  In0  1  -0.01126696  0.16998955  0.12663673  1
  In  In1  1  0.00326394  0.15823180  0.63137511  1
  In  In2  1  -0.00988954  0.49907367  0.12972929  1
  In  In3  1  0.00013143  0.49301299  0.63222727  1
  In  In4  1  -0.01274590  0.82132603  0.11498648  1
  In  In5  1  0.00841478  0.82750628  0.62993932  1
  In  In6  1  0.33364328  0.15087221  0.12723200  1
  In  In7  1  0.32590405  0.16309668  0.61864737  1
  In  In8  1  0.33510214  0.50306833  0.12581771  1
  In  In9  1  0.34239337  0.50177691  0.62897279  1
  In  In10  1  0.34606955  0.84201811  0.11909125  1
  In  In11  1  0.33103906  0.83694679  0.62938718  1
  In  In12  1  0.65152572  0.14824568  0.09010135  1
  In  In13  1  0.65703495  0.17014773  0.63793022  1
  In  In14  1  0.69466508  0.50490839  0.11471844  1
  In  In15  1  0.67593862  0.49396805  0.64799969  1
  In  In16  1  0.66518826  0.83020097  0.12464416  1
  In  In17  1  0.66457480  0.83547746  0.63659331  1
  In  In18  1  0.17369144  -0.01092049  0.38319999  1
  In  In19  1  0.15661180  -0.01258934  0.86420309  1
  In  In20  1  0.14622637  0.32977762  0.37789547  1
  In  In21  1  0.15248960  0.34889193  0.86964982  1
  In  In22  1  0.16332478  0.67845814  0.37723343  1
  In  In23  1  0.16438541  0.67304282  0.86993614  1
  In  In24  1  0.50644851  0.00705106  0.36849449  1
  In  In25  1  0.49982379  0.00927780  0.87446495  1
  In  In26  1  0.49374797  0.33099963  0.37428007  1
  In  In27  1  0.51782033  0.30164441  0.88507758  1
  In  In28  1  0.50462368  0.66687327  0.37348213  1
  In  In29  1  0.51428947  0.68216818  0.87271604  1
  In  In30  1  0.82357289  0.00801249  0.36614849  1
  In  In31  1  0.83965638  0.00383188  0.88355530  1
  In  In32  1  0.84233626  0.32588443  0.36879941  1
  In  In33  1  0.82882781  0.32626523  0.88147055  1
  In  In34  1  0.83165807  0.66881701  0.36436348  1
  In  In35  1  0.83933157  0.67280164  0.88233856  1
  In  In36  1  -0.00428101  0.17379961  0.37057001  1
  In  In37  1  -0.00090095  0.16380787  0.87098813  1
  In  In38  1  -0.00666050  0.49494419  0.36898712  1
  In  In39  1  -0.03793686  0.48260809  0.84783911  1
  In  In40  1  0.01043994  0.83363654  0.37313043  1
  In  In41  1  0.00078065  0.82996488  0.88002318  1
  In  In42  1  0.34035762  0.15478149  0.37931233  1
  In  In43  1  0.34670672  0.15572887  0.86826017  1
  In  In44  1  0.33822894  0.50380962  0.37667270  1
  In  In45  1  0.32507208  0.50540096  0.86805527  1
  In  In46  1  0.31856330  0.83811884  0.37857903  1
  In  In47  1  0.33141529  0.83751174  0.87279580  1
  In  In48  1  0.66307316  0.15629274  0.36980520  1
  In  In49  1  0.66612124  0.16141634  0.87653714  1
  In  In50  1  0.65710075  0.51046920  0.37509382  1
  In  In51  1  0.68937268  0.50938252  0.86674623  1
  In  In52  1  0.66282986  0.83564392  0.36850671  1
  In  In53  1  0.67048716  0.84354860  0.89082806  1
  In  In54  1  0.18139744  -0.00287185  0.12753437  1
  In  In55  1  0.16940349  -0.00074690  0.62535400  1
  In  In56  1  0.14756957  0.32114048  0.12899413  1
  In  In57  1  0.16363482  0.32019621  0.62171908  1
  In  In58  1  0.15207880  0.66432318  0.12803866  1
  In  In59  1  0.16275334  0.67256001  0.62582467  1
  In  In60  1  0.50181440  0.00100892  0.12145081  1
  In  In61  1  0.48419010  0.01700046  0.64641503  1
  In  In62  1  0.51927962  0.33133564  0.11737754  1
  In  In63  1  0.51242926  0.33183427  0.62873435  1
  In  In64  1  0.50617064  0.68747586  0.11903406  1
  In  In65  1  0.50318279  0.66500407  0.64125733  1
  In  In66  1  0.78487713  -0.02481425  0.07507227  1
  In  In67  1  0.83056204  0.00188270  0.63885654  1
  In  In68  1  0.83539712  0.33229725  0.11161793  1
  In  In69  1  0.83942784  0.32570822  0.64019737  1
  In  In70  1  0.83595817  0.66734473  0.12505709  1
  In  In71  1  0.83915327  0.65578028  0.64949193  1
  In  In72  1  0.50482650  0.49932715  -0.01503834  1
  In  In73  1  0.16020473  0.51006663  -0.00281777  1
  In  In74  1  0.50156398  0.50185698  0.50093224  1
  In  In75  1  0.33326390  0.32999726  0.25630270  1
  In  In76  1  0.16564959  0.17004702  -0.00846545  1
  In  In77  1  0.33066118  0.67426712  0.25756313  1
  In  In78  1  0.83396732  0.83198504  0.50723568  1
  In  In79  1  0.32838677  0.33428470  0.75138104  1
  In  In80  1  0.68185329  0.33646823  0.23631621  1
  In  In81  1  0.83830107  0.16532383  0.50258642  1
  In  In82  1  0.49896271  0.83713107  0.51193619  1
  In  In83  1  0.16773544  0.49759252  0.50657189  1
  In  In84  1  0.83128584  0.49604719  0.50681563  1
  In  In85  1  -0.00508555  -0.00035300  0.24270732  1
  Cu  Cu86  1  0.16323495  0.16054809  0.24897764  1
  Cu  Cu87  1  0.66405301  0.00508857  0.49894923  1
  Cu  Cu88  1  0.50745044  0.16912304  0.24367038  1
  Cu  Cu89  1  0.49710299  0.49315504  0.75753080  1
  Cu  Cu90  1  0.51164231  0.51526163  0.24575748  1
  Cu  Cu91  1  0.33189051  0.33168572  0.00102861  1
  Cu  Cu92  1  0.15869396  0.51011485  0.74740144  1
  Cu  Cu93  1  0.33059826  0.67978670  -0.00496861  1
  Cu  Cu94  1  0.15972508  0.49338229  0.24929690  1
  Cu  Cu95  1  0.00789928  0.00081651  0.50335728  1
  Cu  Cu96  1  0.66888972  0.32196912  0.50647251  1
  Cu  Cu97  1  0.50509398  0.83293284  0.76178714  1
  Cu  Cu98  1  0.83359827  0.50207583  0.24527831  1
  Cu  Cu99  1  0.67122266  0.66566866  -0.00218222  1
  Cu  Cu100  1  0.82905013  0.83714680  0.23640420  1
  Cu  Cu101  1  0.33311114  0.32443707  0.49676442  1
  Cu  Cu102  1  0.16547881  0.16596323  0.74553327  1
  Cu  Cu103  1  0.66661313  0.66697119  0.50957497  1
  Cu  Cu104  1  0.83279059  0.16279687  0.75947408  1
  Cu  Cu105  1  0.00269838  0.66878535  0.50366265  1
  Cu  Cu106  1  0.82380864  0.15938973  0.23793365  1
  Cu  Cu107  1  0.83284359  0.83726836  0.76381367  1
  Cu  Cu108  1  0.33379863  -0.00364969  -0.00214825  1
  Cu  Cu109  1  0.33538722  -0.00177785  0.50574683  1
  Cu  Cu110  1  0.01528892  -0.00366851  -0.00084271  1
  Cu  Cu111  1  0.16492209  0.83352821  0.25346897  1
  Cu  Cu112  1  0.16765701  0.83666104  0.74773581  1
  Cu  Cu113  1  0.50411771  0.84376389  0.24474262  1
  Cu  Cu114  1  -0.00052429  0.66454614  -0.00111637  1
  Se  Se115  1  0.08829264  0.08133912  0.06246293  1
  Se  Se116  1  0.08603304  0.08520923  0.55753618  1
  Se  Se117  1  0.08033583  0.41572269  0.05959470  1
  Se  Se118  1  0.07176818  0.40675953  0.55616578  1
  Se  Se119  1  0.08524570  0.74607117  0.05217396  1
  Se  Se120  1  0.08558759  0.75410537  0.55252895  1
  Se  Se121  1  0.41342738  0.08172673  0.05223515  1
  Se  Se122  1  0.42038595  0.07975930  0.55839325  1
  Se  Se123  1  0.41370238  0.41537319  0.05609615  1
  Se  Se124  1  0.41110584  0.40611108  0.55702253  1
  Se  Se125  1  0.41973920  0.75647624  0.04740309  1
  Se  Se126  1  0.41604590  0.73847062  0.56612725  1
  Se  Se127  1  0.78060516  0.11659989  0.04250862  1
  Se  Se128  1  0.74693410  0.07892158  0.56167943  1
  Se  Se129  1  0.73008520  0.39500185  0.05059842  1
  Se  Se130  1  0.74118529  0.40625410  0.56635872  1
  Se  Se131  1  0.75064182  0.74674253  0.05647315  1
  Se  Se132  1  0.74918083  0.74177979  0.56987873  1
  Se  Se133  1  0.25316474  0.25428865  0.06328013  1
  Se  Se134  1  0.24577818  0.24668331  0.54916174  1
  Se  Se135  1  0.25903190  0.59516791  0.05776046  1
  Se  Se136  1  0.25972617  0.58802149  0.56048111  1
  Se  Se137  1  0.25165819  0.91535462  0.05289031  1
  Se  Se138  1  0.25160429  0.91453743  0.55638050  1
  Se  Se139  1  0.57386666  0.25077825  0.03781015  1
  Se  Se140  1  0.58263318  0.24260460  0.55774994  1
  Se  Se141  1  0.58586797  0.58628974  0.05705347  1
  Se  Se142  1  0.59121146  0.58163606  0.56774025  1
  Se  Se143  1  0.58828993  0.91853496  0.05712386  1
  Se  Se144  1  0.59138415  0.92778334  0.56455055  1
  Se  Se145  1  0.93995833  0.26395849  0.05292525  1
  Se  Se146  1  0.92333383  0.25550186  0.56289235  1
  Se  Se147  1  0.91811978  0.58302012  0.05637737  1
  Se  Se148  1  0.91951588  0.59276491  0.56214374  1
  Se  Se149  1  0.92398939  0.92594693  0.05484821  1
  Se  Se150  1  0.92146581  0.92686051  0.56314749  1
  Se  Se151  1  0.07905919  0.23861379  0.44549957  1
  Se  Se152  1  0.07419867  0.26432658  0.94029782  1
  Se  Se153  1  0.07488863  0.58297470  0.44164020  1
  Se  Se154  1  0.07051569  0.58618985  0.93158321  1
  Se  Se155  1  0.08283155  0.91161085  0.44892731  1
  Se  Se156  1  0.09295130  0.91144159  0.94558195  1
  Se  Se157  1  0.42044304  0.24654907  0.44376537  1
  Se  Se158  1  0.40617825  0.24613214  0.94400716  1
  Se  Se159  1  0.41100127  0.59722317  0.44539617  1
  Se  Se160  1  0.40741960  0.59395319  0.93692996  1
  Se  Se161  1  0.41640135  0.92215485  0.44174915  1
  Se  Se162  1  0.41644165  0.91916234  0.94015315  1
  Se  Se163  1  0.74550127  0.25175295  0.43832289  1
  Se  Se164  1  0.76694465  0.22238422  0.94671898  1
  Se  Se165  1  0.74583530  0.59203837  0.44504315  1
  Se  Se166  1  0.75682569  0.58323779  0.94807507  1
  Se  Se167  1  0.74505751  0.92266493  0.44252873  1
  Se  Se168  1  0.75049832  0.93371526  0.95662057  1
  Se  Se169  1  0.25337187  0.07877197  0.44782731  1
  Se  Se170  1  0.25224777  0.07471293  0.93563981  1
  Se  Se171  1  0.25596054  0.40927259  0.43870427  1
  Se  Se172  1  0.25327470  0.41244004  0.94286735  1
  Se  Se173  1  0.25742624  0.74125180  0.44477182  1
  Se  Se174  1  0.24419699  0.75529481  0.94052158  1
  Se  Se175  1  0.58127957  0.08635442  0.44456746  1
  Se  Se176  1  0.57523665  0.09175674  0.94702849  1
  Se  Se177  1  0.59362060  0.40629022  0.44390131  1
  Se  Se178  1  0.59822209  0.41133540  0.93209420  1
  Se  Se179  1  0.59083582  0.74718687  0.44749897  1
  Se  Se180  1  0.58524168  0.75239207  0.95323282  1
  Se  Se181  1  0.92181276  0.06997741  0.43930022  1
  Se  Se182  1  0.93403709  0.08119157  0.94826362  1
  Se  Se183  1  0.91960893  0.40759155  0.44443362  1
  Se  Se184  1  0.91300477  0.42315895  0.93889094  1
  Se  Se185  1  0.92005764  0.74382180  0.44118071  1
  Se  Se186  1  0.91710950  0.75696496  0.95448967  1
  Se  Se187  1  0.24099389  0.24129109  0.31311075  1
  Se  Se188  1  0.23824222  0.24525085  0.81346834  1
  Se  Se189  1  0.23980187  0.57291119  0.30912066  1
  Se  Se190  1  0.24596162  0.58786008  0.80002936  1
  Se  Se191  1  0.24878415  0.91836672  0.30289169  1
  Se  Se192  1  0.25397622  0.91922231  0.79863702  1
  Se  Se193  1  0.58353801  0.25525315  0.30232361  1
  Se  Se194  1  0.58649746  0.23898126  0.80238072  1
  Se  Se195  1  0.59145830  0.59716226  0.30124141  1
  Se  Se196  1  0.57804180  0.57644066  0.81257505  1
  Se  Se197  1  0.58859500  0.92415452  0.30052075  1
  Se  Se198  1  0.58584983  0.91460088  0.81653086  1
  Se  Se199  1  0.90678519  0.23789250  0.29563706  1
  Se  Se200  1  0.91588595  0.25080195  0.80720976  1
  Se  Se201  1  0.91615968  0.58251391  0.30205043  1
  Se  Se202  1  0.92139882  0.60833576  0.80378587  1
  Se  Se203  1  0.90657291  0.90760809  0.30773529  1
  Se  Se204  1  0.92008499  0.91839792  0.81413174  1
  Se  Se205  1  0.08551929  0.07833300  0.31120488  1
  Se  Se206  1  0.08350869  0.08417205  0.80171889  1
  Se  Se207  1  0.07635597  0.41035833  0.30224265  1
  Se  Se208  1  0.07557202  0.41952745  0.79309875  1
  Se  Se209  1  0.08101858  0.74660200  0.30091251  1
  Se  Se210  1  0.08262837  0.75762256  0.80290407  1
  Se  Se211  1  0.42301327  0.09103164  0.30074183  1
  Se  Se212  1  0.42176434  0.08024971  0.79517135  1
  Se  Se213  1  0.43046570  0.43307486  0.30309310  1
  Se  Se214  1  0.42052532  0.41105824  0.81876814  1
  Se  Se215  1  0.42632756  0.76710013  0.31120254  1
  Se  Se216  1  0.41529998  0.74847114  0.80751695  1
  Se  Se217  1  0.74037465  0.08070510  0.29451213  1
  Se  Se218  1  0.75342546  0.07603609  0.81067558  1
  Se  Se219  1  0.75402056  0.42626154  0.31234233  1
  Se  Se220  1  0.75679264  0.40953692  0.80581881  1
  Se  Se221  1  0.75120855  0.75830699  0.30130365  1
  Se  Se222  1  0.75007088  0.75961661  0.82067245  1
  Se  Se223  1  0.25251663  0.08011251  0.20219272  1
  Se  Se224  1  0.25102301  0.08511456  0.69402663  1
  Se  Se225  1  0.24419279  0.41769665  0.19050179  1
  Se  Se226  1  0.23766058  0.42463233  0.68788396  1
  Se  Se227  1  0.24617878  0.75582066  0.18876739  1
  Se  Se228  1  0.24857034  0.74990844  0.69496751  1
  Se  Se229  1  0.58749877  0.09414702  0.18181616  1
  Se  Se230  1  0.60683452  0.05760370  0.69612714  1
  Se  Se231  1  0.58447450  0.43160615  0.18574154  1
  Se  Se232  1  0.58148263  0.41039900  0.70509279  1
  Se  Se233  1  0.58376256  0.75210233  0.19847539  1
  Se  Se234  1  0.58633095  0.75015511  0.70526400  1
  Se  Se235  1  0.90057094  0.07466087  0.18013060  1
  Se  Se236  1  0.91767670  0.08401499  0.70222550  1
  Se  Se237  1  0.90540871  0.41029847  0.19221029  1
  Se  Se238  1  0.89067331  0.44226049  0.69331026  1
  Se  Se239  1  0.91821069  0.74933912  0.19618625  1
  Se  Se240  1  0.91314967  0.76273399  0.69957738  1
  Se  Se241  1  0.07442485  0.24128112  0.20226800  1
  Se  Se242  1  0.08121250  0.25182517  0.69679148  1
  Se  Se243  1  0.07838108  0.57907383  0.19721062  1
  Se  Se244  1  0.07660709  0.59004043  0.69156848  1
  Se  Se245  1  0.08622406  0.90662381  0.18667467  1
  Se  Se246  1  0.08380541  0.92014682  0.69503044  1
  Se  Se247  1  0.42408775  0.25224859  0.18748669  1
  Se  Se248  1  0.41512435  0.24796998  0.68813580  1
  Se  Se249  1  0.42159703  0.59008261  0.19071350  1
  Se  Se250  1  0.41640604  0.57807856  0.70404949  1
  Se  Se251  1  0.41687436  0.92351032  0.19393258  1
  Se  Se252  1  0.42219251  0.90568901  0.69975381  1
  Se  Se253  1  0.74693860  0.23538578  0.17369913  1
  Se  Se254  1  0.75125525  0.24439586  0.70227094  1
  Se  Se255  1  0.74990525  0.58654785  0.19559557  1
  Se  Se256  1  0.72892708  0.60257734  0.70767610  1
  Se  Se257  1  0.75830659  0.92296133  0.17864337  1
  Se  Se258  1  0.75160448  0.91383701  0.70388470  1
