# generated using pymatgen
data_In86Cu29Se144
_symmetry_space_group_name_H-M   'P 1'
_cell_length_a   17.57355612
_cell_length_b   17.57419577
_cell_length_c   23.43629318
_cell_angle_alpha   89.99867914
_cell_angle_beta   90.00607678
_cell_angle_gamma   90.00245197
_symmetry_Int_Tables_number   1
_chemical_formula_structural   In86Cu29Se144
_chemical_formula_sum   'In86 Cu29 Se144'
_cell_volume   7238.09088568
_cell_formula_units_Z   1
loop_
 _symmetry_equiv_pos_site_id
 _symmetry_equiv_pos_as_xyz
  1  'x, y, z'
loop_
 _atom_site_type_symbol
 _atom_site_label
 _atom_site_symmetry_multiplicity
 _atom_site_fract_x
 _atom_site_fract_y
 _atom_site_fract_z
 _atom_site_occupancy
  In  In0  1  0.00849961  0.16846607  0.13236955  1
  In  In1  1  -0.00517521  0.17457438  0.63247307  1
  In  In2  1  0.00369510  0.48677369  0.12347752  1
  In  In3  1  -0.00110468  0.50240861  0.62862194  1
  In  In4  1  0.01395094  0.83784904  0.12250363  1
  In  In5  1  0.01676002  0.82147108  0.63221670  1
  In  In6  1  0.32934639  0.16683234  0.11594389  1
  In  In7  1  0.34182814  0.16061944  0.63448792  1
  In  In8  1  0.33335305  0.51454673  0.12289219  1
  In  In9  1  0.34186789  0.50384496  0.64593362  1
  In  In10  1  0.32483646  0.82800148  0.11692926  1
  In  In11  1  0.33366882  0.83291290  0.62452971  1
  In  In12  1  0.65448804  0.16278170  0.12253790  1
  In  In13  1  0.67410469  0.16897123  0.61692620  1
  In  In14  1  0.67210799  0.49935197  0.12728119  1
  In  In15  1  0.66483172  0.47987261  0.62815403  1
  In  In16  1  0.66179800  0.83875753  0.13251750  1
  In  In17  1  0.65484829  0.85075993  0.61704287  1
  In  In18  1  0.14800731  -0.00182164  0.37410625  1
  In  In19  1  0.17008875  0.00157198  0.87529160  1
  In  In20  1  0.15662914  0.33591529  0.36601823  1
  In  In21  1  0.16319059  0.33101760  0.87953985  1
  In  In22  1  0.18446539  0.65968998  0.36996914  1
  In  In23  1  0.16784270  0.66713479  0.87451846  1
  In  In24  1  0.51106300  -0.01189657  0.38771499  1
  In  In25  1  0.48561065  0.00786230  0.88117566  1
  In  In26  1  0.49704425  0.31538005  0.37862287  1
  In  In27  1  0.49225859  0.32947989  0.86761087  1
  In  In28  1  0.50290445  0.67456212  0.36970739  1
  In  In29  1  0.50069211  0.68591496  0.88001332  1
  In  In30  1  0.84343176  0.00629954  0.36987015  1
  In  In31  1  0.84070177  -0.00918926  0.87116022  1
  In  In32  1  0.83715461  0.31993731  0.38452429  1
  In  In33  1  0.83636563  0.33552068  0.86610281  1
  In  In34  1  0.81961588  0.67074857  0.37867085  1
  In  In35  1  0.83484158  0.65379932  0.87381995  1
  In  In36  1  -0.00660558  0.15494865  0.36743588  1
  In  In37  1  0.01842218  0.18270612  0.86543369  1
  In  In38  1  0.00116710  0.47623777  0.37156443  1
  In  In39  1  0.00246640  0.50248512  0.87236724  1
  In  In40  1  -0.00327463  0.84645040  0.37673580  1
  In  In41  1  0.01351502  0.84517854  0.86646451  1
  In  In42  1  0.34227773  0.17419112  0.38081459  1
  In  In43  1  0.33091933  0.16563754  0.87458598  1
  In  In44  1  0.31946418  0.50989274  0.36967576  1
  In  In45  1  0.32618798  0.48577638  0.86190469  1
  In  In46  1  0.33976510  0.82742209  0.38040751  1
  In  In47  1  0.33142192  0.83599835  0.87593083  1
  In  In48  1  0.67949257  0.14965743  0.38828886  1
  In  In49  1  0.65210890  0.16902607  0.87941590  1
  In  In50  1  0.66548367  0.51179819  0.37672952  1
  In  In51  1  0.67437664  0.49541313  0.87325081  1
  In  In52  1  0.65938232  0.82591223  0.37003100  1
  In  In53  1  0.64461943  0.82378130  0.87853947  1
  In  In54  1  0.16550784  0.00097876  0.12219275  1
  In  In55  1  0.17834543  -0.00717261  0.63238464  1
  In  In56  1  0.15104456  0.32664095  0.10657295  1
  In  In57  1  0.16540419  0.33660784  0.63790958  1
  In  In58  1  0.17285600  0.67511207  0.11431794  1
  In  In59  1  0.17067500  0.66636068  0.63033256  1
  In  In60  1  0.50339237  0.00664010  0.12126823  1
  In  In61  1  0.49772181  -0.00732382  0.61373299  1
  In  In62  1  0.50673167  0.31521225  0.11485406  1
  In  In63  1  0.51193860  0.32932488  0.64342860  1
  In  In64  1  0.49466944  0.67363861  0.12873159  1
  In  In65  1  0.48612007  0.66685431  0.62879993  1
  In  In66  1  0.83703161  -0.00016844  0.13609495  1
  In  In67  1  0.82962286  0.01590148  0.61999718  1
  In  In68  1  0.84164772  0.34463884  0.12530951  1
  In  In69  1  0.83279434  0.33141902  0.62456598  1
  In  In70  1  0.82644423  0.65655474  0.13062262  1
  In  In71  1  0.85115722  0.66705190  0.62128789  1
  In  In72  1  0.67100179  0.00506270  0.74235502  1
  In  In73  1  0.16431334  0.50362149  0.49858787  1
  In  In74  1  0.49617510  0.49824978  -0.00447775  1
  In  In75  1  0.66890633  0.33443743  0.24302687  1
  In  In76  1  0.16808185  0.16057193  0.49927834  1
  In  In77  1  -0.00228522  0.67030808  0.24699651  1
  In  In78  1  0.32849274  0.00198724  0.24439064  1
  In  In79  1  0.66937927  0.66586087  0.75111413  1
  In  In80  1  0.83597822  0.16655629  -0.00003566  1
  In  In81  1  0.50148978  0.49703053  0.50577923  1
  In  In82  1  0.83117580  0.83754658  0.50200298  1
  In  In83  1  0.32723579  0.33810656  0.24897304  1
  In  In84  1  0.83272405  0.82911577  0.00457252  1
  In  In85  1  0.83245953  0.49850879  -0.00119998  1
  Cu  Cu86  1  0.83800668  0.16929730  0.25463508  1
  Cu  Cu87  1  0.33210208  0.33205125  -0.00960744  1
  Cu  Cu88  1  -0.00913124  0.32583757  0.50197809  1
  Cu  Cu89  1  0.84239802  0.82816225  0.74886824  1
  Cu  Cu90  1  0.66480025  0.66620333  0.49657634  1
  Cu  Cu91  1  0.33014476  0.66713082  -0.00412280  1
  Cu  Cu92  1  0.83835832  0.49617555  0.74777171  1
  Cu  Cu93  1  0.50297667  0.15890120  0.25055812  1
  Cu  Cu94  1  0.66017185  -0.00848813  0.00116556  1
  Cu  Cu95  1  0.82853829  0.83714177  0.25524612  1
  Cu  Cu96  1  0.33085398  0.33576318  0.50777842  1
  Cu  Cu97  1  0.16494027  0.49903435  0.75624436  1
  Cu  Cu98  1  0.17271332  0.83182810  0.75202289  1
  Cu  Cu99  1  0.49319554  0.84173493  0.74869527  1
  Cu  Cu100  1  0.33457992  0.67104951  0.50128227  1
  Cu  Cu101  1  0.49660270  0.16717875  0.75401647  1
  Cu  Cu102  1  0.00515013  0.67011459  -0.00463287  1
  Cu  Cu103  1  0.49452316  0.50449584  0.25104195  1
  Cu  Cu104  1  0.00919138  0.00749285  -0.00344468  1
  Cu  Cu105  1  0.00476546  0.66232269  0.50563084  1
  Cu  Cu106  1  0.33172754  -0.00586721  0.50639453  1
  Cu  Cu107  1  0.66795844  0.33010127  0.50570563  1
  Cu  Cu108  1  0.49673622  0.83144550  0.25299908  1
  Cu  Cu109  1  -0.00103930  0.00071482  0.50026482  1
  Cu  Cu110  1  0.33424738  -0.00152489  -0.00076978  1
  Cu  Cu111  1  0.16710906  0.16558503  0.75481592  1
  Cu  Cu112  1  0.16651243  0.83479941  0.24441603  1
  Cu  Cu113  1  0.83209684  0.50110709  0.25246684  1
  Cu  Cu114  1  0.83237467  0.16972449  0.74656821  1
  Se  Se115  1  0.08443914  0.08979221  0.05632645  1
  Se  Se116  1  0.07887601  0.07784336  0.56458355  1
  Se  Se117  1  0.08232575  0.42719708  0.04345586  1
  Se  Se118  1  0.07956285  0.40525148  0.55704768  1
  Se  Se119  1  0.08537129  0.75741345  0.04766204  1
  Se  Se120  1  0.09109852  0.74429187  0.55535042  1
  Se  Se121  1  0.41727407  0.08431438  0.05217673  1
  Se  Se122  1  0.41097951  0.08561599  0.55455650  1
  Se  Se123  1  0.40894569  0.40644991  0.05915528  1
  Se  Se124  1  0.41125758  0.41299403  0.56896874  1
  Se  Se125  1  0.41443817  0.74627162  0.05237626  1
  Se  Se126  1  0.42053178  0.75233047  0.55393249  1
  Se  Se127  1  0.74756296  0.06957645  0.05796222  1
  Se  Se128  1  0.73315655  0.06870140  0.54886137  1
  Se  Se129  1  0.73858442  0.40438326  0.05526739  1
  Se  Se130  1  0.75259166  0.41701506  0.55356730  1
  Se  Se131  1  0.74157827  0.74106185  0.06283291  1
  Se  Se132  1  0.74206301  0.74434252  0.56253505  1
  Se  Se133  1  0.24968406  0.24970521  0.04670800  1
  Se  Se134  1  0.24940546  0.25326459  0.56444284  1
  Se  Se135  1  0.24812925  0.58163794  0.04761763  1
  Se  Se136  1  0.26357512  0.58117705  0.56101662  1
  Se  Se137  1  0.24641593  0.91871601  0.05243211  1
  Se  Se138  1  0.24488762  0.91101037  0.55481579  1
  Se  Se139  1  0.59097076  0.24297233  0.04465703  1
  Se  Se140  1  0.57810433  0.25623755  0.56101657  1
  Se  Se141  1  0.58347002  0.58356724  0.06179279  1
  Se  Se142  1  0.59064918  0.58957345  0.56486417  1
  Se  Se143  1  0.57908381  0.91069968  0.05736169  1
  Se  Se144  1  0.58972611  0.92986708  0.54072540  1
  Se  Se145  1  0.92472395  0.25707260  0.05866538  1
  Se  Se146  1  0.91102162  0.24104920  0.55576044  1
  Se  Se147  1  0.92315728  0.59356612  0.05752855  1
  Se  Se148  1  0.91930841  0.57505864  0.55111888  1
  Se  Se149  1  0.92409426  0.92924769  0.05583934  1
  Se  Se150  1  0.92594330  0.91812090  0.56541147  1
  Se  Se151  1  0.07800836  0.25285822  0.44072541  1
  Se  Se152  1  0.08486937  0.24574332  0.94942495  1
  Se  Se153  1  0.07519446  0.58836334  0.43378211  1
  Se  Se154  1  0.08404592  0.58256751  0.94314066  1
  Se  Se155  1  0.08289128  0.91403232  0.45145263  1
  Se  Se156  1  0.08710253  0.91684795  0.94556792  1
  Se  Se157  1  0.41577492  0.25140834  0.45768290  1
  Se  Se158  1  0.41911112  0.24801719  0.94217435  1
  Se  Se159  1  0.41206445  0.58486183  0.44188738  1
  Se  Se160  1  0.40721939  0.58606106  0.93363304  1
  Se  Se161  1  0.41599156  0.91233508  0.45053825  1
  Se  Se162  1  0.41808857  0.91187819  0.94856319  1
  Se  Se163  1  0.75119828  0.24422472  0.45403799  1
  Se  Se164  1  0.74844011  0.25626610  0.93860705  1
  Se  Se165  1  0.75180570  0.58051769  0.45099680  1
  Se  Se166  1  0.73751836  0.59388157  0.94699854  1
  Se  Se167  1  0.74866182  0.91917077  0.43315120  1
  Se  Se168  1  0.74236168  0.91752628  0.93912840  1
  Se  Se169  1  0.25770199  0.07028240  0.43778170  1
  Se  Se170  1  0.25090523  0.08351914  0.94633059  1
  Se  Se171  1  0.25504997  0.40793063  0.44102538  1
  Se  Se172  1  0.24977737  0.42067125  0.94276603  1
  Se  Se173  1  0.24757936  0.74690437  0.44542010  1
  Se  Se174  1  0.24692963  0.75320041  0.94430964  1
  Se  Se175  1  0.55509397  0.11093335  0.43753139  1
  Se  Se176  1  0.58074898  0.07916188  0.94836242  1
  Se  Se177  1  0.58920896  0.40692229  0.44079268  1
  Se  Se178  1  0.58838395  0.40808747  0.93876172  1
  Se  Se179  1  0.58056889  0.74967756  0.44582558  1
  Se  Se180  1  0.58280586  0.74775125  0.95889603  1
  Se  Se181  1  0.91712987  0.08492144  0.44695468  1
  Se  Se182  1  0.92476773  0.08071688  0.93560136  1
  Se  Se183  1  0.91463335  0.41566160  0.44819522  1
  Se  Se184  1  0.92311064  0.40831399  0.94191599  1
  Se  Se185  1  0.92389191  0.74361853  0.44405507  1
  Se  Se186  1  0.92143489  0.74809469  0.93626493  1
  Se  Se187  1  0.24553062  0.23887730  0.30918478  1
  Se  Se188  1  0.24828688  0.25193868  0.80800088  1
  Se  Se189  1  0.24858841  0.58154157  0.29109718  1
  Se  Se190  1  0.25003132  0.58659004  0.80322834  1
  Se  Se191  1  0.24517356  0.91143881  0.30994498  1
  Se  Se192  1  0.25289202  0.91943532  0.80472900  1
  Se  Se193  1  0.58592153  0.24230960  0.30646617  1
  Se  Se194  1  0.58578832  0.24963381  0.80184603  1
  Se  Se195  1  0.58221299  0.58394545  0.30384585  1
  Se  Se196  1  0.57956897  0.58532849  0.81572383  1
  Se  Se197  1  0.57938465  0.91748145  0.30484484  1
  Se  Se198  1  0.57871938  0.91996322  0.80686331  1
  Se  Se199  1  0.91916978  0.25607664  0.30599822  1
  Se  Se200  1  0.91866903  0.25029221  0.80019852  1
  Se  Se201  1  0.91179554  0.58236750  0.31329288  1
  Se  Se202  1  0.91846440  0.58294320  0.80088845  1
  Se  Se203  1  0.92071681  0.91914121  0.29998247  1
  Se  Se204  1  0.92244281  0.91913657  0.79725005  1
  Se  Se205  1  0.08807367  0.08732504  0.30101202  1
  Se  Se206  1  0.08251590  0.07798206  0.80371563  1
  Se  Se207  1  0.10367501  0.43852918  0.29970235  1
  Se  Se208  1  0.08163023  0.41281566  0.80654752  1
  Se  Se209  1  0.08785463  0.75751498  0.31008713  1
  Se  Se210  1  0.08522201  0.74815924  0.80248921  1
  Se  Se211  1  0.41967708  0.08302341  0.31062094  1
  Se  Se212  1  0.41225300  0.08110257  0.80315769  1
  Se  Se213  1  0.42380793  0.42053909  0.31435031  1
  Se  Se214  1  0.42708712  0.42225971  0.79765279  1
  Se  Se215  1  0.40974195  0.74797169  0.30263020  1
  Se  Se216  1  0.41731856  0.75548771  0.80507370  1
  Se  Se217  1  0.75072202  0.08528913  0.30426808  1
  Se  Se218  1  0.75508902  0.09116271  0.81157201  1
  Se  Se219  1  0.75318116  0.41785027  0.31277232  1
  Se  Se220  1  0.74956761  0.41632389  0.79874629  1
  Se  Se221  1  0.74707948  0.74655059  0.30168581  1
  Se  Se222  1  0.75599830  0.76079052  0.81275479  1
  Se  Se223  1  0.24017310  0.09919295  0.19152922  1
  Se  Se224  1  0.25139149  0.08347512  0.70049694  1
  Se  Se225  1  0.24613992  0.41710408  0.17857818  1
  Se  Se226  1  0.25164103  0.41631550  0.70436037  1
  Se  Se227  1  0.24854458  0.75025097  0.19253789  1
  Se  Se228  1  0.25601252  0.74934146  0.69665199  1
  Se  Se229  1  0.58702385  0.07729601  0.19731222  1
  Se  Se230  1  0.57390564  0.09055176  0.68706518  1
  Se  Se231  1  0.56661030  0.42009083  0.18813473  1
  Se  Se232  1  0.57278064  0.43501628  0.70528816  1
  Se  Se233  1  0.58222451  0.74917835  0.19911512  1
  Se  Se234  1  0.58156130  0.76314909  0.69218499  1
  Se  Se235  1  0.92120037  0.08645090  0.19907906  1
  Se  Se236  1  0.91363052  0.08177496  0.69621918  1
  Se  Se237  1  0.91835994  0.42031774  0.20039589  1
  Se  Se238  1  0.91977292  0.41135390  0.69330147  1
  Se  Se239  1  0.90723659  0.76317627  0.18728296  1
  Se  Se240  1  0.92473752  0.74234526  0.69793705  1
  Se  Se241  1  0.08037408  0.26922151  0.19290704  1
  Se  Se242  1  0.08230919  0.24972533  0.70179598  1
  Se  Se243  1  0.08556834  0.58677942  0.18314840  1
  Se  Se244  1  0.08656380  0.58063774  0.69555391  1
  Se  Se245  1  0.08362123  0.92250975  0.19622742  1
  Se  Se246  1  0.08740126  0.91579444  0.69905249  1
  Se  Se247  1  0.42224303  0.24225710  0.19288585  1
  Se  Se248  1  0.41182684  0.25381833  0.70299318  1
  Se  Se249  1  0.41300782  0.58830821  0.19767643  1
  Se  Se250  1  0.41823600  0.59612146  0.70879799  1
  Se  Se251  1  0.41985008  0.90954346  0.18801019  1
  Se  Se252  1  0.41562547  0.92333949  0.69018342  1
  Se  Se253  1  0.76021101  0.24090362  0.18584018  1
  Se  Se254  1  0.74585726  0.24958356  0.69310410  1
  Se  Se255  1  0.74323375  0.58155085  0.20296959  1
  Se  Se256  1  0.75913437  0.57889169  0.68715322  1
  Se  Se257  1  0.74658723  0.92093610  0.20040698  1
  Se  Se258  1  0.76085083  0.90627266  0.68773725  1
