# generated using pymatgen
data_In86Cu29Se144
_symmetry_space_group_name_H-M   'P 1'
_cell_length_a   17.57723101
_cell_length_b   17.57096567
_cell_length_c   23.42861977
_cell_angle_alpha   90.00508690
_cell_angle_beta   89.98037848
_cell_angle_gamma   89.98481865
_symmetry_Int_Tables_number   1
_chemical_formula_structural   In86Cu29Se144
_chemical_formula_sum   'In86 Cu29 Se144'
_cell_volume   7235.90326556
_cell_formula_units_Z   1
loop_
 _symmetry_equiv_pos_site_id
 _symmetry_equiv_pos_as_xyz
  1  'x, y, z'
loop_
 _atom_site_type_symbol
 _atom_site_label
 _atom_site_symmetry_multiplicity
 _atom_site_fract_x
 _atom_site_fract_y
 _atom_site_fract_z
 _atom_site_occupancy
  In  In0  1  0.01435891  0.17106533  0.11168024  1
  In  In1  1  0.01383979  0.17810699  0.61503277  1
  In  In2  1  -0.00847910  0.48866995  0.11952631  1
  In  In3  1  0.00708586  0.48783361  0.63738277  1
  In  In4  1  -0.00624806  0.84765328  0.11887765  1
  In  In5  1  -0.01440431  0.83478206  0.62855696  1
  In  In6  1  0.32930048  0.17022996  0.12431505  1
  In  In7  1  0.33755569  0.18284492  0.62629627  1
  In  In8  1  0.33544164  0.49672477  0.11843078  1
  In  In9  1  0.31780510  0.49439208  0.62407870  1
  In  In10  1  0.34050229  0.82060026  0.13369193  1
  In  In11  1  0.34190153  0.83561595  0.62030479  1
  In  In12  1  0.65755323  0.15745823  0.11940820  1
  In  In13  1  0.65799044  0.15346778  0.62934966  1
  In  In14  1  0.66720265  0.50134578  0.11889458  1
  In  In15  1  0.67699198  0.50085107  0.63128441  1
  In  In16  1  0.66507493  0.83304758  0.12242895  1
  In  In17  1  0.67309890  0.83378200  0.63405082  1
  In  In18  1  0.17368087  0.00415934  0.37355838  1
  In  In19  1  0.17707085  0.00650706  0.88101424  1
  In  In20  1  0.16619499  0.33314963  0.37076421  1
  In  In21  1  0.16686234  0.33745634  0.87935416  1
  In  In22  1  0.16523534  0.65428315  0.37189678  1
  In  In23  1  0.15230959  0.65857324  0.87369136  1
  In  In24  1  0.49686378  -0.00392474  0.36245559  1
  In  In25  1  0.50847879  -0.00602410  0.88667153  1
  In  In26  1  0.49310357  0.34478011  0.37074046  1
  In  In27  1  0.49640320  0.33614708  0.88541072  1
  In  In28  1  0.50476866  0.66679791  0.36349827  1
  In  In29  1  0.51166477  0.66481547  0.87859959  1
  In  In30  1  0.83687866  0.01659768  0.36928238  1
  In  In31  1  0.82445746  0.01543091  0.88763762  1
  In  In32  1  0.83113487  0.31137895  0.37441141  1
  In  In33  1  0.84426539  0.32622913  0.87988161  1
  In  In34  1  0.82905023  0.67230292  0.37106693  1
  In  In35  1  0.83299258  0.66724207  0.87993297  1
  In  In36  1  -0.01238626  0.17547066  0.38152921  1
  In  In37  1  -0.00998932  0.17310493  0.88282530  1
  In  In38  1  0.01930215  0.49965059  0.37500771  1
  In  In39  1  0.00047028  0.49799854  0.87908639  1
  In  In40  1  -0.00389376  0.83438502  0.37431049  1
  In  In41  1  -0.00025876  0.81608980  0.87507558  1
  In  In42  1  0.32466171  0.15872236  0.36550248  1
  In  In43  1  0.32483315  0.18485021  0.89440707  1
  In  In44  1  0.32291062  0.48662756  0.36088324  1
  In  In45  1  0.34914123  0.47892758  0.89639008  1
  In  In46  1  0.32868243  0.83526228  0.35016009  1
  In  In47  1  0.33880144  0.84480220  0.88318763  1
  In  In48  1  0.68218988  0.16284409  0.37227003  1
  In  In49  1  0.67185287  0.16189662  0.88117816  1
  In  In50  1  0.65787475  0.50059716  0.37147871  1
  In  In51  1  0.65815293  0.51345553  0.88106735  1
  In  In52  1  0.66304676  0.82807107  0.36461805  1
  In  In53  1  0.66851416  0.83628986  0.87846097  1
  In  In54  1  0.16319944  0.01250448  0.12705015  1
  In  In55  1  0.15599276  0.01914129  0.62220448  1
  In  In56  1  0.16986362  0.33115591  0.11960655  1
  In  In57  1  0.16658083  0.33284470  0.62690970  1
  In  In58  1  0.18568559  0.66644536  0.12809142  1
  In  In59  1  0.17047683  0.64767533  0.62445296  1
  In  In60  1  0.50082447  0.00077226  0.12544920  1
  In  In61  1  0.51739956  0.01406250  0.63000023  1
  In  In62  1  0.47859506  0.31677728  0.10246411  1
  In  In63  1  0.49063287  0.31377271  0.63521605  1
  In  In64  1  0.49996845  0.66608387  0.12061801  1
  In  In65  1  0.50847455  0.67181476  0.62928596  1
  In  In66  1  0.83004439  -0.01017331  0.11278245  1
  In  In67  1  0.82586011  -0.00124292  0.62642460  1
  In  In68  1  0.84098376  0.33724685  0.11846121  1
  In  In69  1  0.84576102  0.34044905  0.62784151  1
  In  In70  1  0.82066048  0.65784049  0.11959732  1
  In  In71  1  0.83115585  0.67146717  0.63623439  1
  In  In72  1  0.16193660  0.83323737  0.48825624  1
  In  In73  1  0.83507406  0.49779265  0.50259826  1
  In  In74  1  -0.00527669  0.00080817  0.75183678  1
  In  In75  1  0.65811279  0.33325048  0.24747653  1
  In  In76  1  0.00170393  0.66724411  0.25270757  1
  In  In77  1  0.49858776  0.83398080  0.48462226  1
  In  In78  1  0.33296431  0.65870744  0.75639839  1
  In  In79  1  0.83098709  0.83970141  0.50596923  1
  In  In80  1  0.66770352  0.33493042  0.75614762  1
  In  In81  1  0.50287216  0.49701421  0.49993584  1
  In  In82  1  0.16903375  0.83140989  0.00525693  1
  In  In83  1  0.49888604  0.16776643  0.50284821  1
  In  In84  1  0.00213618  0.00528761  0.24412292  1
  In  In85  1  0.34167001  0.00740937  0.75876909  1
  Cu  Cu86  1  0.00418918  0.66189980  0.50613759  1
  Cu  Cu87  1  0.83399892  0.16567093  0.24524871  1
  Cu  Cu88  1  0.67438757  0.33634311  -0.00309942  1
  Cu  Cu89  1  0.16941947  0.49741862  0.24513257  1
  Cu  Cu90  1  0.33646677  0.66655824  0.00316717  1
  Cu  Cu91  1  0.49567918  0.49788867  0.76033364  1
  Cu  Cu92  1  0.16588000  0.49167958  0.75369235  1
  Cu  Cu93  1  0.82409467  0.83141507  0.24132378  1
  Cu  Cu94  1  0.49709320  0.50196973  0.24048494  1
  Cu  Cu95  1  0.83568587  0.50779849  0.75684284  1
  Cu  Cu96  1  0.00575350  0.34002658  0.50167716  1
  Cu  Cu97  1  0.32469327  0.33513635  0.49753269  1
  Cu  Cu98  1  0.66798844  0.67388453  0.00039938  1
  Cu  Cu99  1  0.00324979  0.33555174  -0.00112959  1
  Cu  Cu100  1  0.51076400  0.83741899  0.75523881  1
  Cu  Cu101  1  0.16636356  0.17625546  0.24530608  1
  Cu  Cu102  1  0.33417521  0.65678842  0.49196319  1
  Cu  Cu103  1  0.83259434  0.49579408  0.24266966  1
  Cu  Cu104  1  0.49611353  0.16766017  0.24117362  1
  Cu  Cu105  1  0.82900413  0.83314099  0.75644875  1
  Cu  Cu106  1  0.50515866  0.83174377  0.24153756  1
  Cu  Cu107  1  0.32239484  0.00627510  0.49641867  1
  Cu  Cu108  1  0.66746491  -0.00054937  0.50017757  1
  Cu  Cu109  1  0.83481320  0.16790705  0.75574687  1
  Cu  Cu110  1  0.16521825  0.82544283  0.74800412  1
  Cu  Cu111  1  0.16592469  0.17643152  0.75400847  1
  Cu  Cu112  1  -0.00414530  0.66160289  0.00174745  1
  Cu  Cu113  1  0.66568668  -0.00018040  0.00333255  1
  Cu  Cu114  1  0.33894391  0.00565581  0.00513819  1
  Se  Se115  1  0.07327516  0.06323353  0.05007099  1
  Se  Se116  1  0.08280469  0.08764561  0.54481679  1
  Se  Se117  1  0.08611011  0.41870315  0.05266877  1
  Se  Se118  1  0.08639031  0.42164241  0.55830289  1
  Se  Se119  1  0.07696510  0.73961916  0.06458524  1
  Se  Se120  1  0.08161661  0.74902721  0.56327030  1
  Se  Se121  1  0.42156685  0.08984695  0.05839296  1
  Se  Se122  1  0.40916273  0.07237038  0.56160425  1
  Se  Se123  1  0.42503771  0.42954075  0.04559289  1
  Se  Se124  1  0.41207002  0.40520692  0.56008644  1
  Se  Se125  1  0.41736880  0.75426370  0.05323899  1
  Se  Se126  1  0.41362249  0.73748860  0.55116807  1
  Se  Se127  1  0.75175698  0.08673649  0.05161264  1
  Se  Se128  1  0.74550959  0.08250208  0.55681245  1
  Se  Se129  1  0.75471195  0.41999185  0.05250995  1
  Se  Se130  1  0.74218385  0.40647683  0.55922657  1
  Se  Se131  1  0.75384076  0.75544843  0.05303756  1
  Se  Se132  1  0.74257897  0.74205044  0.55881866  1
  Se  Se133  1  0.23968093  0.23713381  0.05187807  1
  Se  Se134  1  0.24789102  0.24962066  0.55488963  1
  Se  Se135  1  0.24928706  0.58328702  0.05104155  1
  Se  Se136  1  0.25053225  0.57807744  0.54754356  1
  Se  Se137  1  0.25894232  0.92131006  0.06497151  1
  Se  Se138  1  0.24946373  0.92040704  0.55781371  1
  Se  Se139  1  0.59106555  0.25207229  0.04971683  1
  Se  Se140  1  0.58974151  0.25744406  0.56181867  1
  Se  Se141  1  0.58504348  0.58614103  0.05097371  1
  Se  Se142  1  0.59299252  0.58774965  0.55927601  1
  Se  Se143  1  0.58058712  0.91647448  0.05497222  1
  Se  Se144  1  0.58596502  0.91621250  0.55754876  1
  Se  Se145  1  0.91855730  0.24970350  0.04997987  1
  Se  Se146  1  0.91858729  0.25854074  0.55381701  1
  Se  Se147  1  0.91092988  0.57824522  0.05450819  1
  Se  Se148  1  0.92141356  0.58691435  0.56713108  1
  Se  Se149  1  0.91821287  0.91680660  0.04226929  1
  Se  Se150  1  0.92767015  0.93281397  0.55582875  1
  Se  Se151  1  0.08240031  0.25543250  0.44255175  1
  Se  Se152  1  0.08445384  0.24899786  0.94628151  1
  Se  Se153  1  0.08837742  0.58343892  0.45047429  1
  Se  Se154  1  0.08302065  0.58024242  0.95099428  1
  Se  Se155  1  0.06932544  0.93144427  0.43943854  1
  Se  Se156  1  0.08421453  0.91357704  0.93675742  1
  Se  Se157  1  0.40922148  0.25546481  0.43938672  1
  Se  Se158  1  0.41660113  0.26005183  0.95964430  1
  Se  Se159  1  0.41589100  0.57998196  0.43177440  1
  Se  Se160  1  0.42231442  0.58850904  0.94674677  1
  Se  Se161  1  0.39901930  0.92460608  0.43488406  1
  Se  Se162  1  0.42035210  0.91613673  0.95644238  1
  Se  Se163  1  0.74508556  0.24669852  0.44781621  1
  Se  Se164  1  0.75619431  0.24743823  0.94693132  1
  Se  Se165  1  0.74525821  0.58696755  0.44098298  1
  Se  Se166  1  0.75005099  0.58514895  0.94972088  1
  Se  Se167  1  0.74333971  0.91992264  0.43596458  1
  Se  Se168  1  0.75010854  0.91744588  0.94952433  1
  Se  Se169  1  0.24368232  0.09381297  0.44536074  1
  Se  Se170  1  0.24869362  0.08559203  0.95593968  1
  Se  Se171  1  0.24689334  0.41981872  0.44133621  1
  Se  Se172  1  0.23631085  0.42595129  0.95210868  1
  Se  Se173  1  0.26215079  0.74630880  0.43368118  1
  Se  Se174  1  0.25451787  0.74130707  0.93824399  1
  Se  Se175  1  0.58237234  0.07385994  0.43899477  1
  Se  Se176  1  0.58408688  0.08749266  0.95214765  1
  Se  Se177  1  0.59387272  0.40240724  0.44328037  1
  Se  Se178  1  0.58646665  0.42000245  0.94804782  1
  Se  Se179  1  0.59454223  0.73647284  0.44077562  1
  Se  Se180  1  0.58183921  0.75647530  0.94784237  1
  Se  Se181  1  0.90732174  0.08757751  0.44719005  1
  Se  Se182  1  0.93010954  0.07361129  0.94990174  1
  Se  Se183  1  0.92279940  0.41263438  0.43676385  1
  Se  Se184  1  0.91487707  0.41847915  0.94895488  1
  Se  Se185  1  0.92327211  0.74104130  0.44689531  1
  Se  Se186  1  0.91578266  0.74981298  0.95113338  1
  Se  Se187  1  0.25294441  0.25537289  0.30075594  1
  Se  Se188  1  0.25129503  0.25179818  0.81122474  1
  Se  Se189  1  0.25005531  0.58523602  0.29765457  1
  Se  Se190  1  0.24789621  0.56777212  0.81642259  1
  Se  Se191  1  0.24455691  0.92960550  0.29672961  1
  Se  Se192  1  0.24353230  0.90781130  0.80689556  1
  Se  Se193  1  0.57335914  0.23974283  0.31116478  1
  Se  Se194  1  0.57913390  0.24696428  0.81598942  1
  Se  Se195  1  0.58496968  0.57905419  0.29617612  1
  Se  Se196  1  0.58346883  0.58595305  0.80139571  1
  Se  Se197  1  0.58594887  0.91607436  0.29771585  1
  Se  Se198  1  0.58851498  0.92400307  0.80882332  1
  Se  Se199  1  0.91779768  0.24774910  0.29888778  1
  Se  Se200  1  0.92182007  0.25123945  0.80323585  1
  Se  Se201  1  0.91069800  0.57188473  0.30985544  1
  Se  Se202  1  0.92091770  0.58777347  0.81109304  1
  Se  Se203  1  0.90648183  0.90974435  0.30259690  1
  Se  Se204  1  0.90974535  0.91347178  0.81647727  1
  Se  Se205  1  0.08484446  0.09688540  0.30789551  1
  Se  Se206  1  0.08971264  0.08808024  0.81035578  1
  Se  Se207  1  0.08400342  0.41580160  0.29886500  1
  Se  Se208  1  0.07884116  0.41279195  0.80765094  1
  Se  Se209  1  0.09277411  0.76078496  0.30922602  1
  Se  Se210  1  0.08133194  0.74349505  0.79975547  1
  Se  Se211  1  0.41474023  0.08333631  0.29807995  1
  Se  Se212  1  0.41680062  0.09083491  0.82953520  1
  Se  Se213  1  0.41593882  0.41427094  0.29327954  1
  Se  Se214  1  0.41439591  0.41259605  0.81034976  1
  Se  Se215  1  0.42101567  0.74730406  0.29513864  1
  Se  Se216  1  0.42085670  0.75979097  0.80996523  1
  Se  Se217  1  0.74836796  0.08061513  0.29467412  1
  Se  Se218  1  0.75131564  0.08375960  0.80611844  1
  Se  Se219  1  0.75574807  0.41701094  0.30895110  1
  Se  Se220  1  0.75578515  0.42518814  0.81713068  1
  Se  Se221  1  0.74734660  0.74419583  0.29725186  1
  Se  Se222  1  0.74763864  0.74804877  0.80987644  1
  Se  Se223  1  0.24928637  0.08755763  0.19722488  1
  Se  Se224  1  0.24463842  0.09010513  0.69605713  1
  Se  Se225  1  0.25182061  0.41579917  0.18925524  1
  Se  Se226  1  0.25175241  0.41099588  0.69941798  1
  Se  Se227  1  0.24736590  0.75237290  0.20267096  1
  Se  Se228  1  0.25166384  0.75260756  0.68818433  1
  Se  Se229  1  0.58466749  0.08206733  0.19717326  1
  Se  Se230  1  0.57983369  0.09080868  0.70952893  1
  Se  Se231  1  0.57148814  0.41479181  0.18082667  1
  Se  Se232  1  0.57351392  0.42116971  0.69251299  1
  Se  Se233  1  0.58707040  0.74470629  0.19099888  1
  Se  Se234  1  0.58822741  0.74980067  0.70060152  1
  Se  Se235  1  0.91198920  0.08859197  0.18089254  1
  Se  Se236  1  0.91368879  0.09386949  0.68828843  1
  Se  Se237  1  0.91843777  0.41046758  0.19672664  1
  Se  Se238  1  0.91503257  0.41712110  0.70627444  1
  Se  Se239  1  0.91276005  0.75288612  0.18720737  1
  Se  Se240  1  0.91705084  0.75255951  0.70363474  1
  Se  Se241  1  0.08032028  0.25306535  0.18973481  1
  Se  Se242  1  0.08040299  0.25258099  0.69652515  1
  Se  Se243  1  0.08485823  0.57773918  0.18750086  1
  Se  Se244  1  0.08720499  0.58176545  0.70052994  1
  Se  Se245  1  0.09131099  0.90688230  0.19186912  1
  Se  Se246  1  0.09110090  0.91295063  0.69004204  1
  Se  Se247  1  0.41555833  0.25556947  0.19152077  1
  Se  Se248  1  0.41420825  0.23937916  0.70877000  1
  Se  Se249  1  0.41246900  0.58564168  0.18891106  1
  Se  Se250  1  0.42168337  0.57311256  0.68937767  1
  Se  Se251  1  0.41802324  0.91769249  0.19510616  1
  Se  Se252  1  0.42742014  0.91344862  0.69311056  1
  Se  Se253  1  0.75169902  0.24735219  0.18677248  1
  Se  Se254  1  0.75537558  0.24695556  0.69159310  1
  Se  Se255  1  0.74581998  0.57912515  0.19535651  1
  Se  Se256  1  0.74838734  0.58619299  0.70302250  1
  Se  Se257  1  0.74773949  0.92161539  0.18982075  1
  Se  Se258  1  0.75074656  0.92113866  0.70186642  1
