# generated using pymatgen
data_In86Cu29Se144
_symmetry_space_group_name_H-M   'P 1'
_cell_length_a   17.59568362
_cell_length_b   17.59382148
_cell_length_c   23.45450569
_cell_angle_alpha   89.99154154
_cell_angle_beta   90.03551277
_cell_angle_gamma   89.95276794
_symmetry_Int_Tables_number   1
_chemical_formula_structural   In86Cu29Se144
_chemical_formula_sum   'In86 Cu29 Se144'
_cell_volume   7260.93208132
_cell_formula_units_Z   1
loop_
 _symmetry_equiv_pos_site_id
 _symmetry_equiv_pos_as_xyz
  1  'x, y, z'
loop_
 _atom_site_type_symbol
 _atom_site_label
 _atom_site_symmetry_multiplicity
 _atom_site_fract_x
 _atom_site_fract_y
 _atom_site_fract_z
 _atom_site_occupancy
  In  In0  1  -0.00687279  0.17919664  0.12911863  1
  In  In1  1  -0.01655496  0.16649209  0.62385974  1
  In  In2  1  -0.01604085  0.49552636  0.12642998  1
  In  In3  1  -0.00014014  0.51547187  0.60475899  1
  In  In4  1  0.00290232  0.81741139  0.12211646  1
  In  In5  1  0.00905166  0.83521803  0.62060152  1
  In  In6  1  0.33569495  0.16804072  0.13417973  1
  In  In7  1  0.34372621  0.16446907  0.61772234  1
  In  In8  1  0.34074475  0.49726072  0.13181326  1
  In  In9  1  0.34621641  0.51252361  0.61422246  1
  In  In10  1  0.33212736  0.84020993  0.13724263  1
  In  In11  1  0.31728769  0.82528311  0.62498020  1
  In  In12  1  0.67965702  0.17440814  0.11906855  1
  In  In13  1  0.66935044  0.16814776  0.62932967  1
  In  In14  1  0.66570445  0.50008349  0.12846056  1
  In  In15  1  0.66552035  0.49700478  0.62203369  1
  In  In16  1  0.65695213  0.82341589  0.12924424  1
  In  In17  1  0.68131644  0.81992791  0.64195170  1
  In  In18  1  0.16600791  -0.01553391  0.37944419  1
  In  In19  1  0.15328433  -0.00673838  0.87073602  1
  In  In20  1  0.17755259  0.34840064  0.36584266  1
  In  In21  1  0.16795780  0.33197832  0.87874249  1
  In  In22  1  0.17539633  0.65729390  0.38270126  1
  In  In23  1  0.18872942  0.66924014  0.87255984  1
  In  In24  1  0.50304205  0.01452312  0.37782200  1
  In  In25  1  0.50094116  -0.00370764  0.86951274  1
  In  In26  1  0.50369268  0.33149921  0.37523839  1
  In  In27  1  0.54266846  0.34148474  0.87407462  1
  In  In28  1  0.48774278  0.65769729  0.36425904  1
  In  In29  1  0.49918011  0.65847155  0.87057423  1
  In  In30  1  0.83662904  -0.00350611  0.38661617  1
  In  In31  1  0.84019817  0.00176173  0.86845375  1
  In  In32  1  0.83090234  0.33353282  0.37274493  1
  In  In33  1  0.80976886  0.34857444  0.88787093  1
  In  In34  1  0.82676911  0.66995068  0.38685618  1
  In  In35  1  0.81895704  0.66694348  0.86841895  1
  In  In36  1  -0.01561426  0.17185386  0.37964865  1
  In  In37  1  -0.00953549  0.14890955  0.86658399  1
  In  In38  1  0.00851549  0.49807155  0.38116757  1
  In  In39  1  -0.00632060  0.48504119  0.87411229  1
  In  In40  1  0.01059200  0.80772433  0.40475495  1
  In  In41  1  0.00276220  0.84495253  0.86817252  1
  In  In42  1  0.34142984  0.17911179  0.36803766  1
  In  In43  1  0.33946598  0.16000236  0.87883260  1
  In  In44  1  0.33766601  0.50074686  0.37369333  1
  In  In45  1  0.35068899  0.52125201  0.87614917  1
  In  In46  1  0.32734666  0.82051243  0.36171933  1
  In  In47  1  0.33322884  0.81425143  0.87744605  1
  In  In48  1  0.65984213  0.17056275  0.38310785  1
  In  In49  1  0.67988285  0.18470355  0.86012174  1
  In  In50  1  0.66395271  0.49598025  0.37566522  1
  In  In51  1  0.66612213  0.50293592  0.87426794  1
  In  In52  1  0.67697392  0.83315689  0.37905538  1
  In  In53  1  0.67137620  0.83012962  0.85648394  1
  In  In54  1  0.17608623  -0.00173672  0.12771276  1
  In  In55  1  0.16331253  -0.02632415  0.62677512  1
  In  In56  1  0.16716079  0.33493024  0.13591115  1
  In  In57  1  0.15326847  0.34297099  0.61965319  1
  In  In58  1  0.17027055  0.67950644  0.12068978  1
  In  In59  1  0.17721379  0.67879861  0.61549811  1
  In  In60  1  0.49104981  -0.01095561  0.12813250  1
  In  In61  1  0.51032525  0.01554426  0.62134617  1
  In  In62  1  0.50027710  0.33717921  0.12936511  1
  In  In63  1  0.50809246  0.34132163  0.61860444  1
  In  In64  1  0.51243570  0.66426591  0.14023109  1
  In  In65  1  0.50835163  0.65835857  0.62928030  1
  In  In66  1  0.81935266  0.00360549  0.12283122  1
  In  In67  1  0.83095597  -0.00064423  0.63143122  1
  In  In68  1  0.82747018  0.33649579  0.13070423  1
  In  In69  1  0.82582738  0.32869167  0.61643602  1
  In  In70  1  0.82872112  0.64802124  0.12392971  1
  In  In71  1  0.82598569  0.65594878  0.61366959  1
  In  In72  1  0.49747830  0.82487404  0.00219981  1
  In  In73  1  -0.00058010  0.67082149  0.74192956  1
  In  In74  1  0.00258408  0.65741539  0.25465244  1
  In  In75  1  0.66024082  0.00230747  0.24822915  1
  In  In76  1  0.16921298  0.16985130  0.49922061  1
  In  In77  1  0.33852592  0.33655095  0.74750479  1
  In  In78  1  0.50077254  0.17624816  0.00247712  1
  In  In79  1  -0.00219009  -0.00229854  0.26478951  1
  In  In80  1  -0.01052501  0.32999688  0.74043983  1
  In  In81  1  0.50242436  0.83628532  0.49838312  1
  In  In82  1  0.83906021  0.83196950  -0.01181885  1
  In  In83  1  0.15830002  0.16953572  0.00606311  1
  In  In84  1  0.16465750  0.50074192  0.00795025  1
  In  In85  1  0.33722116  -0.00749647  0.74813136  1
  Cu  Cu86  1  -0.00169755  0.33971986  0.49670559  1
  Cu  Cu87  1  0.49705031  0.83119243  0.74778610  1
  Cu  Cu88  1  0.50662341  0.49996302  0.74750370  1
  Cu  Cu89  1  0.66740502  0.66311033  0.00003148  1
  Cu  Cu90  1  0.50168079  0.49340338  0.25288672  1
  Cu  Cu91  1  0.50309511  0.17219889  0.25236588  1
  Cu  Cu92  1  0.00805964  0.66111008  -0.00236979  1
  Cu  Cu93  1  0.17029722  0.50252900  0.74821767  1
  Cu  Cu94  1  0.16652805  0.16807949  0.25108391  1
  Cu  Cu95  1  0.67476057  0.00294245  0.50839157  1
  Cu  Cu96  1  -0.00384387  -0.00132035  -0.00508779  1
  Cu  Cu97  1  0.33507780  0.66674626  0.49372217  1
  Cu  Cu98  1  0.83427845  0.82647698  0.26074248  1
  Cu  Cu99  1  0.32398863  -0.00815690  0.00417088  1
  Cu  Cu100  1  -0.00163720  0.00253033  0.50460888  1
  Cu  Cu101  1  0.16750362  0.83311690  0.25122032  1
  Cu  Cu102  1  0.33679026  0.33913073  0.49037595  1
  Cu  Cu103  1  0.34003002  0.34139422  0.00230441  1
  Cu  Cu104  1  0.82668981  0.50052911  0.74403350  1
  Cu  Cu105  1  0.17078113  0.15614002  0.74898854  1
  Cu  Cu106  1  0.65882033  0.65918480  0.50226740  1
  Cu  Cu107  1  0.83009610  0.16887605  0.25294657  1
  Cu  Cu108  1  0.66515914  0.00770788  -0.00462749  1
  Cu  Cu109  1  0.16960440  0.50397579  0.25355478  1
  Cu  Cu110  1  0.33459429  -0.00332436  0.50183595  1
  Cu  Cu111  1  0.82981938  0.16749911  0.74898797  1
  Cu  Cu112  1  0.82618990  0.49623096  0.25078947  1
  Cu  Cu113  1  0.66851481  0.33193649  0.49854684  1
  Cu  Cu114  1  -0.01740095  0.32672254  0.00110841  1
  Se  Se115  1  0.07044214  0.07464067  0.06412362  1
  Se  Se116  1  0.08384340  0.08100232  0.56389172  1
  Se  Se117  1  0.07267032  0.40157759  0.05912527  1
  Se  Se118  1  0.08575335  0.42426117  0.54409737  1
  Se  Se119  1  0.08621022  0.75148892  0.04647411  1
  Se  Se120  1  0.07716707  0.74302034  0.55123274  1
  Se  Se121  1  0.40732001  0.07748868  0.05685714  1
  Se  Se122  1  0.42139683  0.08240346  0.54711893  1
  Se  Se123  1  0.42178071  0.42076649  0.05820986  1
  Se  Se124  1  0.41941843  0.41745722  0.54991416  1
  Se  Se125  1  0.41535643  0.74590591  0.07201243  1
  Se  Se126  1  0.41409825  0.74400505  0.55854341  1
  Se  Se127  1  0.75227979  0.08664703  0.04762832  1
  Se  Se128  1  0.75662269  0.08898060  0.56003754  1
  Se  Se129  1  0.76639959  0.43584384  0.06333364  1
  Se  Se130  1  0.75012271  0.41940924  0.55013252  1
  Se  Se131  1  0.74892883  0.74880973  0.05673424  1
  Se  Se132  1  0.73723516  0.74824407  0.55455354  1
  Se  Se133  1  0.25757509  0.25932966  0.05932248  1
  Se  Se134  1  0.25855948  0.26469307  0.55803831  1
  Se  Se135  1  0.26062131  0.58863618  0.06048892  1
  Se  Se136  1  0.25046358  0.58442404  0.54878237  1
  Se  Se137  1  0.24645822  0.90767944  0.05899952  1
  Se  Se138  1  0.24963057  0.91156528  0.54998336  1
  Se  Se139  1  0.59519290  0.26707015  0.05524356  1
  Se  Se140  1  0.58813212  0.24872492  0.55574245  1
  Se  Se141  1  0.58466717  0.58993339  0.06088574  1
  Se  Se142  1  0.57508405  0.57513117  0.55321536  1
  Se  Se143  1  0.59140348  0.92378833  0.05653670  1
  Se  Se144  1  0.59379989  0.91632459  0.56335544  1
  Se  Se145  1  0.90361213  0.24621740  0.05856747  1
  Se  Se146  1  0.91886288  0.25316660  0.54957092  1
  Se  Se147  1  0.92091370  0.58446192  0.05162439  1
  Se  Se148  1  0.90751231  0.58469121  0.53875000  1
  Se  Se149  1  0.91947113  0.91933758  0.06099194  1
  Se  Se150  1  0.91718929  0.92149349  0.56075979  1
  Se  Se151  1  0.08311831  0.26062581  0.43693743  1
  Se  Se152  1  0.06729002  0.25243673  0.93927365  1
  Se  Se153  1  0.06487147  0.60594611  0.44286798  1
  Se  Se154  1  0.08322665  0.58081213  0.93344043  1
  Se  Se155  1  0.08398768  0.91737884  0.45520286  1
  Se  Se156  1  0.08199561  0.91415591  0.94715665  1
  Se  Se157  1  0.41990785  0.24795337  0.44574315  1
  Se  Se158  1  0.41390694  0.26370777  0.93679255  1
  Se  Se159  1  0.42051522  0.58206433  0.44470234  1
  Se  Se160  1  0.42077656  0.59777508  0.95195041  1
  Se  Se161  1  0.41004529  0.91951165  0.43558239  1
  Se  Se162  1  0.40970944  0.92161163  0.94191025  1
  Se  Se163  1  0.75361863  0.24910961  0.44534041  1
  Se  Se164  1  0.74154610  0.24658543  0.94707504  1
  Se  Se165  1  0.74403589  0.57794099  0.44786617  1
  Se  Se166  1  0.75276869  0.58451163  0.94447687  1
  Se  Se167  1  0.74993969  0.91583780  0.45267988  1
  Se  Se168  1  0.73911730  0.91992169  0.93686786  1
  Se  Se169  1  0.25749678  0.07976298  0.43862174  1
  Se  Se170  1  0.24783834  0.07722247  0.94407996  1
  Se  Se171  1  0.24869271  0.42371333  0.44412963  1
  Se  Se172  1  0.25734240  0.41788802  0.94077009  1
  Se  Se173  1  0.25316891  0.75515365  0.44381705  1
  Se  Se174  1  0.25080716  0.74773948  0.95234982  1
  Se  Se175  1  0.58743565  0.08108361  0.45337235  1
  Se  Se176  1  0.58228661  0.08460555  0.93718587  1
  Se  Se177  1  0.58199377  0.41428784  0.44669491  1
  Se  Se178  1  0.57604457  0.43842930  0.94895461  1
  Se  Se179  1  0.58334359  0.73971030  0.43772011  1
  Se  Se180  1  0.59571433  0.74951084  0.93794088  1
  Se  Se181  1  0.91526937  0.08638594  0.45265881  1
  Se  Se182  1  0.91163619  0.08274533  0.94548578  1
  Se  Se183  1  0.91318424  0.41834778  0.44181418  1
  Se  Se184  1  0.90991388  0.42070868  0.94993199  1
  Se  Se185  1  0.89024815  0.76658449  0.45578327  1
  Se  Se186  1  0.92830816  0.73696833  0.93250715  1
  Se  Se187  1  0.25125870  0.25418620  0.30082990  1
  Se  Se188  1  0.24497030  0.24005000  0.80829916  1
  Se  Se189  1  0.25338070  0.58673607  0.30548190  1
  Se  Se190  1  0.25744766  0.57941246  0.80141178  1
  Se  Se191  1  0.24861455  0.92060606  0.30224086  1
  Se  Se192  1  0.24845697  0.90721173  0.81053131  1
  Se  Se193  1  0.58986725  0.24995149  0.30582774  1
  Se  Se194  1  0.57367898  0.24389070  0.79865411  1
  Se  Se195  1  0.58456065  0.57940092  0.30425383  1
  Se  Se196  1  0.58859432  0.58587443  0.80121818  1
  Se  Se197  1  0.57983525  0.91426408  0.31456655  1
  Se  Se198  1  0.57983530  0.91727647  0.79833652  1
  Se  Se199  1  0.91716037  0.25197137  0.30236859  1
  Se  Se200  1  0.90624275  0.25145822  0.81195187  1
  Se  Se201  1  0.90545900  0.57629787  0.31324597  1
  Se  Se202  1  0.91433024  0.57300295  0.80407300  1
  Se  Se203  1  0.91741789  0.89849241  0.32219186  1
  Se  Se204  1  0.90436133  0.90418318  0.80198094  1
  Se  Se205  1  0.09070222  0.09318799  0.31785444  1
  Se  Se206  1  0.08074894  0.07708010  0.79784378  1
  Se  Se207  1  0.08008156  0.42206959  0.30207317  1
  Se  Se208  1  0.09118460  0.41560019  0.80165371  1
  Se  Se209  1  0.08621910  0.75505561  0.31294102  1
  Se  Se210  1  0.09070159  0.74946846  0.80879531  1
  Se  Se211  1  0.42016761  0.08670696  0.30330451  1
  Se  Se212  1  0.42366973  0.09292640  0.80196717  1
  Se  Se213  1  0.41675185  0.41189559  0.30683769  1
  Se  Se214  1  0.42786956  0.42106767  0.81183127  1
  Se  Se215  1  0.42273933  0.75374136  0.29644325  1
  Se  Se216  1  0.41817201  0.74692259  0.80341891  1
  Se  Se217  1  0.75538570  0.08246060  0.31223889  1
  Se  Se218  1  0.74988004  0.08069112  0.80253397  1
  Se  Se219  1  0.74387677  0.41213200  0.30422501  1
  Se  Se220  1  0.74817475  0.41881662  0.80308177  1
  Se  Se221  1  0.74764180  0.74285441  0.30867789  1
  Se  Se222  1  0.75924635  0.75113022  0.79204270  1
  Se  Se223  1  0.24833965  0.08414078  0.19808236  1
  Se  Se224  1  0.24932681  0.08346643  0.68400775  1
  Se  Se225  1  0.25244889  0.41826442  0.19985993  1
  Se  Se226  1  0.24763552  0.42313912  0.68511808  1
  Se  Se227  1  0.24821923  0.74688968  0.19911952  1
  Se  Se228  1  0.24834963  0.74284707  0.69860736  1
  Se  Se229  1  0.57588675  0.09476399  0.18333146  1
  Se  Se230  1  0.58701267  0.08448910  0.69769552  1
  Se  Se231  1  0.58726449  0.41377647  0.19846771  1
  Se  Se232  1  0.58712683  0.41399420  0.69509917  1
  Se  Se233  1  0.57812066  0.76259543  0.20724360  1
  Se  Se234  1  0.58219467  0.74357483  0.70049721  1
  Se  Se235  1  0.90876693  0.08159273  0.19618652  1
  Se  Se236  1  0.91756878  0.08440314  0.69995638  1
  Se  Se237  1  0.91584101  0.41386048  0.20187827  1
  Se  Se238  1  0.91283157  0.43012759  0.68074204  1
  Se  Se239  1  0.90946613  0.74879105  0.19420712  1
  Se  Se240  1  0.90713080  0.75156078  0.68024440  1
  Se  Se241  1  0.08057536  0.24987041  0.19972614  1
  Se  Se242  1  0.09218268  0.23963713  0.68936233  1
  Se  Se243  1  0.09075079  0.57612127  0.18509310  1
  Se  Se244  1  0.08882313  0.57628194  0.68518053  1
  Se  Se245  1  0.08015768  0.91012157  0.19392506  1
  Se  Se246  1  0.08034194  0.90895248  0.70082498  1
  Se  Se247  1  0.41742165  0.25445601  0.19830386  1
  Se  Se248  1  0.42569308  0.24588844  0.68848983  1
  Se  Se249  1  0.41981225  0.58107243  0.20170696  1
  Se  Se250  1  0.41728424  0.58057635  0.69666328  1
  Se  Se251  1  0.41293388  0.92456750  0.20483293  1
  Se  Se252  1  0.42398283  0.90848148  0.68095196  1
  Se  Se253  1  0.74580364  0.25008886  0.19948581  1
  Se  Se254  1  0.75309031  0.25706164  0.69592451  1
  Se  Se255  1  0.74561994  0.58594722  0.20085753  1
  Se  Se256  1  0.74545095  0.58481249  0.69066577  1
  Se  Se257  1  0.75853197  0.90622837  0.19601963  1
  Se  Se258  1  0.73205838  0.93451136  0.69778054  1
