# generated using pymatgen
data_In86Cu29Se144
_symmetry_space_group_name_H-M   'P 1'
_cell_length_a   17.57950734
_cell_length_b   17.57742020
_cell_length_c   23.44279175
_cell_angle_alpha   89.99085848
_cell_angle_beta   90.03382019
_cell_angle_gamma   90.00187798
_symmetry_Int_Tables_number   1
_chemical_formula_structural   In86Cu29Se144
_chemical_formula_sum   'In86 Cu29 Se144'
_cell_volume   7243.87725695
_cell_formula_units_Z   1
loop_
 _symmetry_equiv_pos_site_id
 _symmetry_equiv_pos_as_xyz
  1  'x, y, z'
loop_
 _atom_site_type_symbol
 _atom_site_label
 _atom_site_symmetry_multiplicity
 _atom_site_fract_x
 _atom_site_fract_y
 _atom_site_fract_z
 _atom_site_occupancy
  In  In0  1  -0.00372443  0.16675421  0.12538964  1
  In  In1  1  -0.02217796  0.18671781  0.63576257  1
  In  In2  1  -0.01124313  0.49766931  0.12767768  1
  In  In3  1  0.00347337  0.49594276  0.61837816  1
  In  In4  1  0.02453885  0.83470569  0.11557739  1
  In  In5  1  -0.00056342  0.83649076  0.63509537  1
  In  In6  1  0.31808021  0.16872992  0.12358582  1
  In  In7  1  0.34370723  0.16268853  0.62125013  1
  In  In8  1  0.34723545  0.49833417  0.12600723  1
  In  In9  1  0.34700425  0.51508424  0.61561835  1
  In  In10  1  0.33390093  0.83320791  0.12719642  1
  In  In11  1  0.32465132  0.82348077  0.62744780  1
  In  In12  1  0.66328848  0.15516147  0.12246444  1
  In  In13  1  0.67350008  0.16473372  0.62372207  1
  In  In14  1  0.66755048  0.51208231  0.12866872  1
  In  In15  1  0.65114277  0.48165093  0.62170763  1
  In  In16  1  0.65620069  0.83990777  0.12625105  1
  In  In17  1  0.67297418  0.84705560  0.62785805  1
  In  In18  1  0.16270563  -0.00505555  0.36661310  1
  In  In19  1  0.15942831  0.00723112  0.88597799  1
  In  In20  1  0.16588717  0.34702714  0.37637087  1
  In  In21  1  0.15219732  0.33151336  0.87004852  1
  In  In22  1  0.17475292  0.65509457  0.37445733  1
  In  In23  1  0.17055936  0.67394364  0.87388736  1
  In  In24  1  0.50819811  0.00657026  0.36480716  1
  In  In25  1  0.49789143  -0.00709345  0.87382130  1
  In  In26  1  0.50197436  0.33065825  0.38642412  1
  In  In27  1  0.52327103  0.34055846  0.87065131  1
  In  In28  1  0.49544329  0.65902047  0.36906679  1
  In  In29  1  0.49321816  0.67466360  0.88017264  1
  In  In30  1  0.83855271  0.00500729  0.36865023  1
  In  In31  1  0.84501104  0.01396364  0.87133574  1
  In  In32  1  0.84679113  0.32097380  0.38897122  1
  In  In33  1  0.82567931  0.32194963  0.86853488  1
  In  In34  1  0.82422542  0.66791140  0.37619861  1
  In  In35  1  0.83491723  0.65365339  0.87007948  1
  In  In36  1  -0.00583879  0.16068069  0.37069414  1
  In  In37  1  -0.00152740  0.16698118  0.87694256  1
  In  In38  1  0.00928366  0.48806090  0.38735622  1
  In  In39  1  0.00182166  0.49766657  0.86160365  1
  In  In40  1  -0.00981445  0.83912706  0.36965679  1
  In  In41  1  0.00551811  0.83834196  0.87598420  1
  In  In42  1  0.34531195  0.16824146  0.37528791  1
  In  In43  1  0.33366149  0.15269496  0.87794176  1
  In  In44  1  0.33520960  0.50858657  0.38640577  1
  In  In45  1  0.33522936  0.51689484  0.87041424  1
  In  In46  1  0.33025707  0.82860576  0.36574003  1
  In  In47  1  0.34117979  0.82789410  0.88368966  1
  In  In48  1  0.67397477  0.15389424  0.38472969  1
  In  In49  1  0.68233469  0.18741094  0.86420850  1
  In  In50  1  0.65954534  0.50386161  0.38413666  1
  In  In51  1  0.66146387  0.48368471  0.87138038  1
  In  In52  1  0.67064132  0.83296572  0.36446370  1
  In  In53  1  0.64819461  0.83286817  0.87576335  1
  In  In54  1  0.16512049  0.00176917  0.12634175  1
  In  In55  1  0.16166364  -0.01150800  0.62536838  1
  In  In56  1  0.16224283  0.31737485  0.12159171  1
  In  In57  1  0.14416561  0.34070028  0.62544001  1
  In  In58  1  0.16529100  0.69154541  0.12046638  1
  In  In59  1  0.18010189  0.65093632  0.63245100  1
  In  In60  1  0.50934459  -0.00970695  0.12993052  1
  In  In61  1  0.51482602  0.01382436  0.61809779  1
  In  In62  1  0.49472677  0.33738605  0.11782179  1
  In  In63  1  0.51290216  0.33742458  0.63023844  1
  In  In64  1  0.49660359  0.66784896  0.12813239  1
  In  In65  1  0.49419482  0.64869581  0.63025675  1
  In  In66  1  0.82335786  0.01059398  0.12861245  1
  In  In67  1  0.81298407  0.02364510  0.63706937  1
  In  In68  1  0.84687748  0.33919220  0.12729507  1
  In  In69  1  0.83640153  0.32999030  0.61811466  1
  In  In70  1  0.83013516  0.65435550  0.12780760  1
  In  In71  1  0.84832680  0.66716580  0.62745232  1
  In  In72  1  0.50141787  0.82836009  0.50441003  1
  In  In73  1  0.66785710  0.66673689  0.74855957  1
  In  In74  1  0.16337649  0.16949534  0.50215350  1
  In  In75  1  0.83526208  0.83594075  0.49802103  1
  In  In76  1  0.16889746  0.50205227  -0.00799882  1
  In  In77  1  0.83234942  0.83573041  -0.00379983  1
  In  In78  1  0.00020994  0.67071025  0.24536683  1
  In  In79  1  0.16561667  0.82563634  0.49174541  1
  In  In80  1  0.33532354  -0.00516622  0.75306054  1
  In  In81  1  0.33471475  0.33646159  0.74407801  1
  In  In82  1  0.66942157  0.33167230  0.25782327  1
  In  In83  1  0.32960552  0.33222007  0.25251080  1
  In  In84  1  0.82848945  0.49521612  -0.00129044  1
  In  In85  1  0.50074098  0.16547859  -0.00253441  1
  Cu  Cu86  1  0.49291026  0.83243545  0.75193303  1
  Cu  Cu87  1  0.33373691  0.66874816  0.00219572  1
  Cu  Cu88  1  0.66727835  0.00363192  0.00062914  1
  Cu  Cu89  1  0.50301299  0.50582324  0.25449283  1
  Cu  Cu90  1  0.00935339  0.65990108  0.50572266  1
  Cu  Cu91  1  0.83742500  0.16819659  0.74839011  1
  Cu  Cu92  1  0.65518132  0.66696202  0.00353819  1
  Cu  Cu93  1  0.17116296  0.83746238  0.24586124  1
  Cu  Cu94  1  0.83321502  0.16746582  0.25311567  1
  Cu  Cu95  1  0.83286231  0.83823989  0.24462907  1
  Cu  Cu96  1  0.34088252  -0.00039564  0.49412512  1
  Cu  Cu97  1  0.66654046  0.66287147  0.50155380  1
  Cu  Cu98  1  0.83656846  0.49449475  0.74287598  1
  Cu  Cu99  1  0.49784754  0.15755690  0.25038465  1
  Cu  Cu100  1  -0.00127915  0.32713386  -0.00183588  1
  Cu  Cu101  1  0.16708817  0.50177736  0.25283378  1
  Cu  Cu102  1  0.15757053  0.16252088  0.24667212  1
  Cu  Cu103  1  0.32891888  -0.00492192  0.00416756  1
  Cu  Cu104  1  -0.01061848  0.00903324  0.50359390  1
  Cu  Cu105  1  0.83699310  0.84029093  0.75239621  1
  Cu  Cu106  1  0.33551558  0.33739735  0.50412375  1
  Cu  Cu107  1  0.66662479  0.33109164  0.50393332  1
  Cu  Cu108  1  -0.00047176  0.00441363  0.00156439  1
  Cu  Cu109  1  0.16050015  0.50100742  0.74605822  1
  Cu  Cu110  1  0.50006045  0.82942059  0.24772331  1
  Cu  Cu111  1  0.16328012  0.83089000  0.75386013  1
  Cu  Cu112  1  0.83610169  0.49893306  0.25573232  1
  Cu  Cu113  1  0.33510184  0.33436192  -0.00140220  1
  Cu  Cu114  1  0.16271291  0.16045937  0.75252098  1
  Se  Se115  1  0.08342889  0.08638076  0.05747420  1
  Se  Se116  1  0.07542382  0.08132144  0.56492936  1
  Se  Se117  1  0.07664454  0.41405512  0.05612014  1
  Se  Se118  1  0.07890362  0.41336877  0.54517649  1
  Se  Se119  1  0.07493110  0.73856662  0.04261321  1
  Se  Se120  1  0.08230160  0.74752112  0.56435288  1
  Se  Se121  1  0.41225330  0.07862059  0.06277088  1
  Se  Se122  1  0.42089595  0.08250946  0.54887913  1
  Se  Se123  1  0.41747352  0.42095749  0.04755011  1
  Se  Se124  1  0.42282423  0.41304954  0.55983765  1
  Se  Se125  1  0.41698064  0.75149068  0.05727004  1
  Se  Se126  1  0.40856245  0.73794155  0.55929126  1
  Se  Se127  1  0.75245402  0.08756512  0.04967252  1
  Se  Se128  1  0.75387605  0.08559490  0.55010443  1
  Se  Se129  1  0.74201124  0.41075973  0.06449543  1
  Se  Se130  1  0.74933314  0.41813403  0.55440524  1
  Se  Se131  1  0.74501139  0.74306042  0.05937757  1
  Se  Se132  1  0.74528511  0.74551126  0.56115497  1
  Se  Se133  1  0.24896823  0.25057869  0.04729062  1
  Se  Se134  1  0.25382985  0.25814371  0.56449263  1
  Se  Se135  1  0.25357655  0.58610815  0.06145937  1
  Se  Se136  1  0.24609240  0.57971427  0.55119790  1
  Se  Se137  1  0.24595373  0.91353164  0.05917714  1
  Se  Se138  1  0.25786526  0.92050034  0.55240117  1
  Se  Se139  1  0.59119678  0.25670149  0.05692430  1
  Se  Se140  1  0.58358950  0.24876359  0.55866580  1
  Se  Se141  1  0.57751803  0.58075638  0.05845646  1
  Se  Se142  1  0.58306417  0.58287332  0.55700899  1
  Se  Se143  1  0.58233007  0.91838941  0.04957646  1
  Se  Se144  1  0.59867452  0.92514412  0.54904976  1
  Se  Se145  1  0.91353033  0.25055750  0.05482850  1
  Se  Se146  1  0.91769246  0.24677467  0.54835758  1
  Se  Se147  1  0.92328437  0.58994497  0.05323086  1
  Se  Se148  1  0.91548724  0.58290912  0.55288344  1
  Se  Se149  1  0.91908066  0.92263316  0.06158540  1
  Se  Se150  1  0.91722543  0.92325965  0.56509408  1
  Se  Se151  1  0.07721797  0.25474206  0.43782552  1
  Se  Se152  1  0.08684567  0.24746841  0.94614889  1
  Se  Se153  1  0.09178683  0.58259872  0.44718112  1
  Se  Se154  1  0.07266597  0.58659507  0.93612938  1
  Se  Se155  1  0.06968404  0.92653386  0.44442566  1
  Se  Se156  1  0.08171276  0.91610143  0.95198676  1
  Se  Se157  1  0.41404467  0.24857448  0.45180918  1
  Se  Se158  1  0.41444334  0.25694257  0.93475467  1
  Se  Se159  1  0.43661769  0.57541262  0.44773158  1
  Se  Se160  1  0.41528730  0.58464370  0.94825022  1
  Se  Se161  1  0.41585866  0.91421345  0.43608722  1
  Se  Se162  1  0.41783797  0.92016210  0.94928363  1
  Se  Se163  1  0.74799006  0.24725746  0.44958824  1
  Se  Se164  1  0.74985267  0.25378807  0.94718897  1
  Se  Se165  1  0.75317433  0.58294331  0.44900205  1
  Se  Se166  1  0.73642493  0.59000175  0.94153937  1
  Se  Se167  1  0.74517121  0.92241908  0.43715396  1
  Se  Se168  1  0.74321159  0.92465720  0.93521195  1
  Se  Se169  1  0.25077248  0.07634637  0.43948679  1
  Se  Se170  1  0.25024919  0.08438998  0.95279065  1
  Se  Se171  1  0.25254597  0.41684130  0.44808378  1
  Se  Se172  1  0.25703599  0.40944253  0.93228454  1
  Se  Se173  1  0.26612881  0.73728222  0.44333071  1
  Se  Se174  1  0.24842637  0.75086509  0.94914107  1
  Se  Se175  1  0.56597692  0.09123742  0.44291496  1
  Se  Se176  1  0.59104547  0.08157211  0.93469843  1
  Se  Se177  1  0.58217618  0.41681133  0.45275050  1
  Se  Se178  1  0.58529813  0.41891794  0.95091384  1
  Se  Se179  1  0.59317563  0.74576797  0.43922464  1
  Se  Se180  1  0.57575528  0.75504830  0.95162344  1
  Se  Se181  1  0.90992039  0.08739325  0.44465036  1
  Se  Se182  1  0.91548925  0.08887745  0.95038889  1
  Se  Se183  1  0.90130006  0.43269550  0.44743320  1
  Se  Se184  1  0.92330086  0.41147191  0.93721308  1
  Se  Se185  1  0.93031075  0.74072902  0.44329473  1
  Se  Se186  1  0.91756155  0.74106564  0.93830902  1
  Se  Se187  1  0.23792413  0.24041277  0.31105087  1
  Se  Se188  1  0.24831308  0.24106787  0.80817573  1
  Se  Se189  1  0.25800507  0.57655267  0.30448730  1
  Se  Se190  1  0.24149311  0.58379407  0.80206389  1
  Se  Se191  1  0.25387589  0.92024635  0.30024482  1
  Se  Se192  1  0.24376632  0.91124387  0.81577441  1
  Se  Se193  1  0.57455219  0.24060411  0.31153333  1
  Se  Se194  1  0.58554652  0.25298312  0.79728683  1
  Se  Se195  1  0.59294420  0.58484579  0.30497977  1
  Se  Se196  1  0.57803641  0.58416893  0.81198860  1
  Se  Se197  1  0.58430582  0.91513012  0.29906200  1
  Se  Se198  1  0.57966666  0.91638771  0.80019056  1
  Se  Se199  1  0.91553653  0.25323099  0.30496829  1
  Se  Se200  1  0.92185701  0.25026136  0.80357265  1
  Se  Se201  1  0.91914598  0.58274357  0.31245304  1
  Se  Se202  1  0.91608119  0.58204639  0.79587972  1
  Se  Se203  1  0.91757330  0.92093490  0.29700049  1
  Se  Se204  1  0.92173001  0.92037361  0.80742612  1
  Se  Se205  1  0.07662397  0.07805295  0.30186570  1
  Se  Se206  1  0.08165266  0.07964299  0.80917766  1
  Se  Se207  1  0.08107612  0.42001761  0.30361848  1
  Se  Se208  1  0.07996900  0.40995025  0.79395456  1
  Se  Se209  1  0.09268087  0.75687661  0.31019919  1
  Se  Se210  1  0.07821121  0.74775128  0.80596099  1
  Se  Se211  1  0.40802239  0.07907938  0.30113476  1
  Se  Se212  1  0.42803227  0.09173516  0.80349387  1
  Se  Se213  1  0.42413120  0.41802945  0.31135506  1
  Se  Se214  1  0.42055807  0.42223523  0.80967785  1
  Se  Se215  1  0.41693838  0.74566495  0.30099982  1
  Se  Se216  1  0.41118193  0.74945091  0.80523844  1
  Se  Se217  1  0.74631144  0.08427784  0.30321736  1
  Se  Se218  1  0.75298010  0.08560175  0.80295093  1
  Se  Se219  1  0.75719997  0.42054096  0.31806388  1
  Se  Se220  1  0.75400661  0.41710169  0.80152110  1
  Se  Se221  1  0.75680212  0.74968591  0.29889938  1
  Se  Se222  1  0.75479553  0.75945256  0.81191272  1
  Se  Se223  1  0.24884183  0.08404524  0.19718120  1
  Se  Se224  1  0.24506294  0.08654628  0.69007258  1
  Se  Se225  1  0.24151200  0.41966467  0.18727332  1
  Se  Se226  1  0.24350758  0.42439644  0.68470932  1
  Se  Se227  1  0.25260749  0.74742302  0.19805493  1
  Se  Se228  1  0.24789941  0.74760482  0.70147931  1
  Se  Se229  1  0.58670779  0.08048979  0.19767388  1
  Se  Se230  1  0.59651185  0.07613975  0.69416440  1
  Se  Se231  1  0.57639319  0.41842901  0.19446238  1
  Se  Se232  1  0.58189313  0.42027586  0.70594597  1
  Se  Se233  1  0.58638568  0.74700625  0.19519693  1
  Se  Se234  1  0.57600345  0.75803107  0.68779013  1
  Se  Se235  1  0.91481941  0.08454634  0.19629957  1
  Se  Se236  1  0.92214200  0.07899532  0.69969630  1
  Se  Se237  1  0.92071804  0.41604811  0.20420998  1
  Se  Se238  1  0.91998809  0.41339161  0.68808069  1
  Se  Se239  1  0.91348359  0.76063263  0.18195568  1
  Se  Se240  1  0.91685275  0.75151962  0.70211406  1
  Se  Se241  1  0.07762456  0.25202611  0.19666865  1
  Se  Se242  1  0.08380889  0.24789125  0.69887678  1
  Se  Se243  1  0.09270006  0.58019163  0.18584313  1
  Se  Se244  1  0.07559206  0.58411041  0.69236724  1
  Se  Se245  1  0.08158578  0.91717633  0.19612560  1
  Se  Se246  1  0.08378622  0.91970019  0.70284969  1
  Se  Se247  1  0.42253359  0.24351443  0.19060198  1
  Se  Se248  1  0.42664831  0.23900063  0.69410849  1
  Se  Se249  1  0.41571801  0.58337601  0.19972034  1
  Se  Se250  1  0.40741395  0.58205012  0.70231439  1
  Se  Se251  1  0.41697025  0.91627315  0.19633519  1
  Se  Se252  1  0.42227450  0.91273523  0.68355207  1
  Se  Se253  1  0.75391960  0.24585477  0.19003636  1
  Se  Se254  1  0.75587877  0.25086578  0.69190801  1
  Se  Se255  1  0.75136297  0.58197243  0.20375212  1
  Se  Se256  1  0.75346883  0.57714064  0.68568890  1
  Se  Se257  1  0.74477256  0.91925134  0.19314821  1
  Se  Se258  1  0.74858380  0.92190571  0.70326575  1
