# generated using pymatgen
data_In86Cu29Se144
_symmetry_space_group_name_H-M   'P 1'
_cell_length_a   17.58680124
_cell_length_b   17.58593078
_cell_length_c   23.44945003
_cell_angle_alpha   90.01573736
_cell_angle_beta   90.01111857
_cell_angle_gamma   89.98116357
_symmetry_Int_Tables_number   1
_chemical_formula_structural   In86Cu29Se144
_chemical_formula_sum   'In86 Cu29 Se144'
_cell_volume   7252.45141894
_cell_formula_units_Z   1
loop_
 _symmetry_equiv_pos_site_id
 _symmetry_equiv_pos_as_xyz
  1  'x, y, z'
loop_
 _atom_site_type_symbol
 _atom_site_label
 _atom_site_symmetry_multiplicity
 _atom_site_fract_x
 _atom_site_fract_y
 _atom_site_fract_z
 _atom_site_occupancy
  In  In0  1  -0.02069865  0.16773649  0.11909843  1
  In  In1  1  0.00120161  0.16539408  0.61581952  1
  In  In2  1  0.02087664  0.50067456  0.12635967  1
  In  In3  1  0.01602239  0.49812210  0.62966413  1
  In  In4  1  -0.00029462  0.83340259  0.12519048  1
  In  In5  1  -0.01664851  0.82903061  0.63526852  1
  In  In6  1  0.34320134  0.16002265  0.13028318  1
  In  In7  1  0.31699464  0.18142909  0.64641498  1
  In  In8  1  0.32247402  0.48808114  0.12267079  1
  In  In9  1  0.32544649  0.50025767  0.62679430  1
  In  In10  1  0.34405612  0.84425253  0.11493300  1
  In  In11  1  0.34307258  0.83926252  0.63011718  1
  In  In12  1  0.66130992  0.16842648  0.12092050  1
  In  In13  1  0.67602412  0.16142774  0.64142575  1
  In  In14  1  0.66365801  0.50304822  0.12304047  1
  In  In15  1  0.66003897  0.48487600  0.62894806  1
  In  In16  1  0.66940774  0.83574918  0.12002243  1
  In  In17  1  0.67757952  0.84666281  0.63390922  1
  In  In18  1  0.17439037  0.00992952  0.36101548  1
  In  In19  1  0.16316345  -0.00348863  0.87647849  1
  In  In20  1  0.17021069  0.32713616  0.37689974  1
  In  In21  1  0.18672854  0.32659169  0.87432740  1
  In  In22  1  0.15415903  0.66447780  0.37229460  1
  In  In23  1  0.16286343  0.66978101  0.88398557  1
  In  In24  1  0.50099824  0.00073120  0.36220342  1
  In  In25  1  0.50406033  0.00163135  0.87952901  1
  In  In26  1  0.50187468  0.33376871  0.36180510  1
  In  In27  1  0.49901611  0.33052245  0.88603954  1
  In  In28  1  0.50331931  0.65604336  0.36504693  1
  In  In29  1  0.50125341  0.66449056  0.88887660  1
  In  In30  1  0.83967202  0.00716086  0.36879402  1
  In  In31  1  0.82208212  0.01212162  0.88447347  1
  In  In32  1  0.81947013  0.32669613  0.37175466  1
  In  In33  1  0.82070592  0.32574485  0.87690654  1
  In  In34  1  0.83607490  0.66754993  0.36049860  1
  In  In35  1  0.84797162  0.66949235  0.87499095  1
  In  In36  1  0.00409916  0.16197637  0.37796741  1
  In  In37  1  -0.00380213  0.16042251  0.87617517  1
  In  In38  1  0.00432257  0.51036033  0.36998262  1
  In  In39  1  -0.00382532  0.51489876  0.87647871  1
  In  In40  1  -0.00523843  0.82999062  0.36379893  1
  In  In41  1  0.00787945  0.82963212  0.88643093  1
  In  In42  1  0.32753779  0.16250184  0.36694747  1
  In  In43  1  0.34644452  0.18905804  0.85826040  1
  In  In44  1  0.33022516  0.48382435  0.37133266  1
  In  In45  1  0.34241624  0.48618226  0.88563081  1
  In  In46  1  0.32164887  0.83997830  0.36906214  1
  In  In47  1  0.32812605  0.83807372  0.88376653  1
  In  In48  1  0.67028606  0.16980169  0.36901021  1
  In  In49  1  0.67352785  0.16501501  0.88253874  1
  In  In50  1  0.66352419  0.49512520  0.35630064  1
  In  In51  1  0.65341143  0.48468499  0.87662115  1
  In  In52  1  0.67586675  0.84065090  0.36059476  1
  In  In53  1  0.66279394  0.84461659  0.88689820  1
  In  In54  1  0.17527359  -0.00559373  0.13012257  1
  In  In55  1  0.16125842  0.01218282  0.62778000  1
  In  In56  1  0.16693216  0.35445850  0.12390115  1
  In  In57  1  0.16598680  0.33700167  0.62011164  1
  In  In58  1  0.15637290  0.65588561  0.12431092  1
  In  In59  1  0.16766380  0.65272021  0.62601135  1
  In  In60  1  0.50425644  0.00505475  0.12188555  1
  In  In61  1  0.49132610  0.01270807  0.64144581  1
  In  In62  1  0.50170905  0.33005161  0.11995654  1
  In  In63  1  0.51582773  0.32960260  0.64385140  1
  In  In64  1  0.50834430  0.67759006  0.11337287  1
  In  In65  1  0.49691614  0.65572069  0.63073363  1
  In  In66  1  0.83307940  -0.00130513  0.12363816  1
  In  In67  1  0.82210031  0.00447313  0.63175709  1
  In  In68  1  0.83043104  0.31426435  0.11043043  1
  In  In69  1  0.83412994  0.31686615  0.62813870  1
  In  In70  1  0.82645742  0.67392199  0.12857617  1
  In  In71  1  0.83987416  0.68374948  0.63357329  1
  In  In72  1  -0.00219331  0.00085258  0.75587480  1
  In  In73  1  0.50291930  0.83500286  0.50027505  1
  In  In74  1  0.83540809  0.84034855  0.50381400  1
  In  In75  1  0.33336150  0.66514375  0.74981806  1
  In  In76  1  0.15851038  0.83617353  0.49571831  1
  In  In77  1  0.66913886  0.66477157  0.76156656  1
  In  In78  1  0.49445008  0.16600970  0.50419246  1
  In  In79  1  0.49463723  0.48913173  0.50435720  1
  In  In80  1  0.16722945  0.16587551  -0.00416791  1
  In  In81  1  -0.00287789  0.33505246  0.75583074  1
  In  In82  1  0.83048611  0.49747506  -0.00072909  1
  In  In83  1  -0.00335793  0.33385531  0.24217892  1
  In  In84  1  0.33575558  0.67252982  0.24410728  1
  In  In85  1  0.84033790  0.49899775  0.49591856  1
  Cu  Cu86  1  0.51063211  0.16105015  0.76285998  1
  Cu  Cu87  1  0.66695178  0.00895892  0.50680699  1
  Cu  Cu88  1  0.33710831  0.00669162  -0.00254278  1
  Cu  Cu89  1  0.83098366  0.50288994  0.75578024  1
  Cu  Cu90  1  0.00199699  0.00899442  0.49414889  1
  Cu  Cu91  1  0.82639678  0.16050600  0.24347478  1
  Cu  Cu92  1  0.16583656  0.17262934  0.24699583  1
  Cu  Cu93  1  0.32819099  0.32813083  0.50096152  1
  Cu  Cu94  1  0.16302494  0.82852970  0.76074115  1
  Cu  Cu95  1  0.32653158  0.65611489  0.50229879  1
  Cu  Cu96  1  -0.00018976  -0.00410643  0.00075707  1
  Cu  Cu97  1  0.00088601  0.66683306  0.00420936  1
  Cu  Cu98  1  0.32828279  0.66515159  0.00436722  1
  Cu  Cu99  1  0.50268888  0.50118992  0.24068306  1
  Cu  Cu100  1  0.50352179  0.16836397  0.24347922  1
  Cu  Cu101  1  0.00342606  0.32972900  0.49861245  1
  Cu  Cu102  1  0.67238127  0.66810245  0.00066525  1
  Cu  Cu103  1  0.83116132  0.83332026  0.24112615  1
  Cu  Cu104  1  0.83369569  0.49770473  0.24205855  1
  Cu  Cu105  1  0.50563159  0.83433121  0.75866728  1
  Cu  Cu106  1  0.32430078  0.00582751  0.49630468  1
  Cu  Cu107  1  0.16931074  0.50326578  0.75065790  1
  Cu  Cu108  1  0.50571495  0.83957269  0.23755264  1
  Cu  Cu109  1  0.33283746  0.33116224  0.00287960  1
  Cu  Cu110  1  0.66721867  0.00312705  0.00471137  1
  Cu  Cu111  1  0.16559640  0.83649232  0.24622115  1
  Cu  Cu112  1  0.66756816  0.32531012  0.49667776  1
  Cu  Cu113  1  0.66809570  0.66389074  0.49191395  1
  Cu  Cu114  1  0.00391164  0.66207910  0.49958479  1
  Se  Se115  1  0.08078087  0.07831561  0.06130225  1
  Se  Se116  1  0.08967242  0.08611958  0.54872076  1
  Se  Se117  1  0.08065990  0.41696912  0.04913193  1
  Se  Se118  1  0.08113376  0.41825771  0.55122209  1
  Se  Se119  1  0.08514203  0.75029005  0.05712575  1
  Se  Se120  1  0.07478379  0.74764117  0.56272529  1
  Se  Se121  1  0.41936825  0.08757855  0.05265966  1
  Se  Se122  1  0.40348388  0.07777766  0.56291982  1
  Se  Se123  1  0.41528086  0.41741073  0.05458719  1
  Se  Se124  1  0.41130117  0.39781653  0.56715519  1
  Se  Se125  1  0.41711801  0.75324456  0.04703107  1
  Se  Se126  1  0.40977609  0.73779396  0.55801070  1
  Se  Se127  1  0.75255126  0.08599832  0.05656616  1
  Se  Se128  1  0.74942869  0.09080810  0.55975826  1
  Se  Se129  1  0.73672918  0.40651038  0.05320705  1
  Se  Se130  1  0.74671842  0.41044884  0.55473825  1
  Se  Se131  1  0.75553383  0.75278237  0.05148043  1
  Se  Se132  1  0.74045697  0.74419499  0.55796603  1
  Se  Se133  1  0.25194005  0.25174022  0.06419408  1
  Se  Se134  1  0.25125879  0.24454751  0.55896284  1
  Se  Se135  1  0.24586959  0.58000107  0.05605245  1
  Se  Se136  1  0.24311179  0.57273511  0.55210025  1
  Se  Se137  1  0.25215098  0.92481189  0.05051005  1
  Se  Se138  1  0.25414225  0.91764045  0.55767548  1
  Se  Se139  1  0.56684825  0.23386480  0.05113370  1
  Se  Se140  1  0.58941373  0.25228848  0.56212879  1
  Se  Se141  1  0.58623143  0.58349065  0.04958112  1
  Se  Se142  1  0.59170459  0.58612402  0.55636161  1
  Se  Se143  1  0.58177208  0.91645718  0.05297576  1
  Se  Se144  1  0.58567083  0.92807516  0.56558119  1
  Se  Se145  1  0.92330626  0.25182329  0.04015470  1
  Se  Se146  1  0.91560567  0.25072229  0.55073623  1
  Se  Se147  1  0.91929467  0.58521336  0.06330319  1
  Se  Se148  1  0.92056701  0.59071494  0.56328399  1
  Se  Se149  1  0.91589198  0.91410596  0.05498092  1
  Se  Se150  1  0.92863804  0.93141294  0.56129916  1
  Se  Se151  1  0.08655225  0.24614516  0.44535797  1
  Se  Se152  1  0.07927585  0.25839191  0.93684504  1
  Se  Se153  1  0.08607279  0.57908695  0.44732520  1
  Se  Se154  1  0.08237772  0.58139757  0.95108958  1
  Se  Se155  1  0.07398177  0.92522494  0.43208897  1
  Se  Se156  1  0.09061070  0.91705282  0.95178172  1
  Se  Se157  1  0.41369938  0.25768508  0.43783053  1
  Se  Se158  1  0.40997271  0.24277028  0.94905915  1
  Se  Se159  1  0.41261987  0.58480667  0.44037302  1
  Se  Se160  1  0.41362475  0.58153497  0.95206179  1
  Se  Se161  1  0.40856694  0.92495923  0.43996646  1
  Se  Se162  1  0.41943050  0.91744229  0.94771425  1
  Se  Se163  1  0.75114478  0.24142712  0.44616437  1
  Se  Se164  1  0.75671937  0.24533598  0.95410863  1
  Se  Se165  1  0.74684253  0.58384593  0.43258685  1
  Se  Se166  1  0.74472574  0.58872574  0.93490337  1
  Se  Se167  1  0.74113107  0.92523201  0.44332521  1
  Se  Se168  1  0.75447310  0.91877388  0.95453900  1
  Se  Se169  1  0.24411080  0.08730658  0.44031314  1
  Se  Se170  1  0.26065278  0.08516007  0.93352348  1
  Se  Se171  1  0.24904666  0.41487716  0.44750926  1
  Se  Se172  1  0.24611168  0.41451306  0.95201310  1
  Se  Se173  1  0.25552669  0.74296931  0.44158526  1
  Se  Se174  1  0.24774676  0.75155318  0.95072066  1
  Se  Se175  1  0.58378554  0.07711164  0.44124223  1
  Se  Se176  1  0.58453609  0.08447254  0.94958595  1
  Se  Se177  1  0.59167778  0.41072013  0.43757560  1
  Se  Se178  1  0.57426651  0.42124861  0.95430953  1
  Se  Se179  1  0.58846211  0.74656317  0.43392393  1
  Se  Se180  1  0.58367120  0.75298525  0.95183220  1
  Se  Se181  1  0.91030612  0.08737577  0.44518403  1
  Se  Se182  1  0.91938522  0.08452270  0.95059676  1
  Se  Se183  1  0.92495947  0.40623696  0.43376782  1
  Se  Se184  1  0.91992770  0.41276181  0.93582454  1
  Se  Se185  1  0.91977029  0.74204441  0.44168995  1
  Se  Se186  1  0.91632572  0.75013841  0.95228720  1
  Se  Se187  1  0.24997644  0.25397466  0.30097060  1
  Se  Se188  1  0.24712527  0.25177511  0.79224497  1
  Se  Se189  1  0.25068665  0.58374413  0.30909043  1
  Se  Se190  1  0.24915080  0.57866110  0.81540539  1
  Se  Se191  1  0.25343238  0.92115114  0.29370173  1
  Se  Se192  1  0.24796938  0.91360427  0.80876351  1
  Se  Se193  1  0.58806094  0.25018400  0.29872024  1
  Se  Se194  1  0.58579101  0.24979335  0.81688603  1
  Se  Se195  1  0.58698280  0.58737627  0.29098633  1
  Se  Se196  1  0.56844505  0.57731845  0.81062904  1
  Se  Se197  1  0.58767090  0.92103528  0.29602527  1
  Se  Se198  1  0.58839891  0.91936914  0.80890409  1
  Se  Se199  1  0.90964310  0.24169991  0.30427324  1
  Se  Se200  1  0.90516316  0.23891633  0.80601800  1
  Se  Se201  1  0.91796026  0.57906294  0.29671988  1
  Se  Se202  1  0.91955079  0.58796923  0.79933228  1
  Se  Se203  1  0.91123891  0.91535308  0.30016912  1
  Se  Se204  1  0.91630085  0.91753874  0.82372410  1
  Se  Se205  1  0.07993146  0.08985174  0.29958229  1
  Se  Se206  1  0.09437534  0.09493255  0.80598555  1
  Se  Se207  1  0.08649975  0.41668684  0.30712867  1
  Se  Se208  1  0.09020973  0.42478895  0.81341575  1
  Se  Se209  1  0.08476889  0.75038956  0.29945809  1
  Se  Se210  1  0.07970933  0.74523052  0.81080967  1
  Se  Se211  1  0.41797868  0.08751171  0.29914598  1
  Se  Se212  1  0.41807581  0.07822546  0.80742472  1
  Se  Se213  1  0.41939298  0.42091605  0.29702635  1
  Se  Se214  1  0.40291233  0.39419124  0.81393236  1
  Se  Se215  1  0.42746538  0.76413774  0.30661014  1
  Se  Se216  1  0.42205540  0.75211485  0.81318943  1
  Se  Se217  1  0.74599673  0.07898302  0.30160518  1
  Se  Se218  1  0.74951170  0.08454918  0.80723364  1
  Se  Se219  1  0.75319489  0.41117295  0.29572425  1
  Se  Se220  1  0.74976752  0.41932021  0.80836471  1
  Se  Se221  1  0.74829699  0.74717160  0.29513521  1
  Se  Se222  1  0.75391735  0.76001224  0.81696375  1
  Se  Se223  1  0.25063943  0.08587334  0.19728747  1
  Se  Se224  1  0.26307802  0.06230283  0.69579552  1
  Se  Se225  1  0.24514248  0.42088765  0.20143639  1
  Se  Se226  1  0.24472406  0.41678233  0.69461965  1
  Se  Se227  1  0.24723344  0.76036500  0.18275821  1
  Se  Se228  1  0.24092466  0.75768066  0.69062289  1
  Se  Se229  1  0.58741623  0.08218816  0.19456112  1
  Se  Se230  1  0.59101412  0.07691493  0.70629003  1
  Se  Se231  1  0.58456913  0.41414827  0.18998335  1
  Se  Se232  1  0.58219948  0.42638713  0.70891665  1
  Se  Se233  1  0.58710671  0.74999701  0.19017768  1
  Se  Se234  1  0.57922511  0.75399008  0.69224167  1
  Se  Se235  1  0.91694170  0.08057518  0.19506970  1
  Se  Se236  1  0.91415638  0.09344588  0.69222136  1
  Se  Se237  1  0.90733254  0.41869746  0.17753405  1
  Se  Se238  1  0.90934244  0.42503157  0.68986342  1
  Se  Se239  1  0.91940582  0.74789757  0.19551783  1
  Se  Se240  1  0.91309589  0.75332218  0.71168549  1
  Se  Se241  1  0.08590480  0.24381445  0.18122219  1
  Se  Se242  1  0.08213039  0.24827295  0.68930422  1
  Se  Se243  1  0.08769204  0.58074812  0.20332459  1
  Se  Se244  1  0.08236657  0.58841646  0.70228290  1
  Se  Se245  1  0.08040191  0.91962338  0.19495020  1
  Se  Se246  1  0.08854082  0.90784309  0.69421272  1
  Se  Se247  1  0.41797154  0.25459387  0.19521623  1
  Se  Se248  1  0.42945281  0.24081850  0.70335274  1
  Se  Se249  1  0.42261191  0.58388474  0.18149503  1
  Se  Se250  1  0.42404971  0.56407272  0.69937056  1
  Se  Se251  1  0.41693479  0.92288048  0.19127838  1
  Se  Se252  1  0.41800484  0.91480817  0.70503858  1
  Se  Se253  1  0.75062497  0.24934776  0.18965763  1
  Se  Se254  1  0.73247281  0.27361884  0.69885957  1
  Se  Se255  1  0.74756665  0.58275061  0.19327654  1
  Se  Se256  1  0.75397501  0.57970235  0.68930802  1
  Se  Se257  1  0.74679749  0.91882289  0.19263333  1
  Se  Se258  1  0.76949743  0.90787256  0.70379973  1
