# generated using pymatgen
data_In86Cu29Se144
_symmetry_space_group_name_H-M   'P 1'
_cell_length_a   17.54806778
_cell_length_b   17.55132864
_cell_length_c   23.39885146
_cell_angle_alpha   89.98179509
_cell_angle_beta   90.00323658
_cell_angle_gamma   90.00362167
_symmetry_Int_Tables_number   1
_chemical_formula_structural   In86Cu29Se144
_chemical_formula_sum   'In86 Cu29 Se144'
_cell_volume   7206.65643413
_cell_formula_units_Z   1
loop_
 _symmetry_equiv_pos_site_id
 _symmetry_equiv_pos_as_xyz
  1  'x, y, z'
loop_
 _atom_site_type_symbol
 _atom_site_label
 _atom_site_symmetry_multiplicity
 _atom_site_fract_x
 _atom_site_fract_y
 _atom_site_fract_z
 _atom_site_occupancy
  In  In0  1  -0.01843745  0.16796349  0.12214838  1
  In  In1  1  -0.00590523  0.16027365  0.62836355  1
  In  In2  1  0.00868798  0.50774781  0.12255356  1
  In  In3  1  0.01672674  0.50281793  0.62151779  1
  In  In4  1  0.01088587  0.81798862  0.13169836  1
  In  In5  1  -0.00529959  0.82453476  0.62689278  1
  In  In6  1  0.35827886  0.14784386  0.15079195  1
  In  In7  1  0.32819328  0.15673471  0.62946068  1
  In  In8  1  0.31803444  0.50756294  0.14366480  1
  In  In9  1  0.33807213  0.49818460  0.61170278  1
  In  In10  1  0.33382076  0.83697253  0.12378805  1
  In  In11  1  0.33991228  0.84181243  0.61134873  1
  In  In12  1  0.65230430  0.16768269  0.12187572  1
  In  In13  1  0.66211298  0.16858878  0.64844888  1
  In  In14  1  0.67235456  0.49621240  0.12457081  1
  In  In15  1  0.65667180  0.50113501  0.62370668  1
  In  In16  1  0.65432990  0.84380567  0.12916499  1
  In  In17  1  0.66258728  0.83889329  0.62575801  1
  In  In18  1  0.16211875  -0.00331382  0.36070146  1
  In  In19  1  0.16948395  -0.01603034  0.88130305  1
  In  In20  1  0.19281644  0.34323270  0.35995805  1
  In  In21  1  0.18174280  0.34158525  0.88607792  1
  In  In22  1  0.17355764  0.66696269  0.36998706  1
  In  In23  1  0.16048089  0.67479328  0.88338945  1
  In  In24  1  0.48638694  -0.00878149  0.35981759  1
  In  In25  1  0.49836995  0.00009206  0.87395132  1
  In  In26  1  0.50700546  0.33581323  0.36304949  1
  In  In27  1  0.50948868  0.31484981  0.88769078  1
  In  In28  1  0.49849801  0.66749508  0.37076137  1
  In  In29  1  0.52008456  0.67602149  0.88814606  1
  In  In30  1  0.83324550  -0.00111589  0.36513541  1
  In  In31  1  0.81996254  0.02674666  0.88483596  1
  In  In32  1  0.81964528  0.33806845  0.36964230  1
  In  In33  1  0.82314248  0.33574506  0.88439104  1
  In  In34  1  0.83912726  0.66943053  0.35962732  1
  In  In35  1  0.83647767  0.64738759  0.88192894  1
  In  In36  1  0.01873391  0.16182753  0.36311296  1
  In  In37  1  -0.01432153  0.16248934  0.88277678  1
  In  In38  1  0.00911083  0.52075821  0.36653264  1
  In  In39  1  -0.00390143  0.50654834  0.88151174  1
  In  In40  1  0.00996463  0.84068524  0.36693820  1
  In  In41  1  0.01635766  0.83350540  0.87791237  1
  In  In42  1  0.33929676  0.16667293  0.33933459  1
  In  In43  1  0.35999324  0.15895962  0.88235865  1
  In  In44  1  0.33070989  0.50999557  0.36931538  1
  In  In45  1  0.33025322  0.48744906  0.88530029  1
  In  In46  1  0.33404882  0.83164206  0.37241286  1
  In  In47  1  0.32867572  0.84014542  0.88351558  1
  In  In48  1  0.64665610  0.15945971  0.35013184  1
  In  In49  1  0.66188698  0.16627692  0.87210860  1
  In  In50  1  0.65239158  0.48526161  0.36026999  1
  In  In51  1  0.68658508  0.50177238  0.88942759  1
  In  In52  1  0.65946706  0.82374121  0.36632186  1
  In  In53  1  0.64792997  0.83013719  0.88577667  1
  In  In54  1  0.18379825  -0.00751548  0.13713471  1
  In  In55  1  0.18027152  0.00178080  0.62157775  1
  In  In56  1  0.16976056  0.34461813  0.13248917  1
  In  In57  1  0.16279728  0.33939906  0.62066045  1
  In  In58  1  0.16650445  0.66316212  0.12904119  1
  In  In59  1  0.16222959  0.66234310  0.61715268  1
  In  In60  1  0.50182661  0.00202918  0.12554753  1
  In  In61  1  0.50737736  -0.00662639  0.62957510  1
  In  In62  1  0.51209297  0.31717581  0.14004255  1
  In  In63  1  0.50184529  0.33697090  0.62591485  1
  In  In64  1  0.48878039  0.67670707  0.13134472  1
  In  In65  1  0.49352208  0.66081017  0.61305569  1
  In  In66  1  0.81661858  0.01191846  0.12937206  1
  In  In67  1  0.82575302  -0.00482733  0.63174250  1
  In  In68  1  0.81028645  0.32585443  0.10333808  1
  In  In69  1  0.82121117  0.32328731  0.62568890  1
  In  In70  1  0.84099373  0.65679001  0.12883561  1
  In  In71  1  0.83841025  0.68196015  0.63204422  1
  In  In72  1  0.83054089  0.83411880  0.50665065  1
  In  In73  1  0.49256675  0.49932315  0.00935523  1
  In  In74  1  0.67200555  0.66657464  0.75566829  1
  In  In75  1  0.16716129  0.17296134  0.01102430  1
  In  In76  1  -0.00455701  0.33568704  0.75545704  1
  In  In77  1  0.33576064  0.66744853  0.74747556  1
  In  In78  1  0.18147368  0.17118324  0.48975301  1
  In  In79  1  0.83494686  0.50858964  0.48963094  1
  In  In80  1  0.49801602  0.16895625  0.49353841  1
  In  In81  1  -0.00685809  -0.00085873  0.75135225  1
  In  In82  1  -0.01094379  0.33335682  0.24362307  1
  In  In83  1  0.83065283  0.16675630  0.50614097  1
  In  In84  1  0.83466817  0.83118865  0.00952405  1
  In  In85  1  0.33942322  0.32410128  0.74797979  1
  Cu  Cu86  1  0.17008547  0.83076755  0.75376043  1
  Cu  Cu87  1  0.33195747  0.33563381  0.01645884  1
  Cu  Cu88  1  0.83296198  0.83483440  0.24191857  1
  Cu  Cu89  1  0.65578043  0.66035895  0.48971483  1
  Cu  Cu90  1  0.17065829  0.16139353  0.75479868  1
  Cu  Cu91  1  0.01226725  0.34642491  0.49519735  1
  Cu  Cu92  1  0.00319350  -0.00791088  0.00798981  1
  Cu  Cu93  1  0.49649918  0.50608910  0.24771168  1
  Cu  Cu94  1  0.33030912  0.66858036  0.01011149  1
  Cu  Cu95  1  0.17330445  0.82970700  0.24976027  1
  Cu  Cu96  1  0.82698455  0.16738705  0.23967456  1
  Cu  Cu97  1  0.01008063  0.00088640  0.48873244  1
  Cu  Cu98  1  0.65949007  0.00655837  0.00257084  1
  Cu  Cu99  1  0.65631799  -0.00723145  0.49977605  1
  Cu  Cu100  1  0.83548894  0.83735913  0.75923987  1
  Cu  Cu101  1  0.49695594  0.83687549  0.24820696  1
  Cu  Cu102  1  0.49447040  0.83339169  0.75019729  1
  Cu  Cu103  1  0.82805002  0.49241412  0.24284365  1
  Cu  Cu104  1  0.50893901  0.48847991  0.75211966  1
  Cu  Cu105  1  0.00783147  0.67325888  0.49549180  1
  Cu  Cu106  1  0.16507812  0.51106340  0.74868252  1
  Cu  Cu107  1  0.00695995  0.66418000  0.00496654  1
  Cu  Cu108  1  -0.00280539  0.33920691  0.00609141  1
  Cu  Cu109  1  0.33228238  -0.00397542  0.49036566  1
  Cu  Cu110  1  0.66292983  0.33059200  0.49088690  1
  Cu  Cu111  1  0.34142792  0.34120078  0.48840353  1
  Cu  Cu112  1  0.33757914  0.00442963  0.00685304  1
  Cu  Cu113  1  0.33301115  0.66774009  0.49112458  1
  Cu  Cu114  1  0.83941289  0.49541283  0.75810692  1
  Se  Se115  1  0.08238710  0.07467172  0.06782400  1
  Se  Se116  1  0.08317118  0.08599185  0.55293832  1
  Se  Se117  1  0.08711628  0.41553249  0.05707497  1
  Se  Se118  1  0.09638679  0.42789928  0.54680820  1
  Se  Se119  1  0.09120958  0.74901267  0.05458973  1
  Se  Se120  1  0.08347520  0.75843047  0.55403940  1
  Se  Se121  1  0.41784912  0.09045357  0.05921600  1
  Se  Se122  1  0.40995547  0.07599120  0.55435999  1
  Se  Se123  1  0.40995389  0.41602076  0.07773628  1
  Se  Se124  1  0.42647182  0.41356341  0.54922554  1
  Se  Se125  1  0.41785102  0.75538341  0.05331749  1
  Se  Se126  1  0.41747470  0.74998408  0.54661872  1
  Se  Se127  1  0.74494052  0.09026292  0.05300434  1
  Se  Se128  1  0.73439135  0.07487893  0.56159291  1
  Se  Se129  1  0.74863171  0.43159904  0.04290691  1
  Se  Se130  1  0.74735009  0.41209479  0.54996064  1
  Se  Se131  1  0.74466129  0.74729398  0.07001726  1
  Se  Se132  1  0.73584067  0.73423732  0.55727040  1
  Se  Se133  1  0.26137014  0.24664851  0.07655923  1
  Se  Se134  1  0.26826404  0.26165436  0.55734545  1
  Se  Se135  1  0.25099373  0.57937760  0.05997343  1
  Se  Se136  1  0.25223953  0.58496801  0.55013917  1
  Se  Se137  1  0.24966132  0.91997376  0.05414330  1
  Se  Se138  1  0.24570204  0.91774267  0.54562745  1
  Se  Se139  1  0.57396354  0.25369864  0.05254946  1
  Se  Se140  1  0.59357080  0.24798116  0.55871033  1
  Se  Se141  1  0.58099672  0.59178530  0.06567523  1
  Se  Se142  1  0.57944361  0.57540190  0.54796890  1
  Se  Se143  1  0.57812467  0.91872027  0.05205396  1
  Se  Se144  1  0.57500219  0.90841847  0.55287575  1
  Se  Se145  1  0.91117257  0.24731201  0.04576989  1
  Se  Se146  1  0.93187546  0.26450800  0.55667204  1
  Se  Se147  1  0.91839106  0.58144236  0.05228065  1
  Se  Se148  1  0.92125659  0.59711503  0.55692804  1
  Se  Se149  1  0.92139758  0.92028450  0.07203834  1
  Se  Se150  1  0.92649130  0.93228670  0.55764913  1
  Se  Se151  1  0.08595112  0.26073273  0.43378123  1
  Se  Se152  1  0.07638843  0.25851732  0.94273324  1
  Se  Se153  1  0.08948140  0.58682560  0.44412082  1
  Se  Se154  1  0.08896907  0.57894266  0.94912908  1
  Se  Se155  1  0.09337800  0.91620939  0.43998421  1
  Se  Se156  1  0.08766025  0.91091231  0.95556317  1
  Se  Se157  1  0.40712649  0.25029928  0.42722878  1
  Se  Se158  1  0.41149506  0.25440561  0.95757708  1
  Se  Se159  1  0.41855941  0.58287656  0.44140835  1
  Se  Se160  1  0.40909419  0.59372470  0.94263635  1
  Se  Se161  1  0.42146607  0.91451167  0.44075628  1
  Se  Se162  1  0.41685935  0.92079231  0.94831763  1
  Se  Se163  1  0.73931068  0.24246416  0.43490357  1
  Se  Se164  1  0.75611212  0.23254893  0.94316905  1
  Se  Se165  1  0.74109403  0.58997525  0.42705316  1
  Se  Se166  1  0.73843154  0.60511288  0.95604979  1
  Se  Se167  1  0.74538674  0.92069900  0.44021716  1
  Se  Se168  1  0.74520986  0.92136032  0.94712895  1
  Se  Se169  1  0.26498309  0.08207371  0.42552818  1
  Se  Se170  1  0.25294125  0.08236134  0.94486244  1
  Se  Se171  1  0.25072751  0.42265156  0.44192475  1
  Se  Se172  1  0.24966125  0.42119048  0.96420837  1
  Se  Se173  1  0.24805713  0.75324519  0.44231907  1
  Se  Se174  1  0.24969421  0.75140264  0.95018156  1
  Se  Se175  1  0.58560759  0.07566057  0.43418024  1
  Se  Se176  1  0.57666114  0.08579032  0.94383209  1
  Se  Se177  1  0.57849629  0.41599483  0.44143811  1
  Se  Se178  1  0.58735292  0.41579381  0.94769199  1
  Se  Se179  1  0.57810304  0.75411796  0.44243051  1
  Se  Se180  1  0.58623240  0.75292421  0.96650808  1
  Se  Se181  1  0.92268313  0.08408608  0.43741423  1
  Se  Se182  1  0.91877827  0.07773657  0.95820083  1
  Se  Se183  1  0.92466156  0.41402500  0.43223979  1
  Se  Se184  1  0.91489615  0.41925879  0.94675063  1
  Se  Se185  1  0.91874800  0.74912277  0.43949641  1
  Se  Se186  1  0.92513245  0.74534899  0.94418627  1
  Se  Se187  1  0.22109371  0.22903927  0.29546424  1
  Se  Se188  1  0.24866029  0.24215257  0.81670752  1
  Se  Se189  1  0.24298050  0.58000066  0.29701288  1
  Se  Se190  1  0.25123849  0.57809428  0.81310462  1
  Se  Se191  1  0.25746423  0.91671016  0.30039363  1
  Se  Se192  1  0.25234320  0.91540264  0.80537513  1
  Se  Se193  1  0.58784854  0.26320567  0.28842363  1
  Se  Se194  1  0.57478386  0.24870178  0.80462268  1
  Se  Se195  1  0.58470302  0.58866959  0.30000750  1
  Se  Se196  1  0.58058125  0.57532266  0.81511435  1
  Se  Se197  1  0.58725956  0.91727399  0.29943953  1
  Se  Se198  1  0.58088377  0.90902320  0.80746626  1
  Se  Se199  1  0.90491669  0.23925472  0.30939970  1
  Se  Se200  1  0.90568935  0.24283196  0.80966695  1
  Se  Se201  1  0.91408256  0.57701867  0.29329841  1
  Se  Se202  1  0.92187818  0.58439262  0.80411320  1
  Se  Se203  1  0.91755641  0.91467288  0.29993306  1
  Se  Se204  1  0.91070434  0.91785087  0.82344178  1
  Se  Se205  1  0.07463747  0.07023687  0.29016260  1
  Se  Se206  1  0.08618033  0.08568820  0.81611900  1
  Se  Se207  1  0.08214953  0.41823453  0.30448409  1
  Se  Se208  1  0.09609614  0.42238328  0.81109400  1
  Se  Se209  1  0.08496756  0.74809046  0.30168842  1
  Se  Se210  1  0.08504041  0.74702463  0.80373110  1
  Se  Se211  1  0.45070624  0.09975363  0.28911966  1
  Se  Se212  1  0.40775514  0.07227723  0.80337947  1
  Se  Se213  1  0.41522109  0.42149550  0.30374964  1
  Se  Se214  1  0.42342572  0.41526855  0.81377826  1
  Se  Se215  1  0.41528123  0.74994466  0.30162469  1
  Se  Se216  1  0.42502346  0.74938258  0.81481184  1
  Se  Se217  1  0.74924600  0.08084756  0.29697357  1
  Se  Se218  1  0.73917181  0.07563186  0.80287366  1
  Se  Se219  1  0.74241777  0.40769149  0.29208588  1
  Se  Se220  1  0.74988300  0.42005509  0.80963644  1
  Se  Se221  1  0.74970922  0.75108678  0.29683452  1
  Se  Se222  1  0.75707739  0.75580839  0.82060170  1
  Se  Se223  1  0.24829683  0.08565116  0.20728397  1
  Se  Se224  1  0.25030871  0.07595922  0.70158200  1
  Se  Se225  1  0.24549266  0.41491175  0.21106629  1
  Se  Se226  1  0.24784429  0.42483656  0.69200779  1
  Se  Se227  1  0.25542151  0.74913359  0.19262362  1
  Se  Se228  1  0.24729312  0.75631820  0.68581840  1
  Se  Se229  1  0.58442001  0.08144224  0.19660928  1
  Se  Se230  1  0.58855695  0.06681889  0.70240928  1
  Se  Se231  1  0.58297867  0.42426366  0.19574474  1
  Se  Se232  1  0.59226226  0.40996682  0.69631503  1
  Se  Se233  1  0.58226372  0.75158770  0.19823642  1
  Se  Se234  1  0.57302694  0.74572071  0.69160557  1
  Se  Se235  1  0.91554021  0.07984053  0.19633522  1
  Se  Se236  1  0.89836624  0.09568628  0.69998616  1
  Se  Se237  1  0.90293755  0.41558940  0.17586797  1
  Se  Se238  1  0.91352908  0.42381131  0.68498921  1
  Se  Se239  1  0.91823034  0.74467464  0.19820243  1
  Se  Se240  1  0.91995483  0.75388585  0.70670231  1
  Se  Se241  1  0.08052494  0.24286798  0.18674755  1
  Se  Se242  1  0.09250100  0.24278907  0.69412968  1
  Se  Se243  1  0.08000660  0.58519677  0.19826066  1
  Se  Se244  1  0.08113127  0.59192416  0.69550215  1
  Se  Se245  1  0.08684498  0.91161946  0.19660607  1
  Se  Se246  1  0.08947090  0.91286987  0.69130764  1
  Se  Se247  1  0.40268734  0.26805899  0.20452591  1
  Se  Se248  1  0.43060091  0.23263242  0.69079418  1
  Se  Se249  1  0.41062534  0.59332291  0.20233124  1
  Se  Se250  1  0.42660427  0.56874601  0.69265758  1
  Se  Se251  1  0.41444061  0.92078650  0.19392949  1
  Se  Se252  1  0.41270134  0.91216877  0.69199289  1
  Se  Se253  1  0.74640794  0.25096104  0.18594167  1
  Se  Se254  1  0.75114814  0.25627718  0.70596827  1
  Se  Se255  1  0.74621334  0.58486867  0.19598127  1
  Se  Se256  1  0.76044619  0.57585172  0.69177984  1
  Se  Se257  1  0.74424617  0.92025553  0.19729891  1
  Se  Se258  1  0.74834853  0.90847005  0.70011620  1
