# generated using pymatgen
data_In86Cu29Se144
_symmetry_space_group_name_H-M   'P 1'
_cell_length_a   17.57766352
_cell_length_b   17.57543503
_cell_length_c   23.43268403
_cell_angle_alpha   89.97996699
_cell_angle_beta   90.02694458
_cell_angle_gamma   89.98580676
_symmetry_Int_Tables_number   1
_chemical_formula_structural   In86Cu29Se144
_chemical_formula_sum   'In86 Cu29 Se144'
_cell_volume   7239.17672214
_cell_formula_units_Z   1
loop_
 _symmetry_equiv_pos_site_id
 _symmetry_equiv_pos_as_xyz
  1  'x, y, z'
loop_
 _atom_site_type_symbol
 _atom_site_label
 _atom_site_symmetry_multiplicity
 _atom_site_fract_x
 _atom_site_fract_y
 _atom_site_fract_z
 _atom_site_occupancy
  In  In0  1  -0.00231806  0.16923946  0.11751178  1
  In  In1  1  0.00642746  0.16482731  0.62763626  1
  In  In2  1  0.00382226  0.48635116  0.12250244  1
  In  In3  1  0.00412200  0.49842579  0.62072683  1
  In  In4  1  0.00598143  0.83831237  0.12698525  1
  In  In5  1  -0.00918170  0.82242307  0.62198946  1
  In  In6  1  0.32502649  0.18148106  0.13711623  1
  In  In7  1  0.32046940  0.16623932  0.62434783  1
  In  In8  1  0.33390197  0.49818650  0.12680450  1
  In  In9  1  0.33905746  0.50969358  0.61672785  1
  In  In10  1  0.33946565  0.81919617  0.13772378  1
  In  In11  1  0.33337130  0.83255284  0.62069796  1
  In  In12  1  0.67869693  0.17377681  0.12418872  1
  In  In13  1  0.67412728  0.16269692  0.64056752  1
  In  In14  1  0.65157927  0.50544725  0.12547213  1
  In  In15  1  0.66131253  0.49271045  0.62275361  1
  In  In16  1  0.65766433  0.85126443  0.12311362  1
  In  In17  1  0.67644660  0.85027672  0.61017128  1
  In  In18  1  0.17921517  -0.00690755  0.38585708  1
  In  In19  1  0.17544013  -0.00389230  0.87454539  1
  In  In20  1  0.17495339  0.32437886  0.38578969  1
  In  In21  1  0.16054554  0.34144806  0.87867482  1
  In  In22  1  0.17624764  0.66312886  0.37721914  1
  In  In23  1  0.16529585  0.65711005  0.86375238  1
  In  In24  1  0.49189350  -0.00052610  0.37541125  1
  In  In25  1  0.49197930  -0.00652209  0.86812282  1
  In  In26  1  0.50736324  0.33468015  0.36630580  1
  In  In27  1  0.51354155  0.33577386  0.87688624  1
  In  In28  1  0.49118624  0.67766418  0.38208344  1
  In  In29  1  0.48881547  0.67239118  0.87750980  1
  In  In30  1  0.82363545  -0.00724812  0.38323502  1
  In  In31  1  0.83715822  0.02059707  0.86667924  1
  In  In32  1  0.83462537  0.34057676  0.37709555  1
  In  In33  1  0.82861918  0.31825930  0.85748714  1
  In  In34  1  0.83260374  0.66473530  0.39018269  1
  In  In35  1  0.83811112  0.65879745  0.86613880  1
  In  In36  1  0.00836691  0.18216338  0.38085226  1
  In  In37  1  -0.00690179  0.17849977  0.87809320  1
  In  In38  1  0.00401599  0.48382389  0.39718725  1
  In  In39  1  0.01021027  0.49991605  0.86423257  1
  In  In40  1  0.00628170  0.82883844  0.38981129  1
  In  In41  1  0.01166776  0.82916488  0.86493162  1
  In  In42  1  0.33152974  0.15619397  0.36538878  1
  In  In43  1  0.33210956  0.15087843  0.87701551  1
  In  In44  1  0.33457396  0.50214879  0.37489491  1
  In  In45  1  0.32328585  0.50569328  0.87868951  1
  In  In46  1  0.33037682  0.83566523  0.37345132  1
  In  In47  1  0.34077533  0.83614819  0.86555034  1
  In  In48  1  0.65216817  0.16636930  0.36899476  1
  In  In49  1  0.67699142  0.17289197  0.86297280  1
  In  In50  1  0.67114364  0.48973026  0.38622975  1
  In  In51  1  0.66862259  0.49322941  0.87432194  1
  In  In52  1  0.66620967  0.83977298  0.39679468  1
  In  In53  1  0.65480519  0.82951469  0.87116089  1
  In  In54  1  0.16480097  0.01033002  0.12705409  1
  In  In55  1  0.17557787  0.00683630  0.61950840  1
  In  In56  1  0.17131861  0.34099012  0.11834679  1
  In  In57  1  0.15400687  0.32776077  0.60920098  1
  In  In58  1  0.18615993  0.66636719  0.12717072  1
  In  In59  1  0.16723316  0.66529615  0.62104863  1
  In  In60  1  0.49575988  -0.01311817  0.11994490  1
  In  In61  1  0.50920055  -0.01303447  0.62766296  1
  In  In62  1  0.48940053  0.34288319  0.13701064  1
  In  In63  1  0.50461051  0.34493344  0.62325046  1
  In  In64  1  0.48381138  0.65734830  0.11771490  1
  In  In65  1  0.49098675  0.66127730  0.61945082  1
  In  In66  1  0.82092162  0.01241684  0.12363300  1
  In  In67  1  0.82675133  -0.00937921  0.63151889  1
  In  In68  1  0.83206581  0.32061066  0.12734222  1
  In  In69  1  0.82805498  0.33408696  0.63300367  1
  In  In70  1  0.84114756  0.66852210  0.12655436  1
  In  In71  1  0.84779436  0.67864503  0.62488265  1
  In  In72  1  0.00362443  0.00323856  0.24625237  1
  In  In73  1  0.00063622  0.33293417  0.25916432  1
  In  In74  1  0.66047144  0.00419336  0.25242701  1
  In  In75  1  0.00753628  0.65816337  0.26956153  1
  In  In76  1  0.83490054  0.16309204  0.50775001  1
  In  In77  1  0.66871330  0.67281651  0.74347398  1
  In  In78  1  0.49846900  0.17085267  0.00104368  1
  In  In79  1  0.49990053  0.16188636  0.49231052  1
  In  In80  1  0.33196799  0.33526819  0.74807452  1
  In  In81  1  -0.00198429  -0.00155217  0.74287059  1
  In  In82  1  0.83282469  0.49394142  -0.01279278  1
  In  In83  1  0.17040877  0.83117354  0.00007416  1
  In  In84  1  0.82653522  0.83435263  -0.00768254  1
  In  In85  1  0.65928779  0.66822797  0.25593256  1
  Cu  Cu86  1  0.83706880  0.82957970  0.25916408  1
  Cu  Cu87  1  0.33108962  0.67003425  0.49767371  1
  Cu  Cu88  1  0.49615502  0.50136898  0.25137367  1
  Cu  Cu89  1  0.33450311  0.33828782  0.49992538  1
  Cu  Cu90  1  0.16894410  0.49854451  0.74275695  1
  Cu  Cu91  1  0.66873453  0.33689950  -0.00411099  1
  Cu  Cu92  1  0.33359935  -0.00125902  0.49712217  1
  Cu  Cu93  1  0.00062113  0.66709023  0.50445508  1
  Cu  Cu94  1  0.00472212  0.33012448  -0.00302614  1
  Cu  Cu95  1  0.16585563  0.16528653  0.74712592  1
  Cu  Cu96  1  0.82332275  0.49694073  0.25927135  1
  Cu  Cu97  1  0.33283589  0.33405237  0.00751120  1
  Cu  Cu98  1  0.33580563  0.66342277  0.00039292  1
  Cu  Cu99  1  0.17339407  0.50075449  0.24972262  1
  Cu  Cu100  1  0.00579629  0.00357448  0.50716591  1
  Cu  Cu101  1  0.49546290  0.83107305  0.74486941  1
  Cu  Cu102  1  0.66275877  0.65819735  0.50711120  1
  Cu  Cu103  1  0.49460245  0.82841581  0.25074539  1
  Cu  Cu104  1  0.33127574  -0.00028683  -0.00160725  1
  Cu  Cu105  1  -0.00699935  0.00772436  -0.00060684  1
  Cu  Cu106  1  0.66218459  0.00844733  -0.00151240  1
  Cu  Cu107  1  0.84285304  0.49914029  0.74683404  1
  Cu  Cu108  1  0.17353830  0.82666025  0.74445739  1
  Cu  Cu109  1  0.16830569  0.16908146  0.25237200  1
  Cu  Cu110  1  0.49697738  0.16302457  0.75321605  1
  Cu  Cu111  1  0.66499231  0.32888708  0.50193366  1
  Cu  Cu112  1  0.00854816  0.65695177  -0.00828758  1
  Cu  Cu113  1  0.50223457  0.50106732  0.74528532  1
  Cu  Cu114  1  0.65357196  0.67570294  0.00047377  1
  Se  Se115  1  0.08232596  0.08338320  0.05330310  1
  Se  Se116  1  0.08930526  0.09156050  0.55402934  1
  Se  Se117  1  0.08564458  0.41864267  0.04727191  1
  Se  Se118  1  0.09015570  0.42912640  0.54651049  1
  Se  Se119  1  0.07709659  0.73909173  0.05878711  1
  Se  Se120  1  0.08506862  0.75340090  0.55388112  1
  Se  Se121  1  0.40677682  0.08276273  0.06051401  1
  Se  Se122  1  0.41211106  0.07889460  0.55973379  1
  Se  Se123  1  0.41948675  0.41739201  0.05693287  1
  Se  Se124  1  0.42066089  0.41884776  0.55198070  1
  Se  Se125  1  0.41202169  0.75544995  0.05337231  1
  Se  Se126  1  0.41712359  0.75151283  0.55051994  1
  Se  Se127  1  0.74920808  0.09107175  0.04765615  1
  Se  Se128  1  0.73815517  0.07530202  0.56086867  1
  Se  Se129  1  0.74684933  0.41693120  0.06021378  1
  Se  Se130  1  0.74840262  0.41000532  0.55688838  1
  Se  Se131  1  0.74115453  0.74640392  0.06206233  1
  Se  Se132  1  0.74857942  0.74281617  0.55683006  1
  Se  Se133  1  0.24920141  0.24602745  0.05514157  1
  Se  Se134  1  0.25245842  0.24963961  0.54942340  1
  Se  Se135  1  0.25198455  0.58009379  0.05370611  1
  Se  Se136  1  0.24812633  0.58354900  0.54893575  1
  Se  Se137  1  0.25580482  0.91940264  0.06330269  1
  Se  Se138  1  0.24954068  0.91609956  0.55135340  1
  Se  Se139  1  0.58697301  0.26261212  0.06011995  1
  Se  Se140  1  0.58766265  0.24512723  0.56150166  1
  Se  Se141  1  0.57750447  0.58401654  0.05094716  1
  Se  Se142  1  0.57622509  0.57404000  0.55515334  1
  Se  Se143  1  0.57971749  0.91760741  0.04414146  1
  Se  Se144  1  0.57460314  0.91388495  0.54649979  1
  Se  Se145  1  0.91476417  0.25433378  0.05062540  1
  Se  Se146  1  0.92265329  0.25753090  0.56230392  1
  Se  Se147  1  0.92180208  0.58442045  0.05332877  1
  Se  Se148  1  0.91538551  0.58417502  0.55595496  1
  Se  Se149  1  0.91645513  0.92254094  0.05915016  1
  Se  Se150  1  0.91926149  0.92421674  0.56052272  1
  Se  Se151  1  0.07384839  0.26657750  0.45372590  1
  Se  Se152  1  0.08990281  0.24572729  0.94581993  1
  Se  Se153  1  0.08289896  0.58989845  0.44534615  1
  Se  Se154  1  0.09159845  0.57568247  0.93918502  1
  Se  Se155  1  0.08759178  0.91886964  0.45287859  1
  Se  Se156  1  0.07245012  0.92194547  0.94317309  1
  Se  Se157  1  0.41047436  0.25605150  0.43692923  1
  Se  Se158  1  0.40718724  0.25897254  0.93823858  1
  Se  Se159  1  0.41577786  0.58379548  0.44671275  1
  Se  Se160  1  0.41732121  0.57923448  0.94545563  1
  Se  Se161  1  0.41693091  0.91406572  0.44540500  1
  Se  Se162  1  0.41141869  0.91692165  0.94262632  1
  Se  Se163  1  0.74196906  0.24626063  0.44117638  1
  Se  Se164  1  0.74856733  0.25534345  0.93860393  1
  Se  Se165  1  0.74919319  0.57733842  0.45362912  1
  Se  Se166  1  0.74014637  0.59900481  0.94166998  1
  Se  Se167  1  0.76373825  0.90899258  0.45983273  1
  Se  Se168  1  0.74094824  0.92863187  0.93482700  1
  Se  Se169  1  0.25444809  0.09178742  0.44754778  1
  Se  Se170  1  0.24348598  0.08206883  0.94954432  1
  Se  Se171  1  0.25119544  0.42224943  0.44640267  1
  Se  Se172  1  0.25146738  0.41444546  0.94777335  1
  Se  Se173  1  0.24824785  0.75528669  0.44546131  1
  Se  Se174  1  0.25535754  0.74197049  0.93653836  1
  Se  Se175  1  0.59667921  0.06737110  0.44258550  1
  Se  Se176  1  0.58297493  0.08508703  0.93412128  1
  Se  Se177  1  0.57763431  0.40817342  0.44780530  1
  Se  Se178  1  0.58347123  0.42408650  0.94914522  1
  Se  Se179  1  0.58309356  0.74508017  0.45319020  1
  Se  Se180  1  0.57275293  0.75728577  0.94514512  1
  Se  Se181  1  0.92652199  0.07812946  0.44140531  1
  Se  Se182  1  0.91152318  0.09123608  0.94590826  1
  Se  Se183  1  0.90231095  0.41478884  0.45566282  1
  Se  Se184  1  0.92506685  0.40563004  0.93099564  1
  Se  Se185  1  0.91404545  0.75308263  0.45462764  1
  Se  Se186  1  0.92616566  0.74289496  0.93903455  1
  Se  Se187  1  0.24970145  0.25379767  0.30627147  1
  Se  Se188  1  0.24626767  0.24340988  0.81051949  1
  Se  Se189  1  0.25405231  0.58593979  0.30272941  1
  Se  Se190  1  0.25523553  0.57879338  0.79693663  1
  Se  Se191  1  0.26395608  0.93588007  0.30783491  1
  Se  Se192  1  0.24831238  0.91447380  0.80094136  1
  Se  Se193  1  0.57662488  0.24311532  0.29620615  1
  Se  Se194  1  0.57949303  0.25127829  0.80208302  1
  Se  Se195  1  0.57586695  0.57597556  0.31675522  1
  Se  Se196  1  0.58114204  0.58282224  0.80781369  1
  Se  Se197  1  0.58246712  0.90129622  0.31115021  1
  Se  Se198  1  0.57827422  0.91300764  0.80025670  1
  Se  Se199  1  0.90577833  0.23903645  0.30968822  1
  Se  Se200  1  0.92817388  0.24924451  0.79586765  1
  Se  Se201  1  0.90894451  0.56802190  0.32045351  1
  Se  Se202  1  0.92556663  0.58487390  0.79786689  1
  Se  Se203  1  0.91844629  0.91308505  0.31403407  1
  Se  Se204  1  0.91100874  0.91101277  0.80877670  1
  Se  Se205  1  0.08830879  0.09008383  0.31313847  1
  Se  Se206  1  0.08662694  0.08453794  0.80916961  1
  Se  Se207  1  0.09247606  0.42544881  0.31382177  1
  Se  Se208  1  0.08956336  0.41161337  0.79688575  1
  Se  Se209  1  0.09426335  0.76351712  0.31210421  1
  Se  Se210  1  0.08660893  0.74458992  0.79540875  1
  Se  Se211  1  0.43852138  0.09580135  0.30427318  1
  Se  Se212  1  0.40945445  0.07924034  0.80046865  1
  Se  Se213  1  0.41386947  0.41660399  0.30477194  1
  Se  Se214  1  0.42321194  0.42262557  0.80964708  1
  Se  Se215  1  0.41166823  0.74678170  0.30479288  1
  Se  Se216  1  0.41473850  0.74424123  0.79792939  1
  Se  Se217  1  0.75892642  0.08688767  0.31014147  1
  Se  Se218  1  0.74094827  0.07539310  0.79608159  1
  Se  Se219  1  0.74078889  0.41013576  0.30776358  1
  Se  Se220  1  0.75399789  0.42339450  0.80187038  1
  Se  Se221  1  0.75201117  0.75461931  0.31726254  1
  Se  Se222  1  0.75899257  0.75917661  0.80715876  1
  Se  Se223  1  0.24952997  0.08329360  0.19919934  1
  Se  Se224  1  0.25138928  0.08053613  0.69856138  1
  Se  Se225  1  0.25026319  0.41280920  0.19486632  1
  Se  Se226  1  0.24704528  0.41831963  0.68088949  1
  Se  Se227  1  0.24449709  0.75054025  0.20351618  1
  Se  Se228  1  0.25563562  0.74398371  0.69005784  1
  Se  Se229  1  0.57953064  0.08464092  0.18083041  1
  Se  Se230  1  0.57868027  0.07945445  0.69789535  1
  Se  Se231  1  0.58527461  0.42138476  0.20003953  1
  Se  Se232  1  0.58696499  0.41348908  0.69985641  1
  Se  Se233  1  0.57665948  0.75459203  0.18696080  1
  Se  Se234  1  0.57752990  0.75666260  0.68187630  1
  Se  Se235  1  0.90809452  0.09460201  0.19259428  1
  Se  Se236  1  0.90437764  0.09429815  0.69238528  1
  Se  Se237  1  0.90864828  0.42404391  0.19649890  1
  Se  Se238  1  0.92397137  0.41545650  0.69279612  1
  Se  Se239  1  0.92011905  0.75278574  0.19981231  1
  Se  Se240  1  0.91747568  0.75486860  0.70271528  1
  Se  Se241  1  0.08630793  0.24755533  0.19136796  1
  Se  Se242  1  0.08962220  0.25232255  0.69277010  1
  Se  Se243  1  0.08502998  0.57637329  0.19182931  1
  Se  Se244  1  0.08441767  0.58349298  0.69145336  1
  Se  Se245  1  0.09886538  0.90677466  0.19685657  1
  Se  Se246  1  0.09248240  0.91012530  0.68558879  1
  Se  Se247  1  0.42308207  0.24602861  0.20168932  1
  Se  Se248  1  0.42329140  0.24446040  0.68804790  1
  Se  Se249  1  0.41327528  0.58472633  0.19733595  1
  Se  Se250  1  0.41548858  0.58240936  0.69549307  1
  Se  Se251  1  0.41696813  0.91813612  0.19796836  1
  Se  Se252  1  0.41161863  0.91708240  0.69316347  1
  Se  Se253  1  0.74722845  0.25392149  0.20028084  1
  Se  Se254  1  0.74372504  0.25846588  0.70376117  1
  Se  Se255  1  0.75641180  0.58183245  0.19455621  1
  Se  Se256  1  0.75809405  0.57769761  0.68742873  1
  Se  Se257  1  0.75971142  0.90949635  0.19594961  1
  Se  Se258  1  0.73932999  0.91269359  0.69748051  1
