# generated using pymatgen
data_In86Cu29Se144
_symmetry_space_group_name_H-M   'P 1'
_cell_length_a   17.57836588
_cell_length_b   17.57767879
_cell_length_c   23.43986811
_cell_angle_alpha   89.98421981
_cell_angle_beta   89.98730564
_cell_angle_gamma   89.99341680
_symmetry_Int_Tables_number   1
_chemical_formula_structural   In86Cu29Se144
_chemical_formula_sum   'In86 Cu29 Se144'
_cell_volume   7242.61095745
_cell_formula_units_Z   1
loop_
 _symmetry_equiv_pos_site_id
 _symmetry_equiv_pos_as_xyz
  1  'x, y, z'
loop_
 _atom_site_type_symbol
 _atom_site_label
 _atom_site_symmetry_multiplicity
 _atom_site_fract_x
 _atom_site_fract_y
 _atom_site_fract_z
 _atom_site_occupancy
  In  In0  1  -0.00564918  0.17560890  0.13626794  1
  In  In1  1  -0.00906914  0.17952887  0.62527098  1
  In  In2  1  -0.01426638  0.50857276  0.13512121  1
  In  In3  1  0.00912839  0.51057377  0.61549245  1
  In  In4  1  0.00857459  0.82416612  0.13203553  1
  In  In5  1  -0.00223742  0.81668536  0.62309640  1
  In  In6  1  0.32958366  0.15704394  0.12330773  1
  In  In7  1  0.34907010  0.17106227  0.62676683  1
  In  In8  1  0.33725285  0.50839421  0.12795623  1
  In  In9  1  0.34248603  0.50485355  0.62458656  1
  In  In10  1  0.34543235  0.84551786  0.11664053  1
  In  In11  1  0.32304654  0.81994488  0.61549540  1
  In  In12  1  0.66723722  0.16911194  0.10931178  1
  In  In13  1  0.66903571  0.16758164  0.62890368  1
  In  In14  1  0.67867736  0.49167767  0.12392828  1
  In  In15  1  0.66451737  0.50184998  0.62460624  1
  In  In16  1  0.65389482  0.83269648  0.12215027  1
  In  In17  1  0.65841122  0.83603470  0.62740842  1
  In  In18  1  0.16258058  -0.01042913  0.36891274  1
  In  In19  1  0.15257939  -0.00768377  0.88192454  1
  In  In20  1  0.16477003  0.34981986  0.38085761  1
  In  In21  1  0.17846709  0.33481827  0.87415731  1
  In  In22  1  0.16368203  0.66682460  0.38005721  1
  In  In23  1  0.17251002  0.67365253  0.86873280  1
  In  In24  1  0.48526275  -0.00070305  0.36844407  1
  In  In25  1  0.51122084  -0.00887479  0.88000863  1
  In  In26  1  0.50670119  0.33866856  0.37629432  1
  In  In27  1  0.50218862  0.33360147  0.86800277  1
  In  In28  1  0.51683693  0.65861475  0.38983367  1
  In  In29  1  0.50576177  0.67170973  0.86149238  1
  In  In30  1  0.84733195  -0.00328711  0.37158515  1
  In  In31  1  0.83165594  0.01912773  0.88376304  1
  In  In32  1  0.83074147  0.33043857  0.38197889  1
  In  In33  1  0.81963911  0.34596333  0.89216665  1
  In  In34  1  0.82228538  0.65272477  0.37067842  1
  In  In35  1  0.82399304  0.65788025  0.86542030  1
  In  In36  1  -0.00893179  0.15836211  0.37044213  1
  In  In37  1  -0.01703389  0.16537017  0.88457770  1
  In  In38  1  -0.00390639  0.49978584  0.37609129  1
  In  In39  1  -0.01646697  0.49731895  0.87534290  1
  In  In40  1  0.01166675  0.83543276  0.36734935  1
  In  In41  1  0.00962074  0.83646531  0.88103355  1
  In  In42  1  0.34534297  0.15392598  0.36937287  1
  In  In43  1  0.33741120  0.18501933  0.87177317  1
  In  In44  1  0.33537057  0.49080453  0.39135145  1
  In  In45  1  0.35166441  0.51215453  0.84987298  1
  In  In46  1  0.32972238  0.83339103  0.37906553  1
  In  In47  1  0.33814171  0.82957277  0.87879672  1
  In  In48  1  0.66466697  0.18172088  0.37498052  1
  In  In49  1  0.67245183  0.16574377  0.87565128  1
  In  In50  1  0.65697986  0.52058290  0.39963348  1
  In  In51  1  0.66647438  0.50545612  0.86122918  1
  In  In52  1  0.66691219  0.81387980  0.37704597  1
  In  In53  1  0.65544854  0.82340463  0.86487945  1
  In  In54  1  0.17717745  -0.00510334  0.13119430  1
  In  In55  1  0.17562292  -0.00733373  0.62191718  1
  In  In56  1  0.16435897  0.31727306  0.12930224  1
  In  In57  1  0.17713338  0.35205116  0.61571097  1
  In  In58  1  0.15346943  0.66571758  0.12857626  1
  In  In59  1  0.16762308  0.66711450  0.62352913  1
  In  In60  1  0.49809598  -0.00001996  0.11933133  1
  In  In61  1  0.51475373  0.00593300  0.62376664  1
  In  In62  1  0.51522258  0.32689011  0.12003616  1
  In  In63  1  0.48289020  0.36620944  0.65141004  1
  In  In64  1  0.49570555  0.67767506  0.12639235  1
  In  In65  1  0.49855588  0.66101154  0.62518845  1
  In  In66  1  0.83595996  0.01102954  0.12714236  1
  In  In67  1  0.81665007  -0.00151381  0.62479597  1
  In  In68  1  0.83305173  0.34133022  0.11873778  1
  In  In69  1  0.82306897  0.33143139  0.61947900  1
  In  In70  1  0.83499597  0.66206240  0.12994846  1
  In  In71  1  0.83780226  0.66223210  0.62919751  1
  In  In72  1  0.50717621  0.50398624  -0.01265476  1
  In  In73  1  0.16394824  0.49826372  -0.00013653  1
  In  In74  1  0.83348638  0.82900716  0.49776522  1
  In  In75  1  0.33325557  0.66925719  0.25811386  1
  In  In76  1  0.33003413  0.33188299  0.25812852  1
  In  In77  1  0.16356595  0.16792216  0.50660210  1
  In  In78  1  0.33891134  -0.00149185  0.75043237  1
  In  In79  1  -0.00588872  -0.00384757  0.76297648  1
  In  In80  1  0.83414756  0.83489496  0.00127822  1
  In  In81  1  0.50356110  0.17226385  0.49747427  1
  In  In82  1  0.66544164  0.33910738  0.25050861  1
  In  In83  1  0.16516034  0.16370181  -0.00198494  1
  In  In84  1  0.66733940  0.00052429  0.23905060  1
  In  In85  1  0.00206375  0.33761378  0.75162790  1
  Cu  Cu86  1  0.83258846  0.17103499  0.25182740  1
  Cu  Cu87  1  -0.00198943  -0.00142181  0.49274861  1
  Cu  Cu88  1  0.83145945  0.49705736  0.25316354  1
  Cu  Cu89  1  0.33466317  -0.00002757  0.00063382  1
  Cu  Cu90  1  0.66386507  -0.00165607  -0.00155260  1
  Cu  Cu91  1  -0.00401821  0.66428461  0.00578710  1
  Cu  Cu92  1  0.00363358  0.66655082  0.49674302  1
  Cu  Cu93  1  0.33023440  -0.01030448  0.49517914  1
  Cu  Cu94  1  0.34435693  0.34094316  -0.00739027  1
  Cu  Cu95  1  0.16160562  0.16167467  0.25239712  1
  Cu  Cu96  1  0.66206885  0.66324990  -0.01100753  1
  Cu  Cu97  1  -0.00853095  0.33409998  0.49976088  1
  Cu  Cu98  1  0.83833288  0.82539438  0.25430991  1
  Cu  Cu99  1  0.66526788  0.33742745  0.50719584  1
  Cu  Cu100  1  0.16036760  0.82858432  0.74966286  1
  Cu  Cu101  1  0.33512049  0.66544334  0.50246733  1
  Cu  Cu102  1  0.83391281  0.49898051  0.74706208  1
  Cu  Cu103  1  0.33021145  0.67988714  -0.00384697  1
  Cu  Cu104  1  0.17577566  0.83317249  0.25049839  1
  Cu  Cu105  1  0.66860315  0.00173852  0.50248986  1
  Cu  Cu106  1  0.82532227  0.82845923  0.74918320  1
  Cu  Cu107  1  0.50379352  0.83222423  0.24762767  1
  Cu  Cu108  1  0.16844956  0.17312698  0.75283510  1
  Cu  Cu109  1  0.51211345  0.16805874  0.75126089  1
  Cu  Cu110  1  0.15990949  0.49716886  0.25360335  1
  Cu  Cu111  1  0.49477585  0.83064780  0.74542737  1
  Cu  Cu112  1  0.82796412  0.16501759  0.75325680  1
  Cu  Cu113  1  0.16743993  0.50798483  0.74030954  1
  Cu  Cu114  1  -0.00627511  0.33442163  0.00766129  1
  Se  Se115  1  0.08360566  0.08553730  0.06954206  1
  Se  Se116  1  0.07040276  0.07447625  0.56349056  1
  Se  Se117  1  0.07878746  0.41138908  0.06646122  1
  Se  Se118  1  0.08018612  0.41590339  0.54850197  1
  Se  Se119  1  0.08334685  0.74769991  0.05332004  1
  Se  Se120  1  0.08615321  0.75035329  0.55083808  1
  Se  Se121  1  0.41646695  0.08704492  0.05129561  1
  Se  Se122  1  0.41090159  0.07319471  0.55355359  1
  Se  Se123  1  0.41665910  0.42051583  0.05780471  1
  Se  Se124  1  0.42132340  0.41317990  0.55947577  1
  Se  Se125  1  0.42141080  0.75356705  0.04986772  1
  Se  Se126  1  0.42100989  0.74936703  0.55313442  1
  Se  Se127  1  0.75248882  0.07659330  0.05073699  1
  Se  Se128  1  0.74897714  0.08842888  0.55358823  1
  Se  Se129  1  0.73952368  0.40621309  0.04885405  1
  Se  Se130  1  0.75293486  0.42467132  0.55219858  1
  Se  Se131  1  0.74032050  0.74084319  0.05536765  1
  Se  Se132  1  0.74586383  0.74622181  0.56201642  1
  Se  Se133  1  0.25981724  0.26079863  0.05146567  1
  Se  Se134  1  0.26493671  0.25437546  0.55686866  1
  Se  Se135  1  0.25651146  0.59429069  0.05689186  1
  Se  Se136  1  0.25109700  0.58284507  0.55662692  1
  Se  Se137  1  0.24837750  0.91784538  0.05212184  1
  Se  Se138  1  0.24359282  0.90960221  0.54772356  1
  Se  Se139  1  0.59042447  0.25764048  0.04310465  1
  Se  Se140  1  0.58174635  0.25802728  0.56591506  1
  Se  Se141  1  0.58693266  0.58915441  0.05919682  1
  Se  Se142  1  0.57816449  0.57780957  0.55548191  1
  Se  Se143  1  0.57909655  0.91500464  0.05015869  1
  Se  Se144  1  0.58368278  0.91766760  0.55176342  1
  Se  Se145  1  0.91514959  0.24496804  0.05861927  1
  Se  Se146  1  0.90901130  0.24811994  0.55082894  1
  Se  Se147  1  0.91103929  0.58037871  0.05568705  1
  Se  Se148  1  0.91657555  0.58920377  0.55178913  1
  Se  Se149  1  0.92250535  0.91695909  0.06637646  1
  Se  Se150  1  0.92082950  0.92217098  0.56055469  1
  Se  Se151  1  0.07395374  0.25141309  0.44107089  1
  Se  Se152  1  0.07599424  0.26425887  0.94175410  1
  Se  Se153  1  0.08466521  0.57757638  0.44574854  1
  Se  Se154  1  0.07566285  0.58818794  0.93946145  1
  Se  Se155  1  0.08423550  0.91439944  0.44488960  1
  Se  Se156  1  0.07658000  0.91881818  0.95649340  1
  Se  Se157  1  0.40662765  0.25609720  0.43811063  1
  Se  Se158  1  0.42542969  0.25251332  0.94398729  1
  Se  Se159  1  0.41956714  0.58121918  0.45140879  1
  Se  Se160  1  0.40707364  0.59440963  0.93677287  1
  Se  Se161  1  0.42141411  0.91359598  0.44433869  1
  Se  Se162  1  0.41739410  0.91665211  0.94556800  1
  Se  Se163  1  0.74409077  0.25011907  0.45153067  1
  Se  Se164  1  0.78351881  0.21894799  0.93844282  1
  Se  Se165  1  0.76027530  0.58935869  0.45735155  1
  Se  Se166  1  0.74589824  0.57903677  0.93891022  1
  Se  Se167  1  0.74516506  0.92309214  0.43715667  1
  Se  Se168  1  0.74051782  0.91563364  0.93661967  1
  Se  Se169  1  0.25143587  0.07910407  0.44115959  1
  Se  Se170  1  0.25902256  0.07879216  0.93460775  1
  Se  Se171  1  0.24658315  0.41359046  0.45686468  1
  Se  Se172  1  0.26584379  0.42628229  0.93607655  1
  Se  Se173  1  0.25085714  0.74700812  0.44678407  1
  Se  Se174  1  0.24072018  0.75786296  0.94460763  1
  Se  Se175  1  0.58819326  0.07627011  0.43603472  1
  Se  Se176  1  0.58428625  0.08589464  0.94480803  1
  Se  Se177  1  0.57860195  0.41577798  0.45255470  1
  Se  Se178  1  0.59776675  0.40893355  0.93642317  1
  Se  Se179  1  0.58194236  0.75842014  0.45481663  1
  Se  Se180  1  0.57687706  0.74824187  0.94078461  1
  Se  Se181  1  0.91145925  0.08420614  0.44695014  1
  Se  Se182  1  0.93991587  0.05860627  0.95147832  1
  Se  Se183  1  0.91114473  0.42044207  0.44667369  1
  Se  Se184  1  0.91475806  0.42292057  0.95526144  1
  Se  Se185  1  0.92417088  0.74542600  0.43412518  1
  Se  Se186  1  0.91647587  0.73891594  0.93962495  1
  Se  Se187  1  0.23821524  0.24091824  0.31717412  1
  Se  Se188  1  0.25484730  0.25951607  0.79854709  1
  Se  Se189  1  0.24716148  0.56958785  0.31320010  1
  Se  Se190  1  0.24896232  0.59094227  0.79703557  1
  Se  Se191  1  0.25879812  0.91691619  0.30352772  1
  Se  Se192  1  0.23942147  0.91456127  0.80789352  1
  Se  Se193  1  0.56850165  0.24238754  0.30168675  1
  Se  Se194  1  0.59394413  0.25091056  0.80556252  1
  Se  Se195  1  0.58695559  0.57899869  0.31384505  1
  Se  Se196  1  0.55767364  0.56159923  0.80059094  1
  Se  Se197  1  0.58643961  0.91225747  0.30801097  1
  Se  Se198  1  0.57763751  0.91542807  0.79894428  1
  Se  Se199  1  0.91233541  0.25365286  0.30830036  1
  Se  Se200  1  0.90923610  0.24919447  0.80988428  1
  Se  Se201  1  0.91722520  0.58255987  0.30351770  1
  Se  Se202  1  0.91860435  0.58212148  0.79966153  1
  Se  Se203  1  0.92215398  0.91446054  0.29985524  1
  Se  Se204  1  0.89999112  0.90515076  0.81752717  1
  Se  Se205  1  0.07841098  0.07667292  0.30466934  1
  Se  Se206  1  0.08765309  0.09730185  0.81305983  1
  Se  Se207  1  0.07721294  0.41309577  0.30599613  1
  Se  Se208  1  0.09438797  0.43055797  0.80971990  1
  Se  Se209  1  0.09336482  0.74635866  0.30201671  1
  Se  Se210  1  0.07542433  0.75057628  0.80570058  1
  Se  Se211  1  0.42117215  0.08347779  0.29315575  1
  Se  Se212  1  0.42638632  0.08988883  0.81087557  1
  Se  Se213  1  0.42178954  0.42810178  0.30927718  1
  Se  Se214  1  0.41565798  0.40463836  0.79561047  1
  Se  Se215  1  0.42979710  0.75456436  0.31417793  1
  Se  Se216  1  0.40929463  0.75278899  0.80116664  1
  Se  Se217  1  0.75064405  0.08833713  0.30940990  1
  Se  Se218  1  0.74851931  0.07554875  0.80368272  1
  Se  Se219  1  0.74802910  0.42525028  0.31687156  1
  Se  Se220  1  0.75804456  0.41328518  0.80500583  1
  Se  Se221  1  0.74865679  0.74412600  0.30165669  1
  Se  Se222  1  0.74044121  0.74124964  0.79830284  1
  Se  Se223  1  0.25198209  0.08519650  0.20015726  1
  Se  Se224  1  0.24498716  0.09160042  0.69167384  1
  Se  Se225  1  0.24231309  0.42323102  0.19080042  1
  Se  Se226  1  0.25243063  0.42111960  0.69369484  1
  Se  Se227  1  0.25292694  0.75397138  0.18656519  1
  Se  Se228  1  0.24729526  0.75173680  0.69514136  1
  Se  Se229  1  0.57942810  0.09641874  0.18512825  1
  Se  Se230  1  0.59085222  0.08043059  0.69922390  1
  Se  Se231  1  0.57203823  0.42762802  0.19121489  1
  Se  Se232  1  0.61401178  0.39530155  0.69298196  1
  Se  Se233  1  0.58733380  0.74670427  0.19733623  1
  Se  Se234  1  0.58122859  0.74743573  0.69498793  1
  Se  Se235  1  0.91613073  0.08319833  0.20260345  1
  Se  Se236  1  0.91206880  0.08615690  0.69444068  1
  Se  Se237  1  0.91119150  0.41105706  0.19761210  1
  Se  Se238  1  0.91613323  0.42190252  0.68527409  1
  Se  Se239  1  0.92036715  0.74276897  0.19760436  1
  Se  Se240  1  0.91593532  0.75000706  0.69931759  1
  Se  Se241  1  0.08118945  0.25353412  0.20603837  1
  Se  Se242  1  0.09415206  0.25158001  0.68777472  1
  Se  Se243  1  0.07959787  0.58343875  0.20069224  1
  Se  Se244  1  0.07801596  0.58974002  0.69318810  1
  Se  Se245  1  0.08891997  0.91393950  0.19751889  1
  Se  Se246  1  0.08298234  0.91498110  0.69235722  1
  Se  Se247  1  0.41465686  0.25280622  0.18633519  1
  Se  Se248  1  0.42099726  0.24790267  0.70209460  1
  Se  Se249  1  0.42672526  0.58008189  0.19860416  1
  Se  Se250  1  0.41247361  0.58971881  0.69847620  1
  Se  Se251  1  0.42287501  0.91747709  0.19402136  1
  Se  Se252  1  0.41943576  0.91201930  0.68224725  1
  Se  Se253  1  0.75072841  0.24475357  0.18934460  1
  Se  Se254  1  0.75323970  0.25142375  0.69688584  1
  Se  Se255  1  0.74884605  0.57859334  0.19623279  1
  Se  Se256  1  0.74907044  0.58332248  0.69598362  1
  Se  Se257  1  0.76058356  0.90280288  0.18800308  1
  Se  Se258  1  0.74499341  0.91581846  0.69756961  1
