# generated using pymatgen
data_In86Cu29Se144
_symmetry_space_group_name_H-M   'P 1'
_cell_length_a   17.56334412
_cell_length_b   17.56274607
_cell_length_c   23.42187744
_cell_angle_alpha   89.99991768
_cell_angle_beta   90.00513338
_cell_angle_gamma   90.01482693
_symmetry_Int_Tables_number   1
_chemical_formula_structural   In86Cu29Se144
_chemical_formula_sum   'In86 Cu29 Se144'
_cell_volume   7224.72499292
_cell_formula_units_Z   1
loop_
 _symmetry_equiv_pos_site_id
 _symmetry_equiv_pos_as_xyz
  1  'x, y, z'
loop_
 _atom_site_type_symbol
 _atom_site_label
 _atom_site_symmetry_multiplicity
 _atom_site_fract_x
 _atom_site_fract_y
 _atom_site_fract_z
 _atom_site_occupancy
  In  In0  1  0.01190490  0.17924752  0.11124231  1
  In  In1  1  -0.01162210  0.17221416  0.62930339  1
  In  In2  1  0.00009674  0.48751189  0.12237960  1
  In  In3  1  0.01837657  0.50000517  0.63922168  1
  In  In4  1  0.00290023  0.82662328  0.12551057  1
  In  In5  1  0.00502097  0.83356365  0.63235764  1
  In  In6  1  0.33244132  0.16800998  0.12887202  1
  In  In7  1  0.32636539  0.17816064  0.62539715  1
  In  In8  1  0.32662471  0.49677528  0.12238908  1
  In  In9  1  0.34166714  0.51484290  0.62112778  1
  In  In10  1  0.34912086  0.82045840  0.13478940  1
  In  In11  1  0.31523066  0.81287040  0.60902744  1
  In  In12  1  0.65578283  0.15467123  0.11752028  1
  In  In13  1  0.66452134  0.15264894  0.62564224  1
  In  In14  1  0.65581100  0.51660951  0.12865249  1
  In  In15  1  0.65416791  0.51485206  0.62216603  1
  In  In16  1  0.65620958  0.85079266  0.13588906  1
  In  In17  1  0.67160421  0.83836568  0.61455288  1
  In  In18  1  0.17022082  -0.01060112  0.37634282  1
  In  In19  1  0.16983200  0.00617501  0.87396728  1
  In  In20  1  0.17268254  0.34307521  0.36452444  1
  In  In21  1  0.16005637  0.33848377  0.87436836  1
  In  In22  1  0.17807867  0.65118434  0.38879690  1
  In  In23  1  0.17509913  0.66051848  0.86385861  1
  In  In24  1  0.49364007  -0.00997472  0.36583227  1
  In  In25  1  0.50510416  -0.00400897  0.87596218  1
  In  In26  1  0.48984582  0.34527260  0.37579287  1
  In  In27  1  0.48993226  0.34073805  0.88982024  1
  In  In28  1  0.49103030  0.67825677  0.38613225  1
  In  In29  1  0.49050669  0.66898641  0.88031721  1
  In  In30  1  0.83474481  0.00055669  0.37905123  1
  In  In31  1  0.84044379  0.00494780  0.86767481  1
  In  In32  1  0.83283036  0.31735315  0.37685753  1
  In  In33  1  0.84082222  0.32186787  0.87587970  1
  In  In34  1  0.84964760  0.66983419  0.38842272  1
  In  In35  1  0.84181809  0.65875279  0.87098902  1
  In  In36  1  -0.01219820  0.16582425  0.37552056  1
  In  In37  1  0.00105121  0.16695878  0.87281171  1
  In  In38  1  0.03703407  0.49602111  0.38584105  1
  In  In39  1  0.02842413  0.51100893  0.85015978  1
  In  In40  1  0.01132687  0.81556843  0.40130659  1
  In  In41  1  0.01156586  0.82887504  0.85118600  1
  In  In42  1  0.33775094  0.16962902  0.36502568  1
  In  In43  1  0.32804301  0.16977966  0.88889549  1
  In  In44  1  0.32554188  0.50203161  0.37151300  1
  In  In45  1  0.32999599  0.50752156  0.88043394  1
  In  In46  1  0.33646586  0.83217740  0.37436903  1
  In  In47  1  0.34165501  0.83122991  0.87390327  1
  In  In48  1  0.68330538  0.16262757  0.37431136  1
  In  In49  1  0.67785289  0.16186405  0.88346945  1
  In  In50  1  0.65150154  0.49578588  0.38141942  1
  In  In51  1  0.66223119  0.49768186  0.87641092  1
  In  In52  1  0.65619900  0.84153868  0.38696864  1
  In  In53  1  0.64687519  0.83628590  0.87051280  1
  In  In54  1  0.16613831  0.01468143  0.12147819  1
  In  In55  1  0.16162526  -0.02903365  0.62752732  1
  In  In56  1  0.16567339  0.33510088  0.12363195  1
  In  In57  1  0.16014041  0.33673006  0.62452568  1
  In  In58  1  0.18815221  0.66813165  0.11943048  1
  In  In59  1  0.17318498  0.67544832  0.63202307  1
  In  In60  1  0.49882314  -0.00038742  0.12794022  1
  In  In61  1  0.51304657  0.00002917  0.63011736  1
  In  In62  1  0.48969117  0.32231956  0.12078829  1
  In  In63  1  0.48921983  0.35955938  0.62802371  1
  In  In64  1  0.46592590  0.64765923  0.09959191  1
  In  In65  1  0.48524819  0.65254733  0.61326181  1
  In  In66  1  0.81869904  0.00104805  0.12740506  1
  In  In67  1  0.83236222  -0.00082524  0.62701310  1
  In  In68  1  0.84897295  0.33276776  0.12504682  1
  In  In69  1  0.85198700  0.33772365  0.62212491  1
  In  In70  1  0.83766129  0.66246300  0.12398427  1
  In  In71  1  0.83820429  0.68807169  0.61250363  1
  In  In72  1  0.66982692  0.32908068  0.75034764  1
  In  In73  1  0.65923389  0.67696600  0.25765206  1
  In  In74  1  0.67085863  0.67479939  0.74395679  1
  In  In75  1  0.83230258  0.48856745  -0.00570708  1
  In  In76  1  0.00787837  0.66081370  0.26372939  1
  In  In77  1  0.66154618  0.32445359  0.24857345  1
  In  In78  1  0.50184633  0.16736059  0.49599512  1
  In  In79  1  0.00103534  0.00105548  0.25295669  1
  In  In80  1  0.83120308  0.49715165  0.50489266  1
  In  In81  1  0.32822856  0.34260757  0.75740263  1
  In  In82  1  0.17326750  0.83705890  -0.00842294  1
  In  In83  1  0.33135888  -0.00939934  0.75383250  1
  In  In84  1  0.83084663  0.83326919  0.00047834  1
  In  In85  1  0.16508602  0.16901947  0.50584361  1
  Cu  Cu86  1  0.00322447  0.33478365  0.50339009  1
  Cu  Cu87  1  0.50054492  0.82769808  0.25142695  1
  Cu  Cu88  1  0.49682052  0.83128143  0.74633170  1
  Cu  Cu89  1  0.83721374  0.83589485  0.25986077  1
  Cu  Cu90  1  0.50172747  0.17183831  0.75611720  1
  Cu  Cu91  1  -0.00676730  0.00695243  -0.00568085  1
  Cu  Cu92  1  0.16723869  0.50091200  0.24756437  1
  Cu  Cu93  1  0.00482510  0.33401198  -0.00542126  1
  Cu  Cu94  1  0.00908002  0.66061943  -0.01494447  1
  Cu  Cu95  1  0.15956148  0.15714585  0.74774369  1
  Cu  Cu96  1  0.83414881  0.49323081  0.25511000  1
  Cu  Cu97  1  0.67246513  -0.00286521  0.50207605  1
  Cu  Cu98  1  0.83955050  0.49907373  0.74399370  1
  Cu  Cu99  1  0.33497122  0.00260205  0.00492357  1
  Cu  Cu100  1  0.83364847  0.16095659  0.75362460  1
  Cu  Cu101  1  0.66272517  0.00092123  0.00110351  1
  Cu  Cu102  1  -0.00608979  -0.00223068  0.50619220  1
  Cu  Cu103  1  0.33199836  0.32986435  0.00518587  1
  Cu  Cu104  1  0.65673460  0.67648806  0.00109222  1
  Cu  Cu105  1  0.48461354  0.50153132  0.24761238  1
  Cu  Cu106  1  0.66066687  0.32661090  0.50007057  1
  Cu  Cu107  1  0.16712120  0.17264560  0.24303438  1
  Cu  Cu108  1  0.17884329  0.83457340  0.25303835  1
  Cu  Cu109  1  0.66574449  0.33449232  0.00336404  1
  Cu  Cu110  1  0.83684798  0.16303058  0.24916906  1
  Cu  Cu111  1  0.34095766  -0.00102387  0.49747492  1
  Cu  Cu112  1  0.50238116  0.16213641  0.24536471  1
  Cu  Cu113  1  0.82769378  0.84122070  0.74244285  1
  Cu  Cu114  1  0.32973128  0.66594737  0.49838908  1
  Se  Se115  1  0.08416246  0.08406084  0.04568523  1
  Se  Se116  1  0.07875190  0.07639104  0.56584911  1
  Se  Se117  1  0.08587350  0.41791411  0.05008302  1
  Se  Se118  1  0.08160762  0.42251017  0.55528262  1
  Se  Se119  1  0.07974920  0.74340437  0.05196500  1
  Se  Se120  1  0.10212475  0.76968442  0.56416015  1
  Se  Se121  1  0.41730934  0.08519264  0.06005080  1
  Se  Se122  1  0.41102488  0.08229929  0.56211608  1
  Se  Se123  1  0.41669383  0.41582730  0.05535311  1
  Se  Se124  1  0.40938023  0.42085393  0.55067402  1
  Se  Se125  1  0.41295177  0.76327304  0.04632258  1
  Se  Se126  1  0.41952088  0.75140721  0.54569921  1
  Se  Se127  1  0.75200313  0.08280150  0.05053908  1
  Se  Se128  1  0.75293665  0.08401133  0.55418995  1
  Se  Se129  1  0.74158268  0.41518402  0.06784169  1
  Se  Se130  1  0.73793572  0.40660894  0.56492776  1
  Se  Se131  1  0.74016598  0.74715315  0.06524359  1
  Se  Se132  1  0.73026587  0.73526116  0.54855155  1
  Se  Se133  1  0.24760907  0.24645970  0.05792472  1
  Se  Se134  1  0.25920251  0.26905528  0.55215865  1
  Se  Se135  1  0.24689781  0.57563148  0.04899945  1
  Se  Se136  1  0.24530884  0.58874851  0.55666632  1
  Se  Se137  1  0.25508024  0.91876789  0.06358164  1
  Se  Se138  1  0.25052651  0.91943718  0.54801062  1
  Se  Se139  1  0.58139934  0.24832092  0.05320585  1
  Se  Se140  1  0.58029768  0.25577832  0.56770601  1
  Se  Se141  1  0.58000526  0.58115534  0.04845468  1
  Se  Se142  1  0.57601409  0.57858132  0.54451451  1
  Se  Se143  1  0.58082398  0.91713995  0.05550319  1
  Se  Se144  1  0.57867503  0.92067733  0.55120004  1
  Se  Se145  1  0.91562681  0.25362313  0.04618538  1
  Se  Se146  1  0.91685758  0.24745682  0.54893603  1
  Se  Se147  1  0.92424241  0.58857085  0.04983405  1
  Se  Se148  1  0.92342966  0.57889263  0.56742142  1
  Se  Se149  1  0.92436289  0.92419521  0.06057722  1
  Se  Se150  1  0.91604630  0.91242473  0.56185514  1
  Se  Se151  1  0.07989588  0.25504833  0.43858497  1
  Se  Se152  1  0.08682179  0.24650015  0.94264050  1
  Se  Se153  1  0.05533545  0.61609533  0.44489679  1
  Se  Se154  1  0.09350519  0.57774951  0.93587880  1
  Se  Se155  1  0.08519822  0.92410816  0.45191160  1
  Se  Se156  1  0.06890872  0.91862185  0.93623403  1
  Se  Se157  1  0.40409777  0.25692407  0.44380783  1
  Se  Se158  1  0.41919355  0.24475035  0.95521125  1
  Se  Se159  1  0.41030114  0.58027306  0.44316880  1
  Se  Se160  1  0.42624246  0.57321265  0.94846603  1
  Se  Se161  1  0.42263759  0.91402731  0.44433275  1
  Se  Se162  1  0.41196575  0.92272296  0.94335626  1
  Se  Se163  1  0.74958878  0.24582821  0.45153188  1
  Se  Se164  1  0.75248720  0.25605294  0.94943346  1
  Se  Se165  1  0.74407526  0.58338515  0.44049628  1
  Se  Se166  1  0.74327066  0.59587013  0.94450862  1
  Se  Se167  1  0.75642110  0.91441504  0.44821108  1
  Se  Se168  1  0.74206438  0.92064502  0.93804159  1
  Se  Se169  1  0.25819920  0.08309761  0.44172979  1
  Se  Se170  1  0.24500028  0.07942385  0.95159925  1
  Se  Se171  1  0.22294160  0.43919463  0.43801852  1
  Se  Se172  1  0.25576453  0.40717636  0.94138033  1
  Se  Se173  1  0.25011713  0.75559308  0.44567809  1
  Se  Se174  1  0.25981113  0.73786899  0.94045057  1
  Se  Se175  1  0.59090546  0.07446935  0.43800768  1
  Se  Se176  1  0.58116384  0.08444806  0.94530180  1
  Se  Se177  1  0.57522320  0.41139238  0.45180741  1
  Se  Se178  1  0.58584843  0.42098388  0.95085963  1
  Se  Se179  1  0.59574343  0.73744657  0.44898933  1
  Se  Se180  1  0.57515268  0.75767741  0.94598671  1
  Se  Se181  1  0.91669845  0.08321485  0.44950713  1
  Se  Se182  1  0.90965869  0.08965632  0.94221677  1
  Se  Se183  1  0.92199240  0.41220821  0.43864009  1
  Se  Se184  1  0.93275380  0.41945825  0.93086571  1
  Se  Se185  1  0.90841869  0.75565540  0.46510210  1
  Se  Se186  1  0.92681056  0.75056140  0.93629552  1
  Se  Se187  1  0.25142971  0.25249411  0.29982933  1
  Se  Se188  1  0.24436255  0.23529296  0.80737323  1
  Se  Se189  1  0.24482568  0.58911403  0.30194999  1
  Se  Se190  1  0.26024994  0.57587499  0.79881920  1
  Se  Se191  1  0.25875532  0.92196567  0.30432304  1
  Se  Se192  1  0.23636562  0.90066549  0.80918202  1
  Se  Se193  1  0.57460263  0.23958704  0.31547781  1
  Se  Se194  1  0.57883248  0.25071097  0.81834638  1
  Se  Se195  1  0.56902997  0.57687211  0.30869498  1
  Se  Se196  1  0.58447752  0.58750684  0.80875717  1
  Se  Se197  1  0.58789712  0.90986716  0.30287853  1
  Se  Se198  1  0.57803642  0.92095634  0.79605700  1
  Se  Se199  1  0.91737186  0.25037003  0.30049969  1
  Se  Se200  1  0.91913595  0.24868527  0.80042663  1
  Se  Se201  1  0.91401776  0.56894384  0.31819426  1
  Se  Se202  1  0.92036292  0.58542525  0.79696598  1
  Se  Se203  1  0.92733779  0.90508995  0.31887186  1
  Se  Se204  1  0.91581452  0.91701948  0.79878360  1
  Se  Se205  1  0.09338830  0.09314184  0.31088691  1
  Se  Se206  1  0.07884583  0.07634548  0.80442071  1
  Se  Se207  1  0.07850337  0.41868266  0.29771220  1
  Se  Se208  1  0.08924987  0.40349817  0.79159227  1
  Se  Se209  1  0.09548805  0.75956400  0.31538860  1
  Se  Se210  1  0.07881964  0.72530015  0.79273928  1
  Se  Se211  1  0.41681624  0.08060928  0.29988636  1
  Se  Se212  1  0.41479473  0.09246349  0.81152127  1
  Se  Se213  1  0.40616751  0.41499134  0.30165238  1
  Se  Se214  1  0.42956612  0.42547681  0.81010477  1
  Se  Se215  1  0.41627958  0.74504183  0.30486301  1
  Se  Se216  1  0.41821752  0.74778996  0.80223149  1
  Se  Se217  1  0.75637791  0.07754544  0.30232756  1
  Se  Se218  1  0.74411950  0.08199364  0.80414583  1
  Se  Se219  1  0.74776202  0.41697003  0.31242490  1
  Se  Se220  1  0.76153093  0.42345393  0.80891276  1
  Se  Se221  1  0.75943672  0.75293424  0.31873123  1
  Se  Se222  1  0.75787867  0.76164241  0.81245420  1
  Se  Se223  1  0.24916956  0.08156904  0.19739702  1
  Se  Se224  1  0.24506069  0.08266663  0.68812198  1
  Se  Se225  1  0.24855090  0.41457931  0.19509018  1
  Se  Se226  1  0.24788096  0.42609034  0.68775080  1
  Se  Se227  1  0.25420129  0.74518217  0.19944930  1
  Se  Se228  1  0.26351790  0.75340100  0.69981848  1
  Se  Se229  1  0.58934795  0.07795049  0.19762628  1
  Se  Se230  1  0.58314129  0.08655892  0.70361468  1
  Se  Se231  1  0.57367291  0.42290795  0.19244556  1
  Se  Se232  1  0.58086921  0.42981575  0.70056900  1
  Se  Se233  1  0.57037877  0.74513959  0.18426193  1
  Se  Se234  1  0.57574099  0.75463298  0.68197826  1
  Se  Se235  1  0.91915791  0.08873816  0.18488549  1
  Se  Se236  1  0.91675924  0.07969096  0.69733605  1
  Se  Se237  1  0.91945690  0.41686744  0.19907576  1
  Se  Se238  1  0.92610221  0.41183403  0.69848152  1
  Se  Se239  1  0.91247702  0.75186809  0.19915581  1
  Se  Se240  1  0.91023973  0.75150681  0.69584837  1
  Se  Se241  1  0.07840664  0.25292285  0.19278898  1
  Se  Se242  1  0.08587981  0.24640491  0.69227158  1
  Se  Se243  1  0.08622236  0.58288826  0.18644647  1
  Se  Se244  1  0.08127371  0.60265982  0.70365913  1
  Se  Se245  1  0.09290815  0.90859799  0.19223480  1
  Se  Se246  1  0.07695805  0.91927431  0.70681505  1
  Se  Se247  1  0.41656844  0.25004108  0.19977864  1
  Se  Se248  1  0.42328532  0.25031939  0.69494646  1
  Se  Se249  1  0.40856848  0.58671672  0.19012071  1
  Se  Se250  1  0.42031284  0.58638372  0.69743821  1
  Se  Se251  1  0.41894077  0.91708977  0.19999919  1
  Se  Se252  1  0.41596646  0.90971405  0.68421587  1
  Se  Se253  1  0.75541273  0.24128825  0.18666464  1
  Se  Se254  1  0.76065654  0.24381041  0.68770779  1
  Se  Se255  1  0.75727640  0.58072563  0.20020433  1
  Se  Se256  1  0.76075473  0.58035439  0.68542406  1
  Se  Se257  1  0.75452313  0.91530799  0.20371697  1
  Se  Se258  1  0.73887129  0.92020194  0.69252678  1
