# generated using pymatgen
data_In86Cu29Se144
_symmetry_space_group_name_H-M   'P 1'
_cell_length_a   17.57736402
_cell_length_b   17.57602175
_cell_length_c   23.43903404
_cell_angle_alpha   89.99353791
_cell_angle_beta   89.98150064
_cell_angle_gamma   90.00653127
_symmetry_Int_Tables_number   1
_chemical_formula_structural   In86Cu29Se144
_chemical_formula_sum   'In86 Cu29 Se144'
_cell_volume   7241.25780867
_cell_formula_units_Z   1
loop_
 _symmetry_equiv_pos_site_id
 _symmetry_equiv_pos_as_xyz
  1  'x, y, z'
loop_
 _atom_site_type_symbol
 _atom_site_label
 _atom_site_symmetry_multiplicity
 _atom_site_fract_x
 _atom_site_fract_y
 _atom_site_fract_z
 _atom_site_occupancy
  In  In0  1  0.00957006  0.17307000  0.11738936  1
  In  In1  1  0.00665328  0.16676444  0.61037815  1
  In  In2  1  0.01241073  0.48507772  0.13565283  1
  In  In3  1  -0.01622843  0.48070573  0.60990110  1
  In  In4  1  -0.01714963  0.83534358  0.12670399  1
  In  In5  1  -0.00996825  0.84718530  0.62031241  1
  In  In6  1  0.33431653  0.17666776  0.13098887  1
  In  In7  1  0.32445465  0.15778872  0.61876363  1
  In  In8  1  0.33101982  0.49762819  0.12273682  1
  In  In9  1  0.33061275  0.50873744  0.62255625  1
  In  In10  1  0.32829345  0.83665365  0.13216447  1
  In  In11  1  0.34149900  0.82594261  0.63224170  1
  In  In12  1  0.66520326  0.16169443  0.12155375  1
  In  In13  1  0.66200102  0.15716673  0.61421401  1
  In  In14  1  0.65861480  0.51458523  0.11737151  1
  In  In15  1  0.68759363  0.50157355  0.63302006  1
  In  In16  1  0.68657823  0.82955591  0.11771857  1
  In  In17  1  0.67415821  0.82937611  0.63466646  1
  In  In18  1  0.18028641  0.00350276  0.37410237  1
  In  In19  1  0.17655493  -0.00003489  0.87576533  1
  In  In20  1  0.15972844  0.33039365  0.38087957  1
  In  In21  1  0.15686143  0.33872266  0.87852165  1
  In  In22  1  0.15582635  0.65687849  0.36448776  1
  In  In23  1  0.16828894  0.64861697  0.87886229  1
  In  In24  1  0.49208206  0.02720650  0.38007015  1
  In  In25  1  0.50719484  0.00504739  0.87041240  1
  In  In26  1  0.48626573  0.32546357  0.36870554  1
  In  In27  1  0.49776699  0.33419407  0.88857927  1
  In  In28  1  0.49624167  0.67382366  0.37137228  1
  In  In29  1  0.49513377  0.66217590  0.87207826  1
  In  In30  1  0.82792145  0.00390039  0.39706454  1
  In  In31  1  0.82423510  0.01731854  0.87977929  1
  In  In32  1  0.85392816  0.32588776  0.38876638  1
  In  In33  1  0.83218318  0.31816569  0.87006802  1
  In  In34  1  0.84115663  0.65321875  0.38676238  1
  In  In35  1  0.83320435  0.67599690  0.87327644  1
  In  In36  1  -0.00741647  0.17359442  0.38777377  1
  In  In37  1  -0.01089281  0.17550758  0.87869148  1
  In  In38  1  0.00273256  0.49974585  0.37821166  1
  In  In39  1  0.01261348  0.49968816  0.87543045  1
  In  In40  1  -0.00389302  0.82392774  0.37311479  1
  In  In41  1  -0.00939524  0.82776129  0.87866843  1
  In  In42  1  0.32912124  0.16593439  0.37589302  1
  In  In43  1  0.33750780  0.16119404  0.88141602  1
  In  In44  1  0.31763445  0.48168438  0.36072624  1
  In  In45  1  0.32682300  0.50239915  0.88022099  1
  In  In46  1  0.33028099  0.83242279  0.36252245  1
  In  In47  1  0.34195478  0.83919661  0.86858153  1
  In  In48  1  0.66395349  0.16192944  0.38623609  1
  In  In49  1  0.67009181  0.16298867  0.87882394  1
  In  In50  1  0.67393588  0.50990907  0.37869586  1
  In  In51  1  0.65538506  0.49284424  0.87421177  1
  In  In52  1  0.67312964  0.84596548  0.37972100  1
  In  In53  1  0.67222615  0.84379041  0.86707052  1
  In  In54  1  0.16521159  0.02863074  0.12316629  1
  In  In55  1  0.16764033  0.01194738  0.62616457  1
  In  In56  1  0.16692924  0.33402313  0.12699496  1
  In  In57  1  0.14848200  0.31986342  0.60866133  1
  In  In58  1  0.17560220  0.65390833  0.12982952  1
  In  In59  1  0.17782779  0.66033129  0.62491317  1
  In  In60  1  0.48761102  0.00572866  0.12824312  1
  In  In61  1  0.49416589  0.00632852  0.63258724  1
  In  In62  1  0.48545505  0.32003845  0.11862007  1
  In  In63  1  0.51134342  0.32082034  0.62178326  1
  In  In64  1  0.50280042  0.65620354  0.12000934  1
  In  In65  1  0.49941360  0.67031133  0.63237587  1
  In  In66  1  0.84525405  0.00448987  0.11004353  1
  In  In67  1  0.82289806  -0.00969342  0.60469144  1
  In  In68  1  0.84908453  0.33431826  0.13080723  1
  In  In69  1  0.85033634  0.33448577  0.61344154  1
  In  In70  1  0.83152482  0.67643389  0.12653816  1
  In  In71  1  0.82762607  0.65926301  0.62714335  1
  In  In72  1  0.83417386  0.49932223  0.00097076  1
  In  In73  1  0.15966094  0.83402350  -0.00280574  1
  In  In74  1  -0.00024063  0.00589371  0.74353844  1
  In  In75  1  0.67121955  0.33239092  0.74765243  1
  In  In76  1  0.66357835  -0.00063729  0.25576211  1
  In  In77  1  0.50613144  0.83804858  -0.00235261  1
  In  In78  1  0.16236870  0.83895495  0.49863186  1
  In  In79  1  0.49891904  0.49545171  0.49849825  1
  In  In80  1  0.00465696  0.66243785  0.75370329  1
  In  In81  1  0.50371581  0.83533587  0.50461256  1
  In  In82  1  0.32883545  0.33649422  0.75025663  1
  In  In83  1  0.66394024  0.33647071  0.25487427  1
  In  In84  1  0.00451376  0.00043717  0.25056514  1
  In  In85  1  0.66591772  0.66873323  0.24525834  1
  Cu  Cu86  1  0.16882126  0.17616175  0.25120495  1
  Cu  Cu87  1  0.66701516  0.00442952  -0.00526927  1
  Cu  Cu88  1  0.84545494  0.49983863  0.25709435  1
  Cu  Cu89  1  0.32671124  0.33190726  0.00440511  1
  Cu  Cu90  1  0.49802204  0.50781266  0.75050742  1
  Cu  Cu91  1  0.84047909  0.17115279  0.25690819  1
  Cu  Cu92  1  0.33686539  0.00246372  0.50053564  1
  Cu  Cu93  1  0.16760385  0.50000045  0.25063075  1
  Cu  Cu94  1  0.17773395  0.83033805  0.75165292  1
  Cu  Cu95  1  0.83154096  0.83932436  0.74883959  1
  Cu  Cu96  1  0.49227667  0.49782368  0.24144245  1
  Cu  Cu97  1  0.49979942  0.16328316  0.75175873  1
  Cu  Cu98  1  0.50353186  0.83510811  0.75202974  1
  Cu  Cu99  1  0.49514838  0.83403854  0.24843833  1
  Cu  Cu100  1  0.66718542  0.33117516  0.00009367  1
  Cu  Cu101  1  0.32828171  0.01389936  0.00460545  1
  Cu  Cu102  1  0.16386255  0.83145653  0.24807076  1
  Cu  Cu103  1  0.16699968  0.49675458  0.74995943  1
  Cu  Cu104  1  0.83322226  0.83305171  0.25285289  1
  Cu  Cu105  1  0.66817144  0.33107651  0.50174835  1
  Cu  Cu106  1  0.16585638  0.16926354  0.74341988  1
  Cu  Cu107  1  0.83394456  0.16522364  0.74651974  1
  Cu  Cu108  1  0.00205981  0.66016085  0.00253385  1
  Cu  Cu109  1  0.33263796  0.32699810  0.49337762  1
  Cu  Cu110  1  0.67287448  0.66737621  0.50940168  1
  Cu  Cu111  1  0.00206348  0.32918732  0.00393865  1
  Cu  Cu112  1  0.32506103  0.65722900  0.49204948  1
  Cu  Cu113  1  0.33561670  0.66309097  -0.00039239  1
  Cu  Cu114  1  0.00047983  0.66897251  0.49690222  1
  Se  Se115  1  0.05978226  0.06394060  0.05367727  1
  Se  Se116  1  0.08485538  0.07072167  0.54948985  1
  Se  Se117  1  0.08462095  0.41583501  0.05475674  1
  Se  Se118  1  0.09769021  0.43321160  0.55092057  1
  Se  Se119  1  0.07908866  0.74367884  0.06386489  1
  Se  Se120  1  0.07848720  0.74566385  0.56261209  1
  Se  Se121  1  0.41526458  0.09233991  0.05804429  1
  Se  Se122  1  0.42148055  0.08409661  0.55454346  1
  Se  Se123  1  0.41515916  0.41661128  0.05298532  1
  Se  Se124  1  0.40987026  0.40384572  0.55996372  1
  Se  Se125  1  0.40901773  0.75214911  0.05712132  1
  Se  Se126  1  0.40777118  0.73572611  0.55240861  1
  Se  Se127  1  0.75057676  0.08628723  0.05110690  1
  Se  Se128  1  0.76384114  0.10044630  0.54749519  1
  Se  Se129  1  0.74537174  0.40879479  0.06457559  1
  Se  Se130  1  0.74791998  0.41409692  0.55695598  1
  Se  Se131  1  0.74452358  0.73259144  0.04945368  1
  Se  Se132  1  0.75457139  0.75359251  0.56017655  1
  Se  Se133  1  0.24541950  0.24682777  0.05806726  1
  Se  Se134  1  0.24971619  0.24534773  0.54993890  1
  Se  Se135  1  0.24911166  0.58092078  0.05120566  1
  Se  Se136  1  0.24455461  0.57649000  0.54765566  1
  Se  Se137  1  0.25010544  0.92460810  0.05894717  1
  Se  Se138  1  0.26186818  0.91702305  0.56129016  1
  Se  Se139  1  0.58406581  0.24804668  0.05497339  1
  Se  Se140  1  0.58012386  0.24325118  0.54478702  1
  Se  Se141  1  0.58815093  0.59611373  0.04421411  1
  Se  Se142  1  0.58602442  0.58480847  0.56258038  1
  Se  Se143  1  0.59251296  0.92789182  0.06313749  1
  Se  Se144  1  0.58883325  0.92129572  0.56770904  1
  Se  Se145  1  0.91232161  0.24979807  0.05430341  1
  Se  Se146  1  0.93774175  0.26249184  0.54208322  1
  Se  Se147  1  0.92467523  0.58133155  0.06693516  1
  Se  Se148  1  0.91731165  0.59096292  0.55549990  1
  Se  Se149  1  0.90385962  0.89850640  0.04866182  1
  Se  Se150  1  0.92402063  0.92173395  0.54204022  1
  Se  Se151  1  0.06851325  0.26524324  0.45449041  1
  Se  Se152  1  0.08366948  0.24722988  0.94670691  1
  Se  Se153  1  0.08655936  0.58674502  0.44612957  1
  Se  Se154  1  0.08650519  0.57579580  0.95289036  1
  Se  Se155  1  0.07721035  0.92443473  0.43358421  1
  Se  Se156  1  0.07200437  0.92613114  0.93850861  1
  Se  Se157  1  0.41999482  0.24359767  0.44546879  1
  Se  Se158  1  0.41246331  0.24894308  0.95127865  1
  Se  Se159  1  0.41040732  0.58064254  0.43306362  1
  Se  Se160  1  0.41857418  0.58060454  0.94546550  1
  Se  Se161  1  0.40975069  0.91581181  0.43971832  1
  Se  Se162  1  0.40833759  0.93033235  0.94531174  1
  Se  Se163  1  0.75161889  0.24991457  0.44604755  1
  Se  Se164  1  0.75124158  0.24941999  0.94642828  1
  Se  Se165  1  0.75146697  0.57928063  0.45634401  1
  Se  Se166  1  0.74629503  0.58389122  0.93739594  1
  Se  Se167  1  0.75159528  0.90777011  0.45796833  1
  Se  Se168  1  0.74960033  0.91897602  0.94310798  1
  Se  Se169  1  0.24929331  0.08494752  0.45032448  1
  Se  Se170  1  0.24146540  0.09013954  0.94900197  1
  Se  Se171  1  0.25095264  0.41610765  0.44516952  1
  Se  Se172  1  0.24719184  0.41461578  0.94607336  1
  Se  Se173  1  0.25012045  0.74701623  0.43626200  1
  Se  Se174  1  0.25849465  0.74717727  0.93925006  1
  Se  Se175  1  0.60206623  0.05550497  0.44706778  1
  Se  Se176  1  0.57824759  0.08681527  0.94609626  1
  Se  Se177  1  0.58910412  0.40734508  0.43597862  1
  Se  Se178  1  0.58296788  0.41892934  0.95327065  1
  Se  Se179  1  0.59226874  0.73957672  0.44393888  1
  Se  Se180  1  0.58941205  0.75026155  0.93406156  1
  Se  Se181  1  0.92102790  0.08303736  0.45607005  1
  Se  Se182  1  0.91709823  0.08505499  0.94675525  1
  Se  Se183  1  0.90035493  0.44119920  0.44570904  1
  Se  Se184  1  0.92174146  0.40732796  0.93991416  1
  Se  Se185  1  0.91399567  0.75331066  0.44855920  1
  Se  Se186  1  0.91792314  0.74199400  0.95014410  1
  Se  Se187  1  0.24876099  0.25611069  0.31020450  1
  Se  Se188  1  0.24315611  0.24397159  0.81042191  1
  Se  Se189  1  0.25411389  0.58743737  0.29947546  1
  Se  Se190  1  0.25101075  0.57963466  0.80288772  1
  Se  Se191  1  0.24641692  0.91875961  0.29809493  1
  Se  Se192  1  0.25430017  0.92090358  0.80291827  1
  Se  Se193  1  0.57969430  0.23595847  0.30867825  1
  Se  Se194  1  0.57510327  0.25002036  0.81066069  1
  Se  Se195  1  0.57477337  0.57355612  0.30441736  1
  Se  Se196  1  0.58575742  0.58424174  0.80419659  1
  Se  Se197  1  0.56939462  0.91008953  0.31395778  1
  Se  Se198  1  0.58689986  0.92422279  0.79931998  1
  Se  Se199  1  0.92516716  0.25277505  0.30812192  1
  Se  Se200  1  0.91958390  0.24862866  0.79712920  1
  Se  Se201  1  0.92270812  0.58994247  0.30816522  1
  Se  Se202  1  0.91183770  0.57472376  0.81172593  1
  Se  Se203  1  0.90581081  0.92089037  0.31303128  1
  Se  Se204  1  0.91277394  0.91798728  0.80893225  1
  Se  Se205  1  0.08769604  0.09490183  0.31205845  1
  Se  Se206  1  0.08802789  0.09050880  0.80864700  1
  Se  Se207  1  0.08597291  0.41896978  0.30824728  1
  Se  Se208  1  0.08133884  0.41372620  0.80089099  1
  Se  Se209  1  0.07827601  0.75054176  0.30010084  1
  Se  Se210  1  0.09543897  0.75582143  0.81414726  1
  Se  Se211  1  0.40158304  0.07607114  0.30492689  1
  Se  Se212  1  0.41386896  0.08365928  0.80608654  1
  Se  Se213  1  0.41541793  0.41103248  0.29629602  1
  Se  Se214  1  0.42436914  0.42089912  0.81028626  1
  Se  Se215  1  0.41371344  0.74446837  0.29754431  1
  Se  Se216  1  0.41811045  0.74944451  0.80238370  1
  Se  Se217  1  0.76074809  0.08763182  0.31332201  1
  Se  Se218  1  0.74688035  0.08799835  0.80140334  1
  Se  Se219  1  0.75948644  0.42128996  0.31389963  1
  Se  Se220  1  0.75819150  0.42240040  0.80873751  1
  Se  Se221  1  0.75352438  0.75127601  0.31289945  1
  Se  Se222  1  0.75124189  0.75257521  0.80105258  1
  Se  Se223  1  0.25055696  0.08932911  0.19950138  1
  Se  Se224  1  0.25386837  0.08278523  0.69905371  1
  Se  Se225  1  0.25047024  0.41737277  0.19506537  1
  Se  Se226  1  0.24049371  0.41685490  0.68400145  1
  Se  Se227  1  0.24922657  0.74725674  0.19688396  1
  Se  Se228  1  0.25410967  0.74275182  0.69725709  1
  Se  Se229  1  0.57598295  0.09110465  0.19681285  1
  Se  Se230  1  0.58708810  0.08807660  0.69541313  1
  Se  Se231  1  0.58055087  0.42158225  0.18521032  1
  Se  Se232  1  0.57486708  0.42422030  0.69001597  1
  Se  Se233  1  0.57860049  0.76282474  0.18477385  1
  Se  Se234  1  0.58544367  0.74866219  0.69991333  1
  Se  Se235  1  0.91188426  0.08882784  0.19137171  1
  Se  Se236  1  0.91018036  0.08871228  0.68015845  1
  Se  Se237  1  0.92428270  0.41028142  0.20622010  1
  Se  Se238  1  0.91159196  0.41729347  0.69223789  1
  Se  Se239  1  0.91549704  0.74782737  0.20123569  1
  Se  Se240  1  0.91806127  0.75881263  0.69410498  1
  Se  Se241  1  0.08046040  0.25072188  0.19499699  1
  Se  Se242  1  0.07909846  0.24610588  0.68914600  1
  Se  Se243  1  0.08219177  0.58473847  0.19919223  1
  Se  Se244  1  0.08564439  0.57415686  0.68756938  1
  Se  Se245  1  0.09053017  0.91361459  0.18427164  1
  Se  Se246  1  0.09390139  0.90661084  0.69162593  1
  Se  Se247  1  0.41800937  0.25499367  0.20163180  1
  Se  Se248  1  0.42036037  0.24414079  0.69171628  1
  Se  Se249  1  0.41370155  0.58670447  0.19017475  1
  Se  Se250  1  0.41161670  0.58479271  0.69543478  1
  Se  Se251  1  0.41203712  0.92073364  0.19847695  1
  Se  Se252  1  0.41636641  0.91626286  0.69905577  1
  Se  Se253  1  0.75483167  0.24379545  0.19488900  1
  Se  Se254  1  0.75557598  0.24505680  0.68275971  1
  Se  Se255  1  0.75964078  0.57081503  0.19349402  1
  Se  Se256  1  0.74950621  0.59147500  0.70494360  1
  Se  Se257  1  0.75972172  0.91833959  0.19163550  1
  Se  Se258  1  0.75684999  0.92722174  0.69240964  1
