# generated using pymatgen
data_In86Cu29Se144
_symmetry_space_group_name_H-M   'P 1'
_cell_length_a   17.58026122
_cell_length_b   17.58399051
_cell_length_c   23.44184098
_cell_angle_alpha   89.97374935
_cell_angle_beta   90.00156405
_cell_angle_gamma   89.98719790
_symmetry_Int_Tables_number   1
_chemical_formula_structural   In86Cu29Se144
_chemical_formula_sum   'In86 Cu29 Se144'
_cell_volume   7246.60223024
_cell_formula_units_Z   1
loop_
 _symmetry_equiv_pos_site_id
 _symmetry_equiv_pos_as_xyz
  1  'x, y, z'
loop_
 _atom_site_type_symbol
 _atom_site_label
 _atom_site_symmetry_multiplicity
 _atom_site_fract_x
 _atom_site_fract_y
 _atom_site_fract_z
 _atom_site_occupancy
  In  In0  1  -0.00024010  0.16240376  0.11696367  1
  In  In1  1  -0.01333086  0.17657384  0.62590449  1
  In  In2  1  -0.00786435  0.51589047  0.12507953  1
  In  In3  1  0.00580660  0.50352741  0.61439591  1
  In  In4  1  -0.01167492  0.82694612  0.11992124  1
  In  In5  1  -0.00259652  0.82655769  0.63436434  1
  In  In6  1  0.31763452  0.16428138  0.12665806  1
  In  In7  1  0.34806679  0.15921842  0.62936460  1
  In  In8  1  0.34629430  0.50306727  0.13126632  1
  In  In9  1  0.31607681  0.49633744  0.61901016  1
  In  In10  1  0.34223641  0.82828495  0.13543801  1
  In  In11  1  0.33425535  0.83973109  0.61412578  1
  In  In12  1  0.68292279  0.17016422  0.12621845  1
  In  In13  1  0.66860059  0.16406139  0.62952928  1
  In  In14  1  0.67897743  0.48980002  0.13154517  1
  In  In15  1  0.67788764  0.48862615  0.62800191  1
  In  In16  1  0.66002895  0.82547121  0.11870852  1
  In  In17  1  0.66598747  0.84329252  0.63868360  1
  In  In18  1  0.15926413  -0.01321768  0.37492373  1
  In  In19  1  0.15718748  0.01214324  0.87549740  1
  In  In20  1  0.17972386  0.33931837  0.37954371  1
  In  In21  1  0.15936237  0.30929176  0.86515593  1
  In  In22  1  0.16419764  0.66720864  0.37258286  1
  In  In23  1  0.15189643  0.68004280  0.87621148  1
  In  In24  1  0.49220770  0.01324266  0.38329698  1
  In  In25  1  0.49932561  -0.01529767  0.87664669  1
  In  In26  1  0.50072430  0.31612779  0.37932642  1
  In  In27  1  0.50082078  0.33246826  0.85548091  1
  In  In28  1  0.50964546  0.67758212  0.37379316  1
  In  In29  1  0.51742570  0.66928147  0.87605149  1
  In  In30  1  0.83872083  0.00764579  0.37775864  1
  In  In31  1  0.83626702  -0.00154709  0.87190470  1
  In  In32  1  0.83122104  0.33859548  0.38183727  1
  In  In33  1  0.82322349  0.34343904  0.87982555  1
  In  In34  1  0.82570376  0.66122690  0.36816773  1
  In  In35  1  0.82910868  0.66630197  0.87675520  1
  In  In36  1  -0.00601839  0.15971714  0.37992987  1
  In  In37  1  0.00383996  0.15665095  0.87706512  1
  In  In38  1  -0.01620796  0.50867680  0.38706940  1
  In  In39  1  -0.01800872  0.50198389  0.87847223  1
  In  In40  1  0.01140823  0.83407079  0.37526331  1
  In  In41  1  -0.04585311  0.80788066  0.83310706  1
  In  In42  1  0.33925639  0.17511672  0.37443166  1
  In  In43  1  0.32225737  0.16022316  0.86993892  1
  In  In44  1  0.32014778  0.50145435  0.37660727  1
  In  In45  1  0.34294142  0.49951170  0.87350990  1
  In  In46  1  0.33339057  0.83474972  0.37537971  1
  In  In47  1  0.33723798  0.84301118  0.87985789  1
  In  In48  1  0.66345890  0.16853393  0.37743825  1
  In  In49  1  0.67449244  0.17961689  0.86415589  1
  In  In50  1  0.67782266  0.50633520  0.37333801  1
  In  In51  1  0.67411204  0.51269347  0.86468883  1
  In  In52  1  0.66937153  0.82001127  0.37698373  1
  In  In53  1  0.67302629  0.82948333  0.87468590  1
  In  In54  1  0.16777611  0.01188656  0.12752805  1
  In  In55  1  0.17364115  -0.01376650  0.62492352  1
  In  In56  1  0.17019500  0.32189184  0.12011245  1
  In  In57  1  0.15728040  0.34836221  0.62621578  1
  In  In58  1  0.16214242  0.67507596  0.13409315  1
  In  In59  1  0.15476147  0.66093241  0.61865769  1
  In  In60  1  0.50381350  -0.01634104  0.12587325  1
  In  In61  1  0.51351073  0.01043441  0.61949121  1
  In  In62  1  0.50553227  0.34776586  0.12739088  1
  In  In63  1  0.51720828  0.31044607  0.64081488  1
  In  In64  1  0.50116337  0.67257168  0.13439799  1
  In  In65  1  0.50291828  0.68237127  0.61933387  1
  In  In66  1  0.84171700  0.00367532  0.11381976  1
  In  In67  1  0.81884914  0.00677153  0.64171491  1
  In  In68  1  0.82556974  0.32401122  0.11652707  1
  In  In69  1  0.83239929  0.32257763  0.61206723  1
  In  In70  1  0.83268017  0.66189189  0.12358397  1
  In  In71  1  0.84450499  0.66470411  0.63631719  1
  In  In72  1  0.49639262  0.49550844  0.49876626  1
  In  In73  1  0.33707550  0.00088417  0.75198812  1
  In  In74  1  0.83090400  0.83493308  0.50866773  1
  In  In75  1  0.33092493  0.66090522  0.74572410  1
  In  In76  1  0.00210299  -0.00199275  0.24569773  1
  In  In77  1  0.33721544  0.33591471  0.25378250  1
  In  In78  1  0.50287986  0.16263199  -0.00639319  1
  In  In79  1  0.16688016  0.16953286  0.50239665  1
  In  In80  1  0.00092252  0.33259762  0.25417076  1
  In  In81  1  -0.00330101  0.33561994  0.74654163  1
  In  In82  1  0.16402770  0.49684393  0.00173756  1
  In  In83  1  0.50655070  0.50195759  0.00117025  1
  In  In84  1  0.66710397  -0.00286848  0.24828087  1
  In  In85  1  0.15840954  0.84343227  0.00092963  1
  Cu  Cu86  1  0.67134802  0.66396295  0.49853877  1
  Cu  Cu87  1  0.16001671  0.83052245  0.74709981  1
  Cu  Cu88  1  0.67611478  -0.00315112  -0.00288022  1
  Cu  Cu89  1  0.50783206  0.50654862  0.25440945  1
  Cu  Cu90  1  0.15878983  0.50544024  0.74622155  1
  Cu  Cu91  1  -0.00434142  0.00267619  0.50219936  1
  Cu  Cu92  1  -0.00228003  0.32779749  -0.00576842  1
  Cu  Cu93  1  0.82952569  0.49911861  0.75004573  1
  Cu  Cu94  1  0.33397572  -0.00309855  0.49933045  1
  Cu  Cu95  1  0.32500026  0.32590657  -0.00711688  1
  Cu  Cu96  1  0.50103525  0.16592125  0.25393714  1
  Cu  Cu97  1  0.83043968  0.17094761  0.75055214  1
  Cu  Cu98  1  0.16369031  0.50369600  0.25217353  1
  Cu  Cu99  1  0.66498497  0.00069013  0.50916662  1
  Cu  Cu100  1  0.66884359  0.32715558  0.50547632  1
  Cu  Cu101  1  0.49894111  0.49911126  0.74418093  1
  Cu  Cu102  1  -0.00130397  0.67235049  0.50160163  1
  Cu  Cu103  1  0.66518882  0.33590741  -0.00504373  1
  Cu  Cu104  1  0.17201364  0.82968211  0.25323781  1
  Cu  Cu105  1  0.33592188  0.67444849  0.01121593  1
  Cu  Cu106  1  -0.00235580  -0.00348627  -0.00733765  1
  Cu  Cu107  1  0.33716955  -0.00179405  -0.00087959  1
  Cu  Cu108  1  0.49916767  0.83471628  0.25399271  1
  Cu  Cu109  1  0.67348124  0.66936746  -0.00104986  1
  Cu  Cu110  1  0.50390543  0.83192969  0.75046162  1
  Cu  Cu111  1  0.33857466  0.33065476  0.50325467  1
  Cu  Cu112  1  0.83264718  0.82710710  0.24472450  1
  Cu  Cu113  1  0.32680054  0.67392612  0.49794139  1
  Cu  Cu114  1  0.83498329  0.50053770  0.25214128  1
  Se  Se115  1  0.08226726  0.07567350  0.05076654  1
  Se  Se116  1  0.07960604  0.07839362  0.56383359  1
  Se  Se117  1  0.07230861  0.40649660  0.06158197  1
  Se  Se118  1  0.08671846  0.41888177  0.54748522  1
  Se  Se119  1  0.07731784  0.73867179  0.05423766  1
  Se  Se120  1  0.07820916  0.75739135  0.55627016  1
  Se  Se121  1  0.41513635  0.07931526  0.06123464  1
  Se  Se122  1  0.41772442  0.08042042  0.55200541  1
  Se  Se123  1  0.40506638  0.40765703  0.05260406  1
  Se  Se124  1  0.41809616  0.40720280  0.56700384  1
  Se  Se125  1  0.42410180  0.75407589  0.06086577  1
  Se  Se126  1  0.41635611  0.75345636  0.54784532  1
  Se  Se127  1  0.75103623  0.08641084  0.05122593  1
  Se  Se128  1  0.75297403  0.08167934  0.55964427  1
  Se  Se129  1  0.74837217  0.41724282  0.05061775  1
  Se  Se130  1  0.75274219  0.41788123  0.54937039  1
  Se  Se131  1  0.75512152  0.75238750  0.05440742  1
  Se  Se132  1  0.74301926  0.74272969  0.56643832  1
  Se  Se133  1  0.24690016  0.24097870  0.04765239  1
  Se  Se134  1  0.25679160  0.25428500  0.56606573  1
  Se  Se135  1  0.25624383  0.58715585  0.06375835  1
  Se  Se136  1  0.24588523  0.58732464  0.55015779  1
  Se  Se137  1  0.25804120  0.91989670  0.06286273  1
  Se  Se138  1  0.24446082  0.91352430  0.54500532  1
  Se  Se139  1  0.58495385  0.25787448  0.05696647  1
  Se  Se140  1  0.58419631  0.24361867  0.55676100  1
  Se  Se141  1  0.59369738  0.58993176  0.06335730  1
  Se  Se142  1  0.58881768  0.58361329  0.55886112  1
  Se  Se143  1  0.58759251  0.91805595  0.05002312  1
  Se  Se144  1  0.58676978  0.90943191  0.55844157  1
  Se  Se145  1  0.91525693  0.24541145  0.05075821  1
  Se  Se146  1  0.92964483  0.25636639  0.54568202  1
  Se  Se147  1  0.90934846  0.58022841  0.05033751  1
  Se  Se148  1  0.91361045  0.59048683  0.55516368  1
  Se  Se149  1  0.91683551  0.91232402  0.04773154  1
  Se  Se150  1  0.91808483  0.92642902  0.56757887  1
  Se  Se151  1  0.08040678  0.25690246  0.43882973  1
  Se  Se152  1  0.08474487  0.24407887  0.94643102  1
  Se  Se153  1  0.08096109  0.58940945  0.44533921  1
  Se  Se154  1  0.07426913  0.58830844  0.94423250  1
  Se  Se155  1  0.07867385  0.91709436  0.45155998  1
  Se  Se156  1  0.07118345  0.91471297  0.93001927  1
  Se  Se157  1  0.41884734  0.24264977  0.45309385  1
  Se  Se158  1  0.41566236  0.25649430  0.93463762  1
  Se  Se159  1  0.41035026  0.59193424  0.44023125  1
  Se  Se160  1  0.41146582  0.59548899  0.94548246  1
  Se  Se161  1  0.41905845  0.91497576  0.44548571  1
  Se  Se162  1  0.42258538  0.91066624  0.95405557  1
  Se  Se163  1  0.74982249  0.24685752  0.44620900  1
  Se  Se164  1  0.74807977  0.24804066  0.94544553  1
  Se  Se165  1  0.75742475  0.58277877  0.44778983  1
  Se  Se166  1  0.74855535  0.57810024  0.94617681  1
  Se  Se167  1  0.74288849  0.92437747  0.44265347  1
  Se  Se168  1  0.75692276  0.91318247  0.94248133  1
  Se  Se169  1  0.25313360  0.07842701  0.43867075  1
  Se  Se170  1  0.25222354  0.07865814  0.94601755  1
  Se  Se171  1  0.25536656  0.41781507  0.45419970  1
  Se  Se172  1  0.24920005  0.41124378  0.93444994  1
  Se  Se173  1  0.24360115  0.75402693  0.44158768  1
  Se  Se174  1  0.25526125  0.74600599  0.94542686  1
  Se  Se175  1  0.58669010  0.08443416  0.44951619  1
  Se  Se176  1  0.59569465  0.07607845  0.93512668  1
  Se  Se177  1  0.59170621  0.40798782  0.44101739  1
  Se  Se178  1  0.58487506  0.41298819  0.93287201  1
  Se  Se179  1  0.58570049  0.75088844  0.45219815  1
  Se  Se180  1  0.58615144  0.75295705  0.94939534  1
  Se  Se181  1  0.91037278  0.08690088  0.45370425  1
  Se  Se182  1  0.91238931  0.08479374  0.94546822  1
  Se  Se183  1  0.91998176  0.41018965  0.45170909  1
  Se  Se184  1  0.91171657  0.41637275  0.95098705  1
  Se  Se185  1  0.91632542  0.75003476  0.44027308  1
  Se  Se186  1  0.92267635  0.75469220  0.93214772  1
  Se  Se187  1  0.23991701  0.24413589  0.30444466  1
  Se  Se188  1  0.26333543  0.25636794  0.79995037  1
  Se  Se189  1  0.25090336  0.58574673  0.30281818  1
  Se  Se190  1  0.23849911  0.58052744  0.81281542  1
  Se  Se191  1  0.25017609  0.91820986  0.30498388  1
  Se  Se192  1  0.24140597  0.90812709  0.80834219  1
  Se  Se193  1  0.58535111  0.25032222  0.30357549  1
  Se  Se194  1  0.58437037  0.24737230  0.79358614  1
  Se  Se195  1  0.59078845  0.58935291  0.30827951  1
  Se  Se196  1  0.57808946  0.58468074  0.79872139  1
  Se  Se197  1  0.57963004  0.91441818  0.31511604  1
  Se  Se198  1  0.58600759  0.91300705  0.80589377  1
  Se  Se199  1  0.90891015  0.24226932  0.31040299  1
  Se  Se200  1  0.91024006  0.25065107  0.81284740  1
  Se  Se201  1  0.92002716  0.58378264  0.30414960  1
  Se  Se202  1  0.91198686  0.58245680  0.80360824  1
  Se  Se203  1  0.90849447  0.90875455  0.30720041  1
  Se  Se204  1  0.94306033  0.94769965  0.80408275  1
  Se  Se205  1  0.08773842  0.08884093  0.30875241  1
  Se  Se206  1  0.09506913  0.09997810  0.80184511  1
  Se  Se207  1  0.08829951  0.42443236  0.31495974  1
  Se  Se208  1  0.08470850  0.42461892  0.81250791  1
  Se  Se209  1  0.08055200  0.74944351  0.30158511  1
  Se  Se210  1  0.07777192  0.74079613  0.79359208  1
  Se  Se211  1  0.41472720  0.08590720  0.30550148  1
  Se  Se212  1  0.43006462  0.08757764  0.81101814  1
  Se  Se213  1  0.42783848  0.42511643  0.31592342  1
  Se  Se214  1  0.41071586  0.42073240  0.79638236  1
  Se  Se215  1  0.41636018  0.74961370  0.30665377  1
  Se  Se216  1  0.41757005  0.75369943  0.80860884  1
  Se  Se217  1  0.75640218  0.08876680  0.30579390  1
  Se  Se218  1  0.75145965  0.08259573  0.80322063  1
  Se  Se219  1  0.75354065  0.41563725  0.30612082  1
  Se  Se220  1  0.74593918  0.41346419  0.80102310  1
  Se  Se221  1  0.74715456  0.74880601  0.29994042  1
  Se  Se222  1  0.73151728  0.72834018  0.80774224  1
  Se  Se223  1  0.25257671  0.07972480  0.20078084  1
  Se  Se224  1  0.24362097  0.08640539  0.69179101  1
  Se  Se225  1  0.24177966  0.42205054  0.19046283  1
  Se  Se226  1  0.24493385  0.42100290  0.69817139  1
  Se  Se227  1  0.25605198  0.74530197  0.20074464  1
  Se  Se228  1  0.24656897  0.75616884  0.68623411  1
  Se  Se229  1  0.57781110  0.09037679  0.18765594  1
  Se  Se230  1  0.58909021  0.07712788  0.69739612  1
  Se  Se231  1  0.58621680  0.41841038  0.20174665  1
  Se  Se232  1  0.58806549  0.41542102  0.69742049  1
  Se  Se233  1  0.58751083  0.75571345  0.20037192  1
  Se  Se234  1  0.58408013  0.74527915  0.69789786  1
  Se  Se235  1  0.90863470  0.09114143  0.19231902  1
  Se  Se236  1  0.91681077  0.09026146  0.69838426  1
  Se  Se237  1  0.91243157  0.41903212  0.19003578  1
  Se  Se238  1  0.90917362  0.42356797  0.68447517  1
  Se  Se239  1  0.91843472  0.74388632  0.19425665  1
  Se  Se240  1  0.90500065  0.76242939  0.70610691  1
  Se  Se241  1  0.08772143  0.24011768  0.19158254  1
  Se  Se242  1  0.09098550  0.24459353  0.69181191  1
  Se  Se243  1  0.08054180  0.58444863  0.19706634  1
  Se  Se244  1  0.07437316  0.58549276  0.69297179  1
  Se  Se245  1  0.09101446  0.90386514  0.18694335  1
  Se  Se246  1  0.08197587  0.91949002  0.69549630  1
  Se  Se247  1  0.42379370  0.24615617  0.18824945  1
  Se  Se248  1  0.40779781  0.25314165  0.70023613  1
  Se  Se249  1  0.41981593  0.58619931  0.20254964  1
  Se  Se250  1  0.42110955  0.57767910  0.68076922  1
  Se  Se251  1  0.41772661  0.92111862  0.20217928  1
  Se  Se252  1  0.42324296  0.91039263  0.68905869  1
  Se  Se253  1  0.74366495  0.26338085  0.19613569  1
  Se  Se254  1  0.75480582  0.25562678  0.69151092  1
  Se  Se255  1  0.75074992  0.58396072  0.19782725  1
  Se  Se256  1  0.74766058  0.58350542  0.69558917  1
  Se  Se257  1  0.75893686  0.91315873  0.18484999  1
  Se  Se258  1  0.76276049  0.90376869  0.70739381  1
