# generated using pymatgen
data_In86Cu29Se144
_symmetry_space_group_name_H-M   'P 1'
_cell_length_a   17.57351003
_cell_length_b   17.57378318
_cell_length_c   23.43444799
_cell_angle_alpha   89.99434842
_cell_angle_beta   90.01005397
_cell_angle_gamma   90.01581802
_symmetry_Int_Tables_number   1
_chemical_formula_structural   In86Cu29Se144
_chemical_formula_sum   'In86 Cu29 Se144'
_cell_volume   7237.33173980
_cell_formula_units_Z   1
loop_
 _symmetry_equiv_pos_site_id
 _symmetry_equiv_pos_as_xyz
  1  'x, y, z'
loop_
 _atom_site_type_symbol
 _atom_site_label
 _atom_site_symmetry_multiplicity
 _atom_site_fract_x
 _atom_site_fract_y
 _atom_site_fract_z
 _atom_site_occupancy
  In  In0  1  0.01123419  0.15874985  0.13745071  1
  In  In1  1  -0.00977082  0.16425927  0.61830781  1
  In  In2  1  -0.00052071  0.50236378  0.12691493  1
  In  In3  1  0.01457779  0.50352540  0.62914705  1
  In  In4  1  -0.01483931  0.83952473  0.12899329  1
  In  In5  1  -0.01165961  0.82540375  0.61382489  1
  In  In6  1  0.33982731  0.16114183  0.13445710  1
  In  In7  1  0.33638659  0.15129727  0.62324191  1
  In  In8  1  0.33647720  0.49655158  0.12276384  1
  In  In9  1  0.34803741  0.51275231  0.62431335  1
  In  In10  1  0.32965889  0.83556646  0.13836694  1
  In  In11  1  0.33714933  0.82929700  0.61918873  1
  In  In12  1  0.64534982  0.17196889  0.12391926  1
  In  In13  1  0.64907885  0.17067611  0.62319635  1
  In  In14  1  0.67260358  0.50132910  0.11257067  1
  In  In15  1  0.65822120  0.51206307  0.63079836  1
  In  In16  1  0.67252268  0.82486621  0.13436305  1
  In  In17  1  0.67653021  0.83876378  0.62023602  1
  In  In18  1  0.15725578  -0.00922687  0.36382936  1
  In  In19  1  0.17336801  -0.01753137  0.87256236  1
  In  In20  1  0.16928548  0.32706621  0.35143966  1
  In  In21  1  0.18517085  0.34679957  0.88763087  1
  In  In22  1  0.17496018  0.67695110  0.36970910  1
  In  In23  1  0.16156440  0.66834886  0.87382287  1
  In  In24  1  0.50289659  -0.00224415  0.37659184  1
  In  In25  1  0.49941908  -0.00517806  0.87020835  1
  In  In26  1  0.48829164  0.34165270  0.37869984  1
  In  In27  1  0.48943500  0.34078213  0.90006368  1
  In  In28  1  0.49796826  0.66438461  0.37310526  1
  In  In29  1  0.49121018  0.66523937  0.87457070  1
  In  In30  1  0.82749614  -0.01149411  0.36568475  1
  In  In31  1  0.82115989  0.00998997  0.88104226  1
  In  In32  1  0.83725795  0.32679805  0.36504956  1
  In  In33  1  0.83684027  0.34715285  0.88229669  1
  In  In34  1  0.84170749  0.67574678  0.37033583  1
  In  In35  1  0.84481744  0.65554622  0.88191742  1
  In  In36  1  0.00706125  0.16541646  0.35365089  1
  In  In37  1  -0.01108736  0.17135185  0.88002045  1
  In  In38  1  0.00322605  0.50302555  0.36240769  1
  In  In39  1  -0.00650862  0.51931555  0.88826124  1
  In  In40  1  -0.00061507  0.83011900  0.37396961  1
  In  In41  1  0.00705059  0.81850398  0.87871846  1
  In  In42  1  0.33798140  0.17551512  0.36400545  1
  In  In43  1  0.34581948  0.16827042  0.87944167  1
  In  In44  1  0.34371747  0.50502184  0.36511617  1
  In  In45  1  0.32808847  0.50297986  0.89051239  1
  In  In46  1  0.33633007  0.83156058  0.37669541  1
  In  In47  1  0.32369497  0.83316828  0.85832373  1
  In  In48  1  0.66129216  0.15314779  0.36936440  1
  In  In49  1  0.65233877  0.15239088  0.87613758  1
  In  In50  1  0.64477802  0.49985577  0.37418614  1
  In  In51  1  0.66554958  0.49870191  0.88548596  1
  In  In52  1  0.66614554  0.83253365  0.37593169  1
  In  In53  1  0.66424826  0.84972531  0.87359737  1
  In  In54  1  0.16798130  0.00475209  0.13919899  1
  In  In55  1  0.18669975  -0.00421478  0.62808048  1
  In  In56  1  0.15968554  0.33682197  0.13327200  1
  In  In57  1  0.16866545  0.34551202  0.62552493  1
  In  In58  1  0.17593388  0.65431673  0.13435433  1
  In  In59  1  0.15688337  0.68398895  0.64070189  1
  In  In60  1  0.49256492  0.00495343  0.13587152  1
  In  In61  1  0.50211703  0.00066174  0.62105350  1
  In  In62  1  0.49056427  0.31917044  0.10236559  1
  In  In63  1  0.50057445  0.33738625  0.61618971  1
  In  In64  1  0.50532841  0.66052701  0.13283250  1
  In  In65  1  0.48835192  0.65795103  0.61910108  1
  In  In66  1  0.84247312  -0.01490169  0.12846185  1
  In  In67  1  0.83777147  -0.01388737  0.62532824  1
  In  In68  1  0.83248239  0.34895587  0.11910277  1
  In  In69  1  0.84679692  0.33150161  0.62479345  1
  In  In70  1  0.83213817  0.66876737  0.12537977  1
  In  In71  1  0.82461558  0.67955105  0.62782380  1
  In  In72  1  0.16256807  0.83193042  0.00168901  1
  In  In73  1  0.17223696  0.15742707  0.49190173  1
  In  In74  1  0.66550290  0.67045504  0.75310820  1
  In  In75  1  0.82285568  0.15181228  0.47899823  1
  In  In76  1  0.49878204  0.83351672  -0.00197985  1
  In  In77  1  0.33815442  0.33524280  0.76141728  1
  In  In78  1  0.66095258  0.33575374  0.76459625  1
  In  In79  1  0.82219024  0.50561424  0.50689505  1
  In  In80  1  0.16763370  0.16576274  0.01283970  1
  In  In81  1  0.17716585  0.50370491  0.48928461  1
  In  In82  1  0.00115087  -0.00715535  0.75075748  1
  In  In83  1  0.00189683  0.34224347  0.75243004  1
  In  In84  1  0.82640142  0.17039528  0.00813260  1
  In  In85  1  0.66685367  0.34155136  0.24026081  1
  Cu  Cu86  1  0.83491773  0.83333949  0.75066963  1
  Cu  Cu87  1  0.49644383  0.49871265  0.24379707  1
  Cu  Cu88  1  0.50118370  0.83431443  0.25603305  1
  Cu  Cu89  1  0.33455526  0.66866853  0.49685222  1
  Cu  Cu90  1  0.65694234  0.33700844  0.49953649  1
  Cu  Cu91  1  0.33499708  0.66737139  0.00470400  1
  Cu  Cu92  1  0.83283037  0.83095234  0.25175519  1
  Cu  Cu93  1  0.16466329  0.49967506  0.24677952  1
  Cu  Cu94  1  0.16209311  0.16232012  0.74950300  1
  Cu  Cu95  1  -0.00101379  0.67487931  0.50053981  1
  Cu  Cu96  1  0.81399996  0.16540927  0.75377260  1
  Cu  Cu97  1  -0.00345250  0.33367342  0.48548703  1
  Cu  Cu98  1  0.66647357  -0.00095369  0.49690819  1
  Cu  Cu99  1  0.00568869  -0.01025661  0.49376280  1
  Cu  Cu100  1  0.49948124  0.83769862  0.74271110  1
  Cu  Cu101  1  0.17039882  0.50989813  0.75858257  1
  Cu  Cu102  1  0.33661605  0.00276097  0.00419001  1
  Cu  Cu103  1  0.83590158  0.16573528  0.24497771  1
  Cu  Cu104  1  0.65919283  -0.00087183  0.00373389  1
  Cu  Cu105  1  0.83022292  0.50736058  0.24190753  1
  Cu  Cu106  1  0.34093364  -0.00588442  0.49774618  1
  Cu  Cu107  1  0.49567278  0.15940057  0.74963399  1
  Cu  Cu108  1  0.00072905  0.66397159  0.00668946  1
  Cu  Cu109  1  0.67573568  0.67306690  0.00367131  1
  Cu  Cu110  1  0.00654743  0.33805244  0.00576647  1
  Cu  Cu111  1  0.65907788  0.66725268  0.49884041  1
  Cu  Cu112  1  0.50449731  0.17010048  0.24945905  1
  Cu  Cu113  1  0.16331742  0.82638470  0.25211341  1
  Cu  Cu114  1  0.33425240  0.32860635  0.49484444  1
  Se  Se115  1  0.07555482  0.06713943  0.06070296  1
  Se  Se116  1  0.07908166  0.07387100  0.55776256  1
  Se  Se117  1  0.08762822  0.42117813  0.05924435  1
  Se  Se118  1  0.07611948  0.41203019  0.54835243  1
  Se  Se119  1  0.08165274  0.74286020  0.06794447  1
  Se  Se120  1  0.08953290  0.74935002  0.55467768  1
  Se  Se121  1  0.41974366  0.08322231  0.05857072  1
  Se  Se122  1  0.42040789  0.08385284  0.54909680  1
  Se  Se123  1  0.43321406  0.43541113  0.05230501  1
  Se  Se124  1  0.40814263  0.41646595  0.55263221  1
  Se  Se125  1  0.41086302  0.75014581  0.06451233  1
  Se  Se126  1  0.42297114  0.75017845  0.54766710  1
  Se  Se127  1  0.73967613  0.07554553  0.06643517  1
  Se  Se128  1  0.74683430  0.07993332  0.56059785  1
  Se  Se129  1  0.74397169  0.40808897  0.04497339  1
  Se  Se130  1  0.73848080  0.40567866  0.56578651  1
  Se  Se131  1  0.75443703  0.75949110  0.05633822  1
  Se  Se132  1  0.74878443  0.74776105  0.54935907  1
  Se  Se133  1  0.25809282  0.25586306  0.06781923  1
  Se  Se134  1  0.25189497  0.25449636  0.55836136  1
  Se  Se135  1  0.25012941  0.58301907  0.05530631  1
  Se  Se136  1  0.25072659  0.59172367  0.55989819  1
  Se  Se137  1  0.25548078  0.92261180  0.06197718  1
  Se  Se138  1  0.25305361  0.91538980  0.55075779  1
  Se  Se139  1  0.59390340  0.25168569  0.04163278  1
  Se  Se140  1  0.57448379  0.24684458  0.54707417  1
  Se  Se141  1  0.58547386  0.59472658  0.05414018  1
  Se  Se142  1  0.58127348  0.57931797  0.55246297  1
  Se  Se143  1  0.58195055  0.91769409  0.06575805  1
  Se  Se144  1  0.58651057  0.91629045  0.55367332  1
  Se  Se145  1  0.93051470  0.25228125  0.06461479  1
  Se  Se146  1  0.91473806  0.24969962  0.54184929  1
  Se  Se147  1  0.91347049  0.58169867  0.05741343  1
  Se  Se148  1  0.92479166  0.59019313  0.56218486  1
  Se  Se149  1  0.91325922  0.91110701  0.04968498  1
  Se  Se150  1  0.91259557  0.91627974  0.54615885  1
  Se  Se151  1  0.08208156  0.25250455  0.43253420  1
  Se  Se152  1  0.08116768  0.25598938  0.94390869  1
  Se  Se153  1  0.07403500  0.59045798  0.43887121  1
  Se  Se154  1  0.09254191  0.58918034  0.95230662  1
  Se  Se155  1  0.09061244  0.90898329  0.44184406  1
  Se  Se156  1  0.07324251  0.92589345  0.94425986  1
  Se  Se157  1  0.41719370  0.24336691  0.44358873  1
  Se  Se158  1  0.41129406  0.24423395  0.95770238  1
  Se  Se159  1  0.41433420  0.58096307  0.44392164  1
  Se  Se160  1  0.42238073  0.58664536  0.95214212  1
  Se  Se161  1  0.42416541  0.91033193  0.44526878  1
  Se  Se162  1  0.40133216  0.91626531  0.93908393  1
  Se  Se163  1  0.73603260  0.26196436  0.43522226  1
  Se  Se164  1  0.74654592  0.24745832  0.93283626  1
  Se  Se165  1  0.74026595  0.58802910  0.43727532  1
  Se  Se166  1  0.75228079  0.58424064  0.94935220  1
  Se  Se167  1  0.75178515  0.91760595  0.44417778  1
  Se  Se168  1  0.74540928  0.92039443  0.94972545  1
  Se  Se169  1  0.26164541  0.07029900  0.43184569  1
  Se  Se170  1  0.25102931  0.07659833  0.94314924  1
  Se  Se171  1  0.25401050  0.40303944  0.43002801  1
  Se  Se172  1  0.26447833  0.41158648  0.96376620  1
  Se  Se173  1  0.24872690  0.75191999  0.44697310  1
  Se  Se174  1  0.26153676  0.75013054  0.94228866  1
  Se  Se175  1  0.58318245  0.08515885  0.44714360  1
  Se  Se176  1  0.57140809  0.07401481  0.94827698  1
  Se  Se177  1  0.57202147  0.42168161  0.44989208  1
  Se  Se178  1  0.59445575  0.41080729  0.95516548  1
  Se  Se179  1  0.57937739  0.74943445  0.44226431  1
  Se  Se180  1  0.59305352  0.74549786  0.93909425  1
  Se  Se181  1  0.93202063  0.07432216  0.42999625  1
  Se  Se182  1  0.92083328  0.07845096  0.95055556  1
  Se  Se183  1  0.91129648  0.42053151  0.43734928  1
  Se  Se184  1  0.92155163  0.42095909  0.95261922  1
  Se  Se185  1  0.91270043  0.75458759  0.44750239  1
  Se  Se186  1  0.92048590  0.74675125  0.95027170  1
  Se  Se187  1  0.25446070  0.24405262  0.28899287  1
  Se  Se188  1  0.23806703  0.24380070  0.81249502  1
  Se  Se189  1  0.24626969  0.58065634  0.30448866  1
  Se  Se190  1  0.25720465  0.58580280  0.81471037  1
  Se  Se191  1  0.25063375  0.90796509  0.30408231  1
  Se  Se192  1  0.24456072  0.91826819  0.79134746  1
  Se  Se193  1  0.58205004  0.25567985  0.30893069  1
  Se  Se194  1  0.56179783  0.24537393  0.81596432  1
  Se  Se195  1  0.57824786  0.58261597  0.29882319  1
  Se  Se196  1  0.57923068  0.57518316  0.81084919  1
  Se  Se197  1  0.58745037  0.91852387  0.30596516  1
  Se  Se198  1  0.58321980  0.91902373  0.79770773  1
  Se  Se199  1  0.91941911  0.25410959  0.29300753  1
  Se  Se200  1  0.90175417  0.24764047  0.80591663  1
  Se  Se201  1  0.91371362  0.58570829  0.30035141  1
  Se  Se202  1  0.92844592  0.58923803  0.80578775  1
  Se  Se203  1  0.92186986  0.91447293  0.30157721  1
  Se  Se204  1  0.90861694  0.91325843  0.81673959  1
  Se  Se205  1  0.09230299  0.08142035  0.29190271  1
  Se  Se206  1  0.08335651  0.08963556  0.81432564  1
  Se  Se207  1  0.07648814  0.41335443  0.29447627  1
  Se  Se208  1  0.09239697  0.42451979  0.81795651  1
  Se  Se209  1  0.07657520  0.74323653  0.30339532  1
  Se  Se210  1  0.10096263  0.76718164  0.80529300  1
  Se  Se211  1  0.42629946  0.08542590  0.30546008  1
  Se  Se212  1  0.41111951  0.07980808  0.80589908  1
  Se  Se213  1  0.41643952  0.41153323  0.29754719  1
  Se  Se214  1  0.42542830  0.42617899  0.81893099  1
  Se  Se215  1  0.41516403  0.74825713  0.30493210  1
  Se  Se216  1  0.42465311  0.75512934  0.80283900  1
  Se  Se217  1  0.75387232  0.08536416  0.30119454  1
  Se  Se218  1  0.73658287  0.07650897  0.80392151  1
  Se  Se219  1  0.75305239  0.42900199  0.30822020  1
  Se  Se220  1  0.76039658  0.43158564  0.80864594  1
  Se  Se221  1  0.74720967  0.74894025  0.30501606  1
  Se  Se222  1  0.75739055  0.75585249  0.81550081  1
  Se  Se223  1  0.26602282  0.07191301  0.20191169  1
  Se  Se224  1  0.25409696  0.08488204  0.70050090  1
  Se  Se225  1  0.25228197  0.41891891  0.19523431  1
  Se  Se226  1  0.24902417  0.42767561  0.69714263  1
  Se  Se227  1  0.25193878  0.74416600  0.20227421  1
  Se  Se228  1  0.27937000  0.72867122  0.68863467  1
  Se  Se229  1  0.58766620  0.08240679  0.20035035  1
  Se  Se230  1  0.58295882  0.08210973  0.69549120  1
  Se  Se231  1  0.57397110  0.42202334  0.17923103  1
  Se  Se232  1  0.57401457  0.41942527  0.69547669  1
  Se  Se233  1  0.58195459  0.74928147  0.20091840  1
  Se  Se234  1  0.58029880  0.75388216  0.68521848  1
  Se  Se235  1  0.91767892  0.07607078  0.19702225  1
  Se  Se236  1  0.90529942  0.09066145  0.69559871  1
  Se  Se237  1  0.91350471  0.41787519  0.19536613  1
  Se  Se238  1  0.90918159  0.43113048  0.69349576  1
  Se  Se239  1  0.91518051  0.74669941  0.19825970  1
  Se  Se240  1  0.91714868  0.75244782  0.69519448  1
  Se  Se241  1  0.09145580  0.24380127  0.20213874  1
  Se  Se242  1  0.08628765  0.24382533  0.68769529  1
  Se  Se243  1  0.07739697  0.58503675  0.19938015  1
  Se  Se244  1  0.08178638  0.58734665  0.70429940  1
  Se  Se245  1  0.08327252  0.90911656  0.19509230  1
  Se  Se246  1  0.08294417  0.91126840  0.68158201  1
  Se  Se247  1  0.42907743  0.25527578  0.19091733  1
  Se  Se248  1  0.42019917  0.24781107  0.69064026  1
  Se  Se249  1  0.40943307  0.58538383  0.19574666  1
  Se  Se250  1  0.42629723  0.58065731  0.70097257  1
  Se  Se251  1  0.41543124  0.91763036  0.20396973  1
  Se  Se252  1  0.41590856  0.91895864  0.68809333  1
  Se  Se253  1  0.75639232  0.24480225  0.18407212  1
  Se  Se254  1  0.74747241  0.25283015  0.69047025  1
  Se  Se255  1  0.74170571  0.58379225  0.18933599  1
  Se  Se256  1  0.76025694  0.57732154  0.69667230  1
  Se  Se257  1  0.74992701  0.91769266  0.19938982  1
  Se  Se258  1  0.75088411  0.91595692  0.69790939  1
