# generated using pymatgen
data_In86Cu29Se144
_symmetry_space_group_name_H-M   'P 1'
_cell_length_a   17.68008740
_cell_length_b   17.68117675
_cell_length_c   23.55025024
_cell_angle_alpha   90.01177788
_cell_angle_beta   90.00703810
_cell_angle_gamma   89.99025485
_symmetry_Int_Tables_number   1
_chemical_formula_structural   In86Cu29Se144
_chemical_formula_sum   'In86 Cu29 Se144'
_cell_volume   7361.91977484
_cell_formula_units_Z   1
loop_
 _symmetry_equiv_pos_site_id
 _symmetry_equiv_pos_as_xyz
  1  'x, y, z'
loop_
 _atom_site_type_symbol
 _atom_site_label
 _atom_site_symmetry_multiplicity
 _atom_site_fract_x
 _atom_site_fract_y
 _atom_site_fract_z
 _atom_site_occupancy
  In  In0  1  -0.00972642  0.17805475  0.13554334  1
  In  In1  1  -0.00190006  0.17653037  0.61658320  1
  In  In2  1  -0.01634655  0.49861144  0.13425233  1
  In  In3  1  0.03156246  0.53503249  0.55781375  1
  In  In4  1  0.00405328  0.83618839  0.11566111  1
  In  In5  1  -0.00682235  0.83124726  0.61470216  1
  In  In6  1  0.33725681  0.16528492  0.13580094  1
  In  In7  1  0.33931791  0.15055303  0.62583744  1
  In  In8  1  0.32338060  0.50215070  0.13128618  1
  In  In9  1  0.35038354  0.51727996  0.62053779  1
  In  In10  1  0.33641707  0.83996101  0.11477494  1
  In  In11  1  0.33762928  0.83426460  0.62372515  1
  In  In12  1  0.67610734  0.15419868  0.13438881  1
  In  In13  1  0.66492016  0.16154648  0.61675918  1
  In  In14  1  0.67783789  0.48717909  0.13806078  1
  In  In15  1  0.66440847  0.50393804  0.61879518  1
  In  In16  1  0.67818144  0.84154334  0.11641539  1
  In  In17  1  0.68072467  0.85017733  0.62175774  1
  In  In18  1  0.15990226  -0.01072484  0.36866595  1
  In  In19  1  0.16541965  -0.01363879  0.87277689  1
  In  In20  1  0.17369013  0.33315231  0.37422423  1
  In  In21  1  0.16534668  0.35064690  0.87843505  1
  In  In22  1  0.14726388  0.67485262  0.39207790  1
  In  In23  1  0.17995009  0.67376373  0.86394265  1
  In  In24  1  0.50040578  -0.00381353  0.37330298  1
  In  In25  1  0.49635819  -0.00984604  0.86690806  1
  In  In26  1  0.49983203  0.33395614  0.37731849  1
  In  In27  1  0.50315052  0.32488192  0.87782170  1
  In  In28  1  0.50064235  0.66693281  0.38561521  1
  In  In29  1  0.50144240  0.67930200  0.87002194  1
  In  In30  1  0.83103503  -0.00057464  0.37112753  1
  In  In31  1  0.82774751  0.00007156  0.87946861  1
  In  In32  1  0.82921952  0.33558392  0.37087827  1
  In  In33  1  0.83643607  0.33530257  0.88493763  1
  In  In34  1  0.83722033  0.67095569  0.38260420  1
  In  In35  1  0.82800846  0.67076318  0.88445941  1
  In  In36  1  -0.00641122  0.15482564  0.36660780  1
  In  In37  1  -0.00826334  0.15968474  0.88005958  1
  In  In38  1  -0.00401532  0.48925733  0.38098361  1
  In  In39  1  -0.00630616  0.49580064  0.87257061  1
  In  In40  1  -0.01775696  0.85153033  0.39392362  1
  In  In41  1  -0.00518041  0.83528977  0.88693446  1
  In  In42  1  0.34369083  0.17040033  0.37250661  1
  In  In43  1  0.34963202  0.16314622  0.87577788  1
  In  In44  1  0.33406487  0.49359303  0.38675382  1
  In  In45  1  0.32042560  0.50418831  0.86929873  1
  In  In46  1  0.32355448  0.83326428  0.38103819  1
  In  In47  1  0.33514147  0.83756744  0.87007948  1
  In  In48  1  0.66299008  0.16405114  0.37246546  1
  In  In49  1  0.68054551  0.16537009  0.87732766  1
  In  In50  1  0.67996616  0.48594275  0.38424128  1
  In  In51  1  0.67627261  0.51035020  0.87461948  1
  In  In52  1  0.66274441  0.83504207  0.37736471  1
  In  In53  1  0.66148203  0.83388200  0.87864168  1
  In  In54  1  0.17381621  -0.00611765  0.12915019  1
  In  In55  1  0.18671058  -0.00070179  0.62792903  1
  In  In56  1  0.16697854  0.33340602  0.14329549  1
  In  In57  1  0.16289505  0.34792221  0.61361075  1
  In  In58  1  0.14708197  0.67607393  0.12186844  1
  In  In59  1  0.17222426  0.67745103  0.62063748  1
  In  In60  1  0.50839683  -0.01072255  0.13103988  1
  In  In61  1  0.50561510  -0.00175988  0.62156200  1
  In  In62  1  0.50668264  0.32882640  0.14211534  1
  In  In63  1  0.50780248  0.33875096  0.61507153  1
  In  In64  1  0.49282839  0.67087981  0.11988302  1
  In  In65  1  0.49057797  0.66311089  0.62352919  1
  In  In66  1  0.82767094  0.00125389  0.12627227  1
  In  In67  1  0.82220319  -0.00504284  0.61762233  1
  In  In68  1  0.83529022  0.32838675  0.13048725  1
  In  In69  1  0.84821885  0.34465499  0.60605372  1
  In  In70  1  0.84410918  0.66725036  0.11465733  1
  In  In71  1  0.84096174  0.66697791  0.61154605  1
  In  In72  1  0.67153705  0.32949961  0.73394408  1
  In  In73  1  0.32797529  0.66453388  0.25747843  1
  In  In74  1  0.50102937  0.50255727  -0.00244827  1
  In  In75  1  0.16844485  0.16057773  0.49618724  1
  In  In76  1  0.16101048  0.16561903  0.00359041  1
  In  In77  1  -0.00769744  0.33411212  0.73370003  1
  In  In78  1  0.67109911  0.66906470  0.25373556  1
  In  In79  1  0.66112434  0.67079194  0.75372010  1
  In  In80  1  -0.00053400  -0.00167747  0.75297779  1
  In  In81  1  0.00273184  0.66403601  0.73720899  1
  In  In82  1  -0.00399545  0.67158096  0.25177854  1
  In  In83  1  0.50875443  0.15896105  0.01543362  1
  In  In84  1  0.15287097  0.51052623  0.00496938  1
  In  In85  1  0.33793167  0.33318499  0.74918640  1
  Cu  Cu86  1  0.33610102  0.33469277  0.01142811  1
  Cu  Cu87  1  0.16846669  0.49888192  0.26100356  1
  Cu  Cu88  1  0.16489183  0.50707090  0.73929156  1
  Cu  Cu89  1  0.83280295  0.16202206  0.74962838  1
  Cu  Cu90  1  0.49380554  0.16753878  0.25693292  1
  Cu  Cu91  1  0.67006783  0.66014080  -0.00014251  1
  Cu  Cu92  1  0.66622622  0.00114743  0.49355941  1
  Cu  Cu93  1  0.17596464  0.17065050  0.75055850  1
  Cu  Cu94  1  0.33895838  -0.00511197  0.49983348  1
  Cu  Cu95  1  0.50013386  0.49707994  0.25998182  1
  Cu  Cu96  1  0.50105396  0.83590706  0.74530499  1
  Cu  Cu97  1  0.83078559  0.49909719  0.74671311  1
  Cu  Cu98  1  0.66428040  -0.00306617  0.00212986  1
  Cu  Cu99  1  0.50775632  0.15939968  0.74604529  1
  Cu  Cu100  1  0.65901976  0.67690711  0.50347498  1
  Cu  Cu101  1  -0.00932895  0.00463441  0.00327441  1
  Cu  Cu102  1  0.16596518  0.83167449  0.24956919  1
  Cu  Cu103  1  0.32893716  -0.00742965  -0.00255401  1
  Cu  Cu104  1  0.00150020  0.00167467  0.49410628  1
  Cu  Cu105  1  0.32966916  0.68018604  -0.00503745  1
  Cu  Cu106  1  0.67868993  0.33825144  0.00722892  1
  Cu  Cu107  1  0.33398590  0.33065921  0.49810063  1
  Cu  Cu108  1  0.33314667  0.66727166  0.50240789  1
  Cu  Cu109  1  0.66194194  0.32450657  0.49361995  1
  Cu  Cu110  1  0.16844299  0.16006589  0.25608226  1
  Cu  Cu111  1  0.50257138  0.83528616  0.24866261  1
  Cu  Cu112  1  0.82678967  0.16565874  0.25248136  1
  Cu  Cu113  1  0.16910015  0.83249535  0.74650241  1
  Cu  Cu114  1  -0.00749885  0.33647412  0.00697116  1
  Se  Se115  1  0.07347222  0.07990929  0.06527339  1
  Se  Se116  1  0.08224806  0.07202486  0.56185893  1
  Se  Se117  1  0.08136546  0.40707460  0.06558472  1
  Se  Se118  1  0.04503723  0.38830687  0.55961931  1
  Se  Se119  1  0.08228153  0.75305620  0.04506611  1
  Se  Se120  1  0.07231633  0.73909176  0.55448522  1
  Se  Se121  1  0.40537403  0.07097318  0.06140152  1
  Se  Se122  1  0.42036024  0.08027398  0.55184333  1
  Se  Se123  1  0.41696398  0.41595066  0.06754610  1
  Se  Se124  1  0.41275683  0.41599125  0.55442441  1
  Se  Se125  1  0.41983018  0.75437545  0.04853952  1
  Se  Se126  1  0.41763353  0.75139026  0.55353564  1
  Se  Se127  1  0.74573946  0.08309359  0.05401926  1
  Se  Se128  1  0.75044617  0.08341887  0.54787165  1
  Se  Se129  1  0.75888118  0.42058755  0.06145020  1
  Se  Se130  1  0.73578472  0.40873301  0.55396156  1
  Se  Se131  1  0.75089255  0.74626657  0.05221554  1
  Se  Se132  1  0.75035384  0.75420793  0.55449382  1
  Se  Se133  1  0.25206220  0.25436276  0.06498839  1
  Se  Se134  1  0.25701346  0.25007460  0.56121803  1
  Se  Se135  1  0.25643091  0.59648680  0.05813576  1
  Se  Se136  1  0.25075198  0.58390383  0.55654801  1
  Se  Se137  1  0.24177264  0.91444895  0.05028683  1
  Se  Se138  1  0.25281978  0.91553346  0.55348777  1
  Se  Se139  1  0.59486000  0.26081555  0.06536533  1
  Se  Se140  1  0.57962270  0.24476108  0.55080684  1
  Se  Se141  1  0.59224113  0.58212263  0.06420695  1
  Se  Se142  1  0.57943938  0.58765475  0.55464346  1
  Se  Se143  1  0.57903651  0.91368225  0.05231884  1
  Se  Se144  1  0.58808095  0.91753207  0.55196062  1
  Se  Se145  1  0.91378403  0.24703391  0.05646258  1
  Se  Se146  1  0.90976545  0.23921829  0.54523778  1
  Se  Se147  1  0.94452950  0.59213289  0.05701074  1
  Se  Se148  1  0.88737183  0.55461001  0.55184725  1
  Se  Se149  1  0.91018025  0.91945740  0.05608107  1
  Se  Se150  1  0.91613202  0.92285773  0.55084380  1
  Se  Se151  1  0.07953823  0.24446689  0.43483272  1
  Se  Se152  1  0.07416001  0.26279485  0.94169788  1
  Se  Se153  1  0.08654636  0.56488423  0.45115758  1
  Se  Se154  1  0.08266157  0.59124507  0.92806203  1
  Se  Se155  1  0.09155867  0.91696482  0.45017114  1
  Se  Se156  1  0.07743060  0.92727426  0.94773578  1
  Se  Se157  1  0.41861386  0.24857006  0.44714130  1
  Se  Se158  1  0.41546100  0.25353689  0.95414713  1
  Se  Se159  1  0.41559628  0.58271681  0.45009434  1
  Se  Se160  1  0.40557077  0.58981523  0.93879201  1
  Se  Se161  1  0.41761193  0.91199485  0.44246975  1
  Se  Se162  1  0.41684327  0.91812305  0.94198843  1
  Se  Se163  1  0.74746377  0.24788093  0.43880592  1
  Se  Se164  1  0.75161312  0.25100030  0.94879807  1
  Se  Se165  1  0.73709189  0.59778552  0.44265352  1
  Se  Se166  1  0.75599500  0.57572931  0.95123621  1
  Se  Se167  1  0.75060219  0.91674250  0.44270867  1
  Se  Se168  1  0.74650383  0.91464829  0.94626903  1
  Se  Se169  1  0.25872116  0.07250546  0.43677772  1
  Se  Se170  1  0.25537202  0.08160524  0.94030284  1
  Se  Se171  1  0.24446390  0.41239820  0.45164328  1
  Se  Se172  1  0.25799969  0.41724428  0.95240169  1
  Se  Se173  1  0.24689062  0.74894398  0.45133385  1
  Se  Se174  1  0.24682682  0.75812200  0.93855882  1
  Se  Se175  1  0.57994403  0.08205961  0.44210568  1
  Se  Se176  1  0.58584596  0.07886969  0.94039713  1
  Se  Se177  1  0.58033326  0.41741077  0.44754724  1
  Se  Se178  1  0.59620754  0.40816175  0.94208257  1
  Se  Se179  1  0.57767848  0.75932077  0.44890756  1
  Se  Se180  1  0.58612382  0.74174012  0.94608071  1
  Se  Se181  1  0.91535497  0.08097812  0.44199435  1
  Se  Se182  1  0.90763351  0.08573946  0.94896223  1
  Se  Se183  1  0.89407155  0.42657300  0.44411967  1
  Se  Se184  1  0.91798759  0.42268541  0.94946425  1
  Se  Se185  1  0.93811703  0.73293386  0.44761087  1
  Se  Se186  1  0.92135837  0.74183358  0.94862577  1
  Se  Se187  1  0.25099657  0.24584936  0.30698494  1
  Se  Se188  1  0.24591184  0.24973836  0.81683631  1
  Se  Se189  1  0.23691075  0.58519143  0.32291629  1
  Se  Se190  1  0.25010430  0.58481217  0.79363494  1
  Se  Se191  1  0.25232624  0.91079582  0.30360408  1
  Se  Se192  1  0.25015825  0.91822850  0.80001441  1
  Se  Se193  1  0.57875835  0.25114912  0.30668119  1
  Se  Se194  1  0.58518124  0.24323121  0.80478284  1
  Se  Se195  1  0.58022181  0.58131561  0.31435779  1
  Se  Se196  1  0.57379784  0.57269323  0.80962352  1
  Se  Se197  1  0.58545141  0.91522663  0.30376017  1
  Se  Se198  1  0.58644964  0.91218044  0.80286890  1
  Se  Se199  1  0.91192660  0.24670589  0.30484843  1
  Se  Se200  1  0.91202542  0.24718327  0.80702058  1
  Se  Se201  1  0.91198898  0.57887472  0.31147072  1
  Se  Se202  1  0.90959324  0.58232836  0.80547165  1
  Se  Se203  1  0.92144845  0.91542196  0.30911719  1
  Se  Se204  1  0.91090255  0.90869217  0.81092290  1
  Se  Se205  1  0.08136653  0.07414292  0.30069795  1
  Se  Se206  1  0.09134728  0.09468926  0.81035540  1
  Se  Se207  1  0.08350151  0.41538339  0.31036552  1
  Se  Se208  1  0.08653084  0.42335254  0.79834901  1
  Se  Se209  1  0.08624733  0.75831719  0.31129552  1
  Se  Se210  1  0.08095068  0.75917838  0.80455103  1
  Se  Se211  1  0.41406430  0.07707332  0.30469445  1
  Se  Se212  1  0.42023240  0.08362045  0.80146227  1
  Se  Se213  1  0.41142462  0.41854581  0.31143796  1
  Se  Se214  1  0.42470436  0.41963343  0.81422958  1
  Se  Se215  1  0.42440278  0.75435742  0.30968018  1
  Se  Se216  1  0.41754046  0.75433243  0.80046438  1
  Se  Se217  1  0.74433835  0.08039268  0.30365452  1
  Se  Se218  1  0.75154920  0.08126856  0.80481794  1
  Se  Se219  1  0.74365279  0.41584834  0.30222269  1
  Se  Se220  1  0.75589270  0.41529104  0.80577797  1
  Se  Se221  1  0.76140072  0.75967699  0.30986152  1
  Se  Se222  1  0.75726495  0.75619705  0.80945284  1
  Se  Se223  1  0.25045314  0.08081677  0.19767104  1
  Se  Se224  1  0.25702261  0.08298417  0.70198887  1
  Se  Se225  1  0.25384723  0.41972945  0.20517593  1
  Se  Se226  1  0.24925122  0.42150242  0.68679272  1
  Se  Se227  1  0.24495504  0.75085762  0.18900705  1
  Se  Se228  1  0.25321295  0.75159732  0.69349962  1
  Se  Se229  1  0.57285339  0.08917219  0.19575836  1
  Se  Se230  1  0.59057839  0.08039370  0.69087649  1
  Se  Se231  1  0.58618275  0.41798682  0.20651538  1
  Se  Se232  1  0.57471986  0.42658992  0.69252221  1
  Se  Se233  1  0.57951990  0.75226546  0.18844333  1
  Se  Se234  1  0.58256072  0.75816565  0.68511828  1
  Se  Se235  1  0.90968307  0.08517069  0.19584656  1
  Se  Se236  1  0.91790067  0.08911505  0.68858588  1
  Se  Se237  1  0.92556303  0.40057104  0.19979386  1
  Se  Se238  1  0.91370354  0.43469272  0.68100508  1
  Se  Se239  1  0.91166557  0.75982581  0.18796417  1
  Se  Se240  1  0.90579531  0.75708091  0.68948933  1
  Se  Se241  1  0.08465881  0.24526674  0.20415810  1
  Se  Se242  1  0.09754799  0.24427548  0.68797693  1
  Se  Se243  1  0.09201127  0.57705544  0.19605706  1
  Se  Se244  1  0.08206676  0.57177507  0.67439070  1
  Se  Se245  1  0.08448195  0.91084536  0.19143060  1
  Se  Se246  1  0.08721344  0.91200869  0.68762131  1
  Se  Se247  1  0.41168721  0.25386917  0.20379724  1
  Se  Se248  1  0.42886507  0.24435852  0.68945738  1
  Se  Se249  1  0.42495137  0.57805055  0.19644191  1
  Se  Se250  1  0.41947810  0.58697646  0.70075381  1
  Se  Se251  1  0.41408564  0.90994003  0.19281137  1
  Se  Se252  1  0.41917855  0.91991563  0.69135411  1
  Se  Se253  1  0.74567123  0.25106453  0.19845800  1
  Se  Se254  1  0.76740620  0.24287650  0.68080388  1
  Se  Se255  1  0.76475455  0.58553676  0.19221756  1
  Se  Se256  1  0.75234500  0.58410010  0.69055418  1
  Se  Se257  1  0.73638530  0.92604193  0.19320519  1
  Se  Se258  1  0.75481246  0.92366064  0.69842147  1
