# generated using pymatgen
data_In86Cu29Se144
_symmetry_space_group_name_H-M   'P 1'
_cell_length_a   17.56903246
_cell_length_b   17.56739251
_cell_length_c   23.42339962
_cell_angle_alpha   89.98681615
_cell_angle_beta   89.99268905
_cell_angle_gamma   89.97293980
_symmetry_Int_Tables_number   1
_chemical_formula_structural   In86Cu29Se144
_chemical_formula_sum   'In86 Cu29 Se144'
_cell_volume   7229.44594022
_cell_formula_units_Z   1
loop_
 _symmetry_equiv_pos_site_id
 _symmetry_equiv_pos_as_xyz
  1  'x, y, z'
loop_
 _atom_site_type_symbol
 _atom_site_label
 _atom_site_symmetry_multiplicity
 _atom_site_fract_x
 _atom_site_fract_y
 _atom_site_fract_z
 _atom_site_occupancy
  In  In0  1  -0.01609563  0.16218934  0.11385628  1
  In  In1  1  -0.01606757  0.16645475  0.62323711  1
  In  In2  1  0.01996817  0.49331439  0.12134572  1
  In  In3  1  0.01387185  0.50988498  0.62425835  1
  In  In4  1  -0.00993867  0.83934938  0.12817115  1
  In  In5  1  0.00689014  0.82401105  0.63684319  1
  In  In6  1  0.35029113  0.14861312  0.14639475  1
  In  In7  1  0.34908376  0.16961571  0.62031542  1
  In  In8  1  0.32745016  0.49295146  0.12627559  1
  In  In9  1  0.33447281  0.49659145  0.62719912  1
  In  In10  1  0.34834579  0.84062666  0.12426570  1
  In  In11  1  0.31393041  0.83528163  0.61964782  1
  In  In12  1  0.66456121  0.16023534  0.12993867  1
  In  In13  1  0.66369929  0.16508293  0.62788250  1
  In  In14  1  0.65331078  0.49511742  0.12939023  1
  In  In15  1  0.64574696  0.49260010  0.62307376  1
  In  In16  1  0.67335952  0.84507617  0.12122781  1
  In  In17  1  0.67594021  0.83765638  0.62901421  1
  In  In18  1  0.16299521  -0.00717609  0.36977046  1
  In  In19  1  0.15548849  0.00982015  0.87323795  1
  In  In20  1  0.18896097  0.33911538  0.38068440  1
  In  In21  1  0.18749079  0.33576773  0.87385363  1
  In  In22  1  0.17400917  0.67300731  0.38456656  1
  In  In23  1  0.15385384  0.65703287  0.87076687  1
  In  In24  1  0.52243661  0.02311323  0.34556457  1
  In  In25  1  0.51130174  -0.00392206  0.88263321  1
  In  In26  1  0.49719726  0.32220543  0.37621285  1
  In  In27  1  0.49339642  0.32816397  0.87349776  1
  In  In28  1  0.48112291  0.66463162  0.37614059  1
  In  In29  1  0.50496370  0.68653364  0.87192291  1
  In  In30  1  0.84113050  0.00474594  0.36987069  1
  In  In31  1  0.83391375  0.00663228  0.88271981  1
  In  In32  1  0.81571296  0.32520273  0.37244343  1
  In  In33  1  0.81844873  0.33199062  0.87468000  1
  In  In34  1  0.84393175  0.66218987  0.36852871  1
  In  In35  1  0.85291744  0.67224239  0.87625849  1
  In  In36  1  -0.00145299  0.14926322  0.37723234  1
  In  In37  1  -0.00244650  0.15548827  0.87633841  1
  In  In38  1  0.00476507  0.51593907  0.37428480  1
  In  In39  1  0.00393957  0.51812443  0.87840152  1
  In  In40  1  0.01395154  0.83849272  0.36670274  1
  In  In41  1  -0.01115759  0.83116993  0.88009092  1
  In  In42  1  0.35642106  0.18466502  0.35120887  1
  In  In43  1  0.33440716  0.18054904  0.87559576  1
  In  In44  1  0.35273532  0.48216206  0.40634189  1
  In  In45  1  0.32455371  0.49658393  0.87134861  1
  In  In46  1  0.32759353  0.83307608  0.37236323  1
  In  In47  1  0.34890807  0.83823114  0.87331025  1
  In  In48  1  0.66314761  0.16963897  0.37337328  1
  In  In49  1  0.66752296  0.16622163  0.87993179  1
  In  In50  1  0.65951043  0.47476742  0.37027923  1
  In  In51  1  0.67493132  0.49012677  0.87106161  1
  In  In52  1  0.65391212  0.85509415  0.36953222  1
  In  In53  1  0.66065963  0.84927900  0.88022077  1
  In  In54  1  0.16269880  -0.00196097  0.13096942  1
  In  In55  1  0.16684896  -0.01410606  0.62099001  1
  In  In56  1  0.17244803  0.34160490  0.12485511  1
  In  In57  1  0.17280093  0.35340767  0.61702436  1
  In  In58  1  0.16791851  0.64847012  0.12065477  1
  In  In59  1  0.16948670  0.66572558  0.62946505  1
  In  In60  1  0.50464473  0.00720358  0.13049545  1
  In  In61  1  0.50089346  0.01529462  0.62124765  1
  In  In62  1  0.51985855  0.30336256  0.15473370  1
  In  In63  1  0.49741335  0.33190639  0.62905695  1
  In  In64  1  0.48991255  0.66972040  0.12240534  1
  In  In65  1  0.49446334  0.64335889  0.61921949  1
  In  In66  1  0.83494828  -0.00084364  0.12252977  1
  In  In67  1  0.82186574  0.00707722  0.63396123  1
  In  In68  1  0.83550884  0.30714977  0.11789882  1
  In  In69  1  0.83215341  0.31358476  0.62430720  1
  In  In70  1  0.83822684  0.68299448  0.11961993  1
  In  In71  1  0.83949016  0.67772784  0.63172060  1
  In  In72  1  0.33468552  0.00238572  0.74395478  1
  In  In73  1  0.00387179  0.33505238  0.74416218  1
  In  In74  1  0.16548263  0.17411522  0.00349826  1
  In  In75  1  0.83158197  0.49467052  0.49466486  1
  In  In76  1  0.67143311  0.67124777  0.24585379  1
  In  In77  1  0.83659215  0.50017384  -0.00290678  1
  In  In78  1  0.32583955  0.66774410  0.25856513  1
  In  In79  1  0.00085469  0.32847931  0.24199256  1
  In  In80  1  0.83617973  0.83416571  0.50670356  1
  In  In81  1  0.48832814  0.83665343  0.49200422  1
  In  In82  1  0.48923607  0.49769579  0.00372520  1
  In  In83  1  0.16178933  0.83007685  -0.00390459  1
  In  In84  1  0.66643127  0.66358591  0.74900051  1
  In  In85  1  0.17356965  0.16655685  0.49593694  1
  Cu  Cu86  1  0.50696249  0.16596898  0.75161079  1
  Cu  Cu87  1  0.16346955  0.83310063  0.75181733  1
  Cu  Cu88  1  0.66746696  0.00523242  0.00467269  1
  Cu  Cu89  1  0.49273562  0.49402683  0.74853776  1
  Cu  Cu90  1  0.66100952  0.00766096  0.49839434  1
  Cu  Cu91  1  0.83318156  0.84133906  0.75766161  1
  Cu  Cu92  1  0.66753755  0.67704764  -0.00351388  1
  Cu  Cu93  1  -0.00182251  -0.00615797  0.49632852  1
  Cu  Cu94  1  0.00908172  0.67394129  0.50293854  1
  Cu  Cu95  1  0.34153259  0.00641784  0.00417377  1
  Cu  Cu96  1  0.33641538  0.00485437  0.48824343  1
  Cu  Cu97  1  0.16877800  0.50036827  0.25386205  1
  Cu  Cu98  1  0.16020685  0.16121755  0.25442449  1
  Cu  Cu99  1  0.16536625  0.17041661  0.74982795  1
  Cu  Cu100  1  0.33292455  0.66966405  -0.00037973  1
  Cu  Cu101  1  0.66408955  0.32586186  0.00519333  1
  Cu  Cu102  1  0.82855080  0.16135426  0.75233341  1
  Cu  Cu103  1  0.16152008  0.82272935  0.24730255  1
  Cu  Cu104  1  0.82799968  0.16168355  0.24704205  1
  Cu  Cu105  1  0.65770075  0.32410481  0.50027562  1
  Cu  Cu106  1  0.83548978  0.49700699  0.75234796  1
  Cu  Cu107  1  0.16856684  0.50613450  0.74770916  1
  Cu  Cu108  1  0.83899623  0.49752167  0.24823871  1
  Cu  Cu109  1  0.34103951  0.32962101  0.00538124  1
  Cu  Cu110  1  -0.00483095  0.32847499  0.49951504  1
  Cu  Cu111  1  0.66064651  0.65946503  0.49329383  1
  Cu  Cu112  1  0.83510994  0.83783510  0.24501197  1
  Cu  Cu113  1  0.50006200  0.83247859  0.74829276  1
  Cu  Cu114  1  0.49634711  0.49658942  0.25933974  1
  Se  Se115  1  0.07867520  0.07242533  0.05446105  1
  Se  Se116  1  0.07735347  0.07933005  0.55675538  1
  Se  Se117  1  0.08807431  0.40672264  0.04975198  1
  Se  Se118  1  0.07316599  0.41727105  0.55043432  1
  Se  Se119  1  0.07968200  0.74462670  0.06335414  1
  Se  Se120  1  0.08841392  0.75528042  0.56055265  1
  Se  Se121  1  0.42021329  0.09032221  0.05929409  1
  Se  Se122  1  0.41825599  0.08423581  0.54581086  1
  Se  Se123  1  0.42382471  0.40009824  0.07178256  1
  Se  Se124  1  0.43010115  0.42638811  0.56091702  1
  Se  Se125  1  0.41754772  0.75394144  0.04960951  1
  Se  Se126  1  0.41307384  0.74837836  0.56240049  1
  Se  Se127  1  0.75160039  0.08835683  0.05743613  1
  Se  Se128  1  0.74699869  0.08248744  0.55684939  1
  Se  Se129  1  0.74320664  0.41333876  0.06085097  1
  Se  Se130  1  0.74276657  0.40674954  0.55826354  1
  Se  Se131  1  0.75048024  0.75742075  0.05149188  1
  Se  Se132  1  0.73871501  0.73616885  0.55623901  1
  Se  Se133  1  0.26462469  0.24634027  0.06692961  1
  Se  Se134  1  0.26033894  0.25914129  0.55556044  1
  Se  Se135  1  0.25850984  0.57774018  0.05082233  1
  Se  Se136  1  0.23216626  0.56496709  0.56473700  1
  Se  Se137  1  0.25393731  0.92297420  0.05606100  1
  Se  Se138  1  0.25244486  0.92394553  0.54337566  1
  Se  Se139  1  0.57996360  0.24823457  0.06251085  1
  Se  Se140  1  0.57708559  0.24424936  0.55939294  1
  Se  Se141  1  0.58978678  0.59236545  0.05511178  1
  Se  Se142  1  0.57975062  0.57379202  0.54494267  1
  Se  Se143  1  0.58071392  0.92292735  0.05690686  1
  Se  Se144  1  0.58771184  0.91770966  0.55635784  1
  Se  Se145  1  0.93435539  0.26459041  0.04490754  1
  Se  Se146  1  0.90995020  0.24335445  0.54624152  1
  Se  Se147  1  0.92440173  0.58487796  0.06090258  1
  Se  Se148  1  0.91733145  0.59304378  0.55534251  1
  Se  Se149  1  0.90799475  0.90824440  0.05361597  1
  Se  Se150  1  0.92373329  0.92280431  0.56782000  1
  Se  Se151  1  0.07821797  0.25487648  0.43564316  1
  Se  Se152  1  0.08487057  0.25719068  0.93247156  1
  Se  Se153  1  0.08621639  0.58593935  0.44920909  1
  Se  Se154  1  0.08965043  0.58313244  0.95234653  1
  Se  Se155  1  0.08574467  0.91345748  0.44587837  1
  Se  Se156  1  0.07323535  0.92896618  0.94433459  1
  Se  Se157  1  0.40714186  0.24472404  0.44284585  1
  Se  Se158  1  0.42186760  0.24660475  0.94992406  1
  Se  Se159  1  0.40704453  0.60100838  0.45599354  1
  Se  Se160  1  0.41550886  0.59290058  0.93627447  1
  Se  Se161  1  0.42066142  0.93366688  0.42458665  1
  Se  Se162  1  0.41918351  0.91883902  0.94908691  1
  Se  Se163  1  0.74682290  0.24469871  0.44873486  1
  Se  Se164  1  0.75159685  0.24858839  0.95064736  1
  Se  Se165  1  0.74223164  0.58393176  0.43162561  1
  Se  Se166  1  0.74285696  0.59214885  0.93708614  1
  Se  Se167  1  0.74504640  0.92253192  0.44472100  1
  Se  Se168  1  0.74964513  0.92053175  0.94997543  1
  Se  Se169  1  0.25706428  0.08508856  0.42684756  1
  Se  Se170  1  0.25699063  0.07941017  0.94136377  1
  Se  Se171  1  0.23546872  0.42849422  0.45944779  1
  Se  Se172  1  0.25999300  0.41442351  0.95100619  1
  Se  Se173  1  0.26618814  0.74944580  0.44919865  1
  Se  Se174  1  0.25685395  0.74711191  0.93486821  1
  Se  Se175  1  0.57715963  0.08197928  0.43865523  1
  Se  Se176  1  0.58227208  0.08788989  0.95102828  1
  Se  Se177  1  0.57782621  0.41056894  0.44703432  1
  Se  Se178  1  0.58926490  0.41267365  0.94541389  1
  Se  Se179  1  0.58856955  0.74803192  0.43507054  1
  Se  Se180  1  0.58006141  0.76087363  0.94803684  1
  Se  Se181  1  0.91116050  0.08004226  0.45049530  1
  Se  Se182  1  0.91183171  0.09401737  0.95128761  1
  Se  Se183  1  0.92142726  0.40782395  0.43182221  1
  Se  Se184  1  0.92190221  0.41191327  0.93311226  1
  Se  Se185  1  0.92406955  0.74777200  0.44181877  1
  Se  Se186  1  0.91953937  0.74708313  0.95474126  1
  Se  Se187  1  0.24156871  0.25205528  0.30129178  1
  Se  Se188  1  0.25451812  0.25072316  0.79816981  1
  Se  Se189  1  0.25024919  0.57022663  0.31993163  1
  Se  Se190  1  0.25094719  0.58869380  0.80368348  1
  Se  Se191  1  0.24374479  0.90787251  0.30021181  1
  Se  Se192  1  0.24472432  0.91685373  0.81002759  1
  Se  Se193  1  0.58475866  0.25386135  0.30352142  1
  Se  Se194  1  0.58553834  0.25003949  0.80914848  1
  Se  Se195  1  0.58070573  0.58372208  0.31124838  1
  Se  Se196  1  0.57419800  0.57401761  0.81064483  1
  Se  Se197  1  0.58789950  0.91764731  0.28568213  1
  Se  Se198  1  0.57920191  0.91764815  0.80274877  1
  Se  Se199  1  0.91265115  0.24119422  0.30768844  1
  Se  Se200  1  0.91255426  0.24835525  0.80630775  1
  Se  Se201  1  0.92282563  0.58319852  0.29634238  1
  Se  Se202  1  0.91775169  0.58317853  0.80196137  1
  Se  Se203  1  0.91969228  0.91589625  0.30376255  1
  Se  Se204  1  0.91665970  0.92314783  0.81161725  1
  Se  Se205  1  0.07561099  0.07508911  0.30199908  1
  Se  Se206  1  0.07928296  0.08691103  0.79828528  1
  Se  Se207  1  0.08542359  0.41557328  0.31091958  1
  Se  Se208  1  0.09030998  0.42242215  0.80909302  1
  Se  Se209  1  0.08781187  0.73765953  0.30653903  1
  Se  Se210  1  0.07948659  0.75613511  0.81024644  1
  Se  Se211  1  0.39966045  0.06654950  0.29458254  1
  Se  Se212  1  0.42151321  0.08627506  0.81083838  1
  Se  Se213  1  0.41215557  0.42050676  0.31692035  1
  Se  Se214  1  0.41136441  0.41292110  0.80637703  1
  Se  Se215  1  0.42749626  0.76215795  0.30127298  1
  Se  Se216  1  0.41401050  0.74996309  0.79814712  1
  Se  Se217  1  0.74813115  0.08206525  0.30640833  1
  Se  Se218  1  0.74676137  0.08101783  0.80978173  1
  Se  Se219  1  0.75295877  0.41413248  0.29740939  1
  Se  Se220  1  0.74807557  0.41067851  0.79622513  1
  Se  Se221  1  0.75685258  0.76169316  0.31200811  1
  Se  Se222  1  0.75070587  0.75365118  0.81334187  1
  Se  Se223  1  0.24422066  0.07641795  0.20185334  1
  Se  Se224  1  0.24298608  0.09174573  0.68374772  1
  Se  Se225  1  0.25099848  0.41542179  0.20160140  1
  Se  Se226  1  0.24913790  0.41548731  0.69900268  1
  Se  Se227  1  0.24665085  0.75133697  0.18389357  1
  Se  Se228  1  0.24978417  0.75402885  0.69826155  1
  Se  Se229  1  0.57290086  0.09731527  0.20300858  1
  Se  Se230  1  0.58495654  0.07777592  0.69866887  1
  Se  Se231  1  0.58543798  0.41742837  0.20737893  1
  Se  Se232  1  0.58289054  0.41159629  0.70158767  1
  Se  Se233  1  0.57831950  0.75550304  0.18637815  1
  Se  Se234  1  0.57572360  0.75010351  0.68487301  1
  Se  Se235  1  0.91689093  0.08429330  0.19334015  1
  Se  Se236  1  0.91685692  0.08262454  0.69897014  1
  Se  Se237  1  0.91047896  0.41774114  0.18138518  1
  Se  Se238  1  0.91069126  0.42271616  0.68303075  1
  Se  Se239  1  0.91760782  0.74707967  0.19931840  1
  Se  Se240  1  0.91526577  0.75239837  0.70690133  1
  Se  Se241  1  0.08953877  0.23647805  0.18343206  1
  Se  Se242  1  0.09161848  0.24647359  0.68046062  1
  Se  Se243  1  0.08594394  0.57953040  0.19777207  1
  Se  Se244  1  0.07921248  0.59105355  0.70166033  1
  Se  Se245  1  0.08030425  0.91248673  0.19747688  1
  Se  Se246  1  0.08393919  0.92108492  0.69896080  1
  Se  Se247  1  0.39532615  0.26574308  0.20425354  1
  Se  Se248  1  0.41759412  0.24554365  0.69982105  1
  Se  Se249  1  0.42084948  0.57633604  0.19583918  1
  Se  Se250  1  0.41315118  0.58387849  0.69919836  1
  Se  Se251  1  0.41238111  0.92730840  0.19659553  1
  Se  Se252  1  0.42242585  0.91040684  0.68293360  1
  Se  Se253  1  0.74936732  0.25087265  0.19588193  1
  Se  Se254  1  0.74715005  0.24731762  0.69899258  1
  Se  Se255  1  0.75908406  0.57757243  0.18494324  1
  Se  Se256  1  0.75475191  0.57317097  0.68598356  1
  Se  Se257  1  0.75008595  0.92270297  0.19620743  1
  Se  Se258  1  0.74528774  0.91900242  0.70398172  1
