# generated using pymatgen
data_In86Cu29Se144
_symmetry_space_group_name_H-M   'P 1'
_cell_length_a   17.58219462
_cell_length_b   17.58641155
_cell_length_c   23.44488361
_cell_angle_alpha   90.00948944
_cell_angle_beta   90.02217061
_cell_angle_gamma   90.01871192
_symmetry_Int_Tables_number   1
_chemical_formula_structural   In86Cu29Se144
_chemical_formula_sum   'In86 Cu29 Se144'
_cell_volume   7249.33775857
_cell_formula_units_Z   1
loop_
 _symmetry_equiv_pos_site_id
 _symmetry_equiv_pos_as_xyz
  1  'x, y, z'
loop_
 _atom_site_type_symbol
 _atom_site_label
 _atom_site_symmetry_multiplicity
 _atom_site_fract_x
 _atom_site_fract_y
 _atom_site_fract_z
 _atom_site_occupancy
  In  In0  1  0.00826305  0.18390179  0.11336217  1
  In  In1  1  -0.00143932  0.15557876  0.60715839  1
  In  In2  1  0.00721359  0.50442492  0.12333479  1
  In  In3  1  0.01205578  0.49367105  0.62659681  1
  In  In4  1  0.00044282  0.81594978  0.13053156  1
  In  In5  1  -0.01335196  0.83320482  0.62562450  1
  In  In6  1  0.32496634  0.15895185  0.12350961  1
  In  In7  1  0.33590263  0.16974427  0.62038852  1
  In  In8  1  0.31386212  0.50493720  0.11745690  1
  In  In9  1  0.31866706  0.50771188  0.63242425  1
  In  In10  1  0.34212024  0.83904663  0.11198134  1
  In  In11  1  0.32394194  0.82238967  0.62868546  1
  In  In12  1  0.67218362  0.16229416  0.11809060  1
  In  In13  1  0.65390934  0.16315995  0.61943432  1
  In  In14  1  0.66423931  0.48231759  0.12539545  1
  In  In15  1  0.67733864  0.50263196  0.62748098  1
  In  In16  1  0.65978728  0.84964243  0.12215348  1
  In  In17  1  0.67262109  0.83189663  0.63338536  1
  In  In18  1  0.18252497  -0.00117344  0.36957833  1
  In  In19  1  0.16757730  0.00049226  0.88360725  1
  In  In20  1  0.15451091  0.34174819  0.37567153  1
  In  In21  1  0.17241785  0.32347583  0.88851367  1
  In  In22  1  0.15737479  0.66923422  0.37654327  1
  In  In23  1  0.16899429  0.66403857  0.87285707  1
  In  In24  1  0.51565243  0.00946827  0.36310621  1
  In  In25  1  0.51351545  -0.01061428  0.88607612  1
  In  In26  1  0.50636419  0.31683360  0.37537151  1
  In  In27  1  0.48389920  0.33443963  0.87519941  1
  In  In28  1  0.49471282  0.66328717  0.37751913  1
  In  In29  1  0.50953736  0.66949177  0.86850569  1
  In  In30  1  0.82070626  0.01778525  0.38458182  1
  In  In31  1  0.83050722  0.00952299  0.87843738  1
  In  In32  1  0.82637380  0.31755670  0.36336973  1
  In  In33  1  0.84649253  0.33494049  0.88872488  1
  In  In34  1  0.84973641  0.66020902  0.37918798  1
  In  In35  1  0.82601391  0.66127078  0.87324806  1
  In  In36  1  -0.01392920  0.17478531  0.37929751  1
  In  In37  1  0.00190379  0.16821320  0.89074272  1
  In  In38  1  0.01194141  0.50142213  0.36385217  1
  In  In39  1  -0.00746981  0.50232552  0.88816672  1
  In  In40  1  -0.00044287  0.82266430  0.37559049  1
  In  In41  1  0.01857792  0.82683732  0.87885468  1
  In  In42  1  0.34651255  0.16271127  0.37703654  1
  In  In43  1  0.33034167  0.17219001  0.87864006  1
  In  In44  1  0.32480305  0.49597583  0.37675216  1
  In  In45  1  0.32691296  0.48720384  0.86993924  1
  In  In46  1  0.32177785  0.83662101  0.37232993  1
  In  In47  1  0.34606236  0.81627427  0.88773422  1
  In  In48  1  0.67276438  0.16647373  0.37211802  1
  In  In49  1  0.67307230  0.15640433  0.88166034  1
  In  In50  1  0.68239576  0.49663034  0.37119375  1
  In  In51  1  0.66750091  0.51179040  0.87784077  1
  In  In52  1  0.66248682  0.85035455  0.37520663  1
  In  In53  1  0.66218581  0.82954544  0.87287458  1
  In  In54  1  0.17535761  0.01145145  0.12358323  1
  In  In55  1  0.15513820  0.00504254  0.62039280  1
  In  In56  1  0.15936585  0.33618832  0.12211395  1
  In  In57  1  0.16617431  0.33835299  0.61794449  1
  In  In58  1  0.15743560  0.65096325  0.10478642  1
  In  In59  1  0.17515434  0.64914717  0.63664728  1
  In  In60  1  0.50154234  0.00167636  0.11722096  1
  In  In61  1  0.50018248  0.01714080  0.62563188  1
  In  In62  1  0.52030551  0.32925914  0.12798521  1
  In  In63  1  0.49240200  0.31482350  0.62376995  1
  In  In64  1  0.47899011  0.67176746  0.11496048  1
  In  In65  1  0.49656420  0.66927183  0.63391418  1
  In  In66  1  0.81108331  0.00904837  0.12880987  1
  In  In67  1  0.82912006  -0.00885825  0.61857104  1
  In  In68  1  0.83418632  0.33084338  0.11987515  1
  In  In69  1  0.84165902  0.32983043  0.61969265  1
  In  In70  1  0.85249685  0.66682553  0.12695499  1
  In  In71  1  0.82465228  0.67465788  0.63487811  1
  In  In72  1  0.00334046  0.33347197  0.75106042  1
  In  In73  1  -0.00318658  -0.00390733  0.74997882  1
  In  In74  1  0.67203663  0.66982787  0.24469595  1
  In  In75  1  0.32892686  0.33408404  0.24302949  1
  In  In76  1  0.16158494  0.83681977  0.50246145  1
  In  In77  1  0.83935047  0.49332813  0.50166388  1
  In  In78  1  0.66263845  0.33708769  0.74913870  1
  In  In79  1  0.49675782  0.83718370  0.50820826  1
  In  In80  1  -0.00619724  0.00467772  0.25382789  1
  In  In81  1  0.33590977  -0.00323130  0.74975950  1
  In  In82  1  0.49729384  0.49369768  0.49459179  1
  In  In83  1  0.32658369  0.67101747  0.24498526  1
  In  In84  1  0.83351506  0.83782221  0.00793954  1
  In  In85  1  0.50070540  0.49779974  0.00006264  1
  Cu  Cu86  1  0.66865521  0.66790630  -0.00269811  1
  Cu  Cu87  1  0.83158543  0.83232257  0.75272683  1
  Cu  Cu88  1  -0.00113211  0.33005672  0.49432525  1
  Cu  Cu89  1  0.49511234  0.49974021  0.75348334  1
  Cu  Cu90  1  -0.00134686  0.00033644  0.00697112  1
  Cu  Cu91  1  0.00086152  0.66502720  0.50110165  1
  Cu  Cu92  1  0.50300758  0.83330103  0.75566304  1
  Cu  Cu93  1  0.00360433  0.66547090  0.00010860  1
  Cu  Cu94  1  0.50652327  0.15801280  0.24861468  1
  Cu  Cu95  1  0.84363313  0.49060002  0.24690510  1
  Cu  Cu96  1  0.34103205  0.00384775  0.49564106  1
  Cu  Cu97  1  0.17016372  0.82373710  0.75582887  1
  Cu  Cu98  1  0.49580571  0.84295768  0.24229790  1
  Cu  Cu99  1  0.33033890  0.00836347  0.00017010  1
  Cu  Cu100  1  0.67192330  0.00814821  0.49636688  1
  Cu  Cu101  1  0.83103907  0.50826816  0.75710388  1
  Cu  Cu102  1  0.83025463  0.17069847  0.24631602  1
  Cu  Cu103  1  0.67277366  0.32675685  0.00119686  1
  Cu  Cu104  1  0.49946022  0.16434718  0.74922237  1
  Cu  Cu105  1  0.16622729  0.17250025  0.24663202  1
  Cu  Cu106  1  0.50057910  0.49580743  0.24839872  1
  Cu  Cu107  1  0.16855686  0.83399771  0.24588219  1
  Cu  Cu108  1  0.16616055  0.17312875  0.75393696  1
  Cu  Cu109  1  0.33261955  0.33179942  0.00350685  1
  Cu  Cu110  1  0.82865532  0.16436719  0.75292264  1
  Cu  Cu111  1  0.16467925  0.49727499  0.75338626  1
  Cu  Cu112  1  0.66803107  0.67496109  0.50923522  1
  Cu  Cu113  1  0.32818841  0.33202253  0.49887698  1
  Cu  Cu114  1  0.83211343  0.83304859  0.25006341  1
  Se  Se115  1  0.08649855  0.08591651  0.05438949  1
  Se  Se116  1  0.09641569  0.08805942  0.54337955  1
  Se  Se117  1  0.10366864  0.43799760  0.05487446  1
  Se  Se118  1  0.07935941  0.41630093  0.54817507  1
  Se  Se119  1  0.08198328  0.75693396  0.05015059  1
  Se  Se120  1  0.08024830  0.74204339  0.56541696  1
  Se  Se121  1  0.41573414  0.09006377  0.05315512  1
  Se  Se122  1  0.42069735  0.08919298  0.55069936  1
  Se  Se123  1  0.41384444  0.40944385  0.06593977  1
  Se  Se124  1  0.40704922  0.41261240  0.56141899  1
  Se  Se125  1  0.40794284  0.74732247  0.03949095  1
  Se  Se126  1  0.40586884  0.73785410  0.55684670  1
  Se  Se127  1  0.74407636  0.07460353  0.04609968  1
  Se  Se128  1  0.75079109  0.08705571  0.55722451  1
  Se  Se129  1  0.75040978  0.41814203  0.05102364  1
  Se  Se130  1  0.74026082  0.40579281  0.55585987  1
  Se  Se131  1  0.74433036  0.74225518  0.06608438  1
  Se  Se132  1  0.75437082  0.75710937  0.55870781  1
  Se  Se133  1  0.24790146  0.25140427  0.05865723  1
  Se  Se134  1  0.24670202  0.24766413  0.55367362  1
  Se  Se135  1  0.27788881  0.61129550  0.04834003  1
  Se  Se136  1  0.23793965  0.57511904  0.55536229  1
  Se  Se137  1  0.24748498  0.92312077  0.05272215  1
  Se  Se138  1  0.26242541  0.92564975  0.55904814  1
  Se  Se139  1  0.58358812  0.24686393  0.05086590  1
  Se  Se140  1  0.58359023  0.25562320  0.55201513  1
  Se  Se141  1  0.58969076  0.58961303  0.06242275  1
  Se  Se142  1  0.58519631  0.58743879  0.55978938  1
  Se  Se143  1  0.57175366  0.90808568  0.04822249  1
  Se  Se144  1  0.59257889  0.92853848  0.56053478  1
  Se  Se145  1  0.90363063  0.23964224  0.04954222  1
  Se  Se146  1  0.91425638  0.24788928  0.54703937  1
  Se  Se147  1  0.91793732  0.58283612  0.05189615  1
  Se  Se148  1  0.92017828  0.58832069  0.56518934  1
  Se  Se149  1  0.92190350  0.92422318  0.07231913  1
  Se  Se150  1  0.93749726  0.93456487  0.55721335  1
  Se  Se151  1  0.08486917  0.24730212  0.44308896  1
  Se  Se152  1  0.07855938  0.25601440  0.95562879  1
  Se  Se153  1  0.07842740  0.58203547  0.44401091  1
  Se  Se154  1  0.08899991  0.58385409  0.94672118  1
  Se  Se155  1  0.08153260  0.92356062  0.43466809  1
  Se  Se156  1  0.08064390  0.92014767  0.95057925  1
  Se  Se157  1  0.41774844  0.25185925  0.44879300  1
  Se  Se158  1  0.41641707  0.25022311  0.94997585  1
  Se  Se159  1  0.40178285  0.59120942  0.44562981  1
  Se  Se160  1  0.41781281  0.58044505  0.93213207  1
  Se  Se161  1  0.41772506  0.92130793  0.43538094  1
  Se  Se162  1  0.41109293  0.92198107  0.94728887  1
  Se  Se163  1  0.75772689  0.24494889  0.44193644  1
  Se  Se164  1  0.75542760  0.24610655  0.94516176  1
  Se  Se165  1  0.74475069  0.59171663  0.44758975  1
  Se  Se166  1  0.75415021  0.58150241  0.95076048  1
  Se  Se167  1  0.75071646  0.91536686  0.44819948  1
  Se  Se168  1  0.74364928  0.91951811  0.94335939  1
  Se  Se169  1  0.25452276  0.08361396  0.44251342  1
  Se  Se170  1  0.24559665  0.09197830  0.94769279  1
  Se  Se171  1  0.24491302  0.41567273  0.44634396  1
  Se  Se172  1  0.25255263  0.41885333  0.95081559  1
  Se  Se173  1  0.25461192  0.74511845  0.44504597  1
  Se  Se174  1  0.22311788  0.77310431  0.93624475  1
  Se  Se175  1  0.58461167  0.08544948  0.44166028  1
  Se  Se176  1  0.56881941  0.09920771  0.94552730  1
  Se  Se177  1  0.59565490  0.41059505  0.43819819  1
  Se  Se178  1  0.59144294  0.40644533  0.93900669  1
  Se  Se179  1  0.58694944  0.74624940  0.44353459  1
  Se  Se180  1  0.58314621  0.74827702  0.94527085  1
  Se  Se181  1  0.92124083  0.08023616  0.44802347  1
  Se  Se182  1  0.91497824  0.07999642  0.95150545  1
  Se  Se183  1  0.92091475  0.41108947  0.43174400  1
  Se  Se184  1  0.92739060  0.41070180  0.95902370  1
  Se  Se185  1  0.91679830  0.75080572  0.45123455  1
  Se  Se186  1  0.91828757  0.74745074  0.94301442  1
  Se  Se187  1  0.24879335  0.24661149  0.31124535  1
  Se  Se188  1  0.24874472  0.25449150  0.80784822  1
  Se  Se189  1  0.24108266  0.57951390  0.30671510  1
  Se  Se190  1  0.25165545  0.58027729  0.80380455  1
  Se  Se191  1  0.25584468  0.91708636  0.29469615  1
  Se  Se192  1  0.24621402  0.91159924  0.81235385  1
  Se  Se193  1  0.58727832  0.24579797  0.30053882  1
  Se  Se194  1  0.57711599  0.24668251  0.81106181  1
  Se  Se195  1  0.57939189  0.57919103  0.30775375  1
  Se  Se196  1  0.58672916  0.57971770  0.80084778  1
  Se  Se197  1  0.58779957  0.91726406  0.29463535  1
  Se  Se198  1  0.58562693  0.92030987  0.80448772  1
  Se  Se199  1  0.92249317  0.24886649  0.29606042  1
  Se  Se200  1  0.91324871  0.24118021  0.81065327  1
  Se  Se201  1  0.91708251  0.58147156  0.30167500  1
  Se  Se202  1  0.92106409  0.58237965  0.81102328  1
  Se  Se203  1  0.90670119  0.91395118  0.31461433  1
  Se  Se204  1  0.91262016  0.90765737  0.81647069  1
  Se  Se205  1  0.08933719  0.09228177  0.31089272  1
  Se  Se206  1  0.08476125  0.09000050  0.81054125  1
  Se  Se207  1  0.08320904  0.41046388  0.29575815  1
  Se  Se208  1  0.08786637  0.41801520  0.81704171  1
  Se  Se209  1  0.08655389  0.75346527  0.30241327  1
  Se  Se210  1  0.07917259  0.74159402  0.80169702  1
  Se  Se211  1  0.41579841  0.08067549  0.30032872  1
  Se  Se212  1  0.42168516  0.08476617  0.81267526  1
  Se  Se213  1  0.42203246  0.41759213  0.31092737  1
  Se  Se214  1  0.41149258  0.41007028  0.79785506  1
  Se  Se215  1  0.42436064  0.75837421  0.30610866  1
  Se  Se216  1  0.41622625  0.74939781  0.80407656  1
  Se  Se217  1  0.75140064  0.08206046  0.30019332  1
  Se  Se218  1  0.74650158  0.07959366  0.80353261  1
  Se  Se219  1  0.75267612  0.41383540  0.29799659  1
  Se  Se220  1  0.75817966  0.41745466  0.81402795  1
  Se  Se221  1  0.75470801  0.75255900  0.31512472  1
  Se  Se222  1  0.74742801  0.74791707  0.80539593  1
  Se  Se223  1  0.25136501  0.08425205  0.20202460  1
  Se  Se224  1  0.24074459  0.08709707  0.69336075  1
  Se  Se225  1  0.23663831  0.43129836  0.19551983  1
  Se  Se226  1  0.24227788  0.41142520  0.69597874  1
  Se  Se227  1  0.24473716  0.75876650  0.18007189  1
  Se  Se228  1  0.25378855  0.74093056  0.70283662  1
  Se  Se229  1  0.58719869  0.08035213  0.18835144  1
  Se  Se230  1  0.58772154  0.08352630  0.69945653  1
  Se  Se231  1  0.58968669  0.41091247  0.20440840  1
  Se  Se232  1  0.57176716  0.42370495  0.68624671  1
  Se  Se233  1  0.57017165  0.75042166  0.18710174  1
  Se  Se234  1  0.58501261  0.75001297  0.69860707  1
  Se  Se235  1  0.91332812  0.09235994  0.18593652  1
  Se  Se236  1  0.91300499  0.09122034  0.69018025  1
  Se  Se237  1  0.92226020  0.41325029  0.18657020  1
  Se  Se238  1  0.90592300  0.42509438  0.69473321  1
  Se  Se239  1  0.91871423  0.74570684  0.20656776  1
  Se  Se240  1  0.91741497  0.75026595  0.70115591  1
  Se  Se241  1  0.08185395  0.25344125  0.19452882  1
  Se  Se242  1  0.08270234  0.23942684  0.68653410  1
  Se  Se243  1  0.08053568  0.60052458  0.18908727  1
  Se  Se244  1  0.07714060  0.57896173  0.70235139  1
  Se  Se245  1  0.08420452  0.91738162  0.19070063  1
  Se  Se246  1  0.09406947  0.90627551  0.69380024  1
  Se  Se247  1  0.42541458  0.24226296  0.19020070  1
  Se  Se248  1  0.41030963  0.24459380  0.69924794  1
  Se  Se249  1  0.41916979  0.57298705  0.18959948  1
  Se  Se250  1  0.41253867  0.58286373  0.69791701  1
  Se  Se251  1  0.41295385  0.92215662  0.18726263  1
  Se  Se252  1  0.42666923  0.90734867  0.68690749  1
  Se  Se253  1  0.74690771  0.25056718  0.18928706  1
  Se  Se254  1  0.75543367  0.24758511  0.69069699  1
  Se  Se255  1  0.75926829  0.57286245  0.18872249  1
  Se  Se256  1  0.74513512  0.58640769  0.70224522  1
  Se  Se257  1  0.74625028  0.91373952  0.19871811  1
  Se  Se258  1  0.75432611  0.92084097  0.69866965  1
