# generated using pymatgen
data_In86Cu29Se144
_symmetry_space_group_name_H-M   'P 1'
_cell_length_a   17.57206894
_cell_length_b   17.57178872
_cell_length_c   23.43698739
_cell_angle_alpha   90.01933498
_cell_angle_beta   90.00641038
_cell_angle_gamma   90.00425980
_symmetry_Int_Tables_number   1
_chemical_formula_structural   In86Cu29Se144
_chemical_formula_sum   'In86 Cu29 Se144'
_cell_volume   7236.70099622
_cell_formula_units_Z   1
loop_
 _symmetry_equiv_pos_site_id
 _symmetry_equiv_pos_as_xyz
  1  'x, y, z'
loop_
 _atom_site_type_symbol
 _atom_site_label
 _atom_site_symmetry_multiplicity
 _atom_site_fract_x
 _atom_site_fract_y
 _atom_site_fract_z
 _atom_site_occupancy
  In  In0  1  0.00889901  0.16493648  0.14092420  1
  In  In1  1  0.00979214  0.17093585  0.61874897  1
  In  In2  1  -0.00094490  0.50120107  0.12534831  1
  In  In3  1  0.00413610  0.50684441  0.61912476  1
  In  In4  1  -0.00204592  0.82570033  0.12777466  1
  In  In5  1  -0.00582040  0.82187225  0.62123765  1
  In  In6  1  0.31674329  0.16031447  0.13455893  1
  In  In7  1  0.34833103  0.16371836  0.62083406  1
  In  In8  1  0.34591853  0.51654952  0.12239972  1
  In  In9  1  0.32042630  0.50653002  0.62495593  1
  In  In10  1  0.33122549  0.82922603  0.12941546  1
  In  In11  1  0.33446180  0.83472389  0.61490548  1
  In  In12  1  0.66173877  0.17342027  0.13168719  1
  In  In13  1  0.65734260  0.17002836  0.62758937  1
  In  In14  1  0.65459529  0.48903170  0.10649462  1
  In  In15  1  0.66718241  0.49046617  0.62412088  1
  In  In16  1  0.67649464  0.83062777  0.11324322  1
  In  In17  1  0.66745084  0.84639289  0.62680696  1
  In  In18  1  0.14977766  -0.02084029  0.36165646  1
  In  In19  1  0.15695747  -0.00939571  0.87925181  1
  In  In20  1  0.16666259  0.34948308  0.37542580  1
  In  In21  1  0.18190602  0.33347041  0.87411934  1
  In  In22  1  0.16655976  0.66608715  0.36942256  1
  In  In23  1  0.15944948  0.67158776  0.88170246  1
  In  In24  1  0.49979294  -0.00158641  0.37038265  1
  In  In25  1  0.50670023  -0.01387781  0.88093686  1
  In  In26  1  0.49498690  0.32148253  0.37368791  1
  In  In27  1  0.51538973  0.34857177  0.86857264  1
  In  In28  1  0.51125837  0.68328961  0.37308233  1
  In  In29  1  0.51929809  0.65698712  0.89920021  1
  In  In30  1  0.83646235  0.00139189  0.36352255  1
  In  In31  1  0.82014647  0.00468615  0.87612841  1
  In  In32  1  0.84364557  0.34241473  0.36701453  1
  In  In33  1  0.82325497  0.35015837  0.87823318  1
  In  In34  1  0.82770398  0.64814327  0.37407210  1
  In  In35  1  0.84487798  0.65239528  0.88722073  1
  In  In36  1  0.00012779  0.16039041  0.36278727  1
  In  In37  1  -0.00116200  0.16189321  0.87665325  1
  In  In38  1  -0.00052594  0.50421322  0.37033975  1
  In  In39  1  -0.01119989  0.51293720  0.88523975  1
  In  In40  1  0.01064650  0.83931659  0.36595535  1
  In  In41  1  0.00928697  0.82043980  0.88299882  1
  In  In42  1  0.34864317  0.16675103  0.37646834  1
  In  In43  1  0.32632101  0.17632697  0.87473198  1
  In  In44  1  0.32233812  0.49549017  0.37200961  1
  In  In45  1  0.34267156  0.49465281  0.88237261  1
  In  In46  1  0.33426312  0.82938037  0.36938599  1
  In  In47  1  0.34050778  0.82408495  0.88544586  1
  In  In48  1  0.65818163  0.15787273  0.36659506  1
  In  In49  1  0.66968518  0.16710936  0.86819476  1
  In  In50  1  0.68427672  0.50966782  0.37424371  1
  In  In51  1  0.68622231  0.49007018  0.90125534  1
  In  In52  1  0.64925609  0.82862462  0.37435907  1
  In  In53  1  0.66501496  0.83693009  0.88356597  1
  In  In54  1  0.17545759  -0.00987639  0.14183363  1
  In  In55  1  0.17670543  -0.00096594  0.61485696  1
  In  In56  1  0.15481007  0.33192976  0.12797147  1
  In  In57  1  0.16166456  0.35021687  0.62379646  1
  In  In58  1  0.16621226  0.66482425  0.12780622  1
  In  In59  1  0.15855948  0.65989249  0.61589422  1
  In  In60  1  0.50827173  -0.01078606  0.13459276  1
  In  In61  1  0.50097582  0.00530337  0.61622966  1
  In  In62  1  0.50986352  0.35270254  0.12599223  1
  In  In63  1  0.51013052  0.32836417  0.62973987  1
  In  In64  1  0.49042395  0.65476491  0.12000785  1
  In  In65  1  0.49142629  0.66998194  0.62083439  1
  In  In66  1  0.84216051  -0.00974859  0.13285690  1
  In  In67  1  0.82741887  -0.01186075  0.62434551  1
  In  In68  1  0.82236608  0.34833102  0.12760809  1
  In  In69  1  0.81886232  0.33425203  0.62451795  1
  In  In70  1  0.83239835  0.66979608  0.11718455  1
  In  In71  1  0.84815211  0.66977107  0.62758662  1
  In  In72  1  0.83193398  0.16607733  0.48683342  1
  In  In73  1  0.66463292  0.66371804  0.24433157  1
  In  In74  1  0.16352106  0.16389447  0.00430811  1
  In  In75  1  0.67291451  0.66073033  0.75740765  1
  In  In76  1  0.17122179  0.16454821  0.48876685  1
  In  In77  1  0.83318804  0.82987786  0.49797546  1
  In  In78  1  0.33505231  0.66828560  0.75380832  1
  In  In79  1  0.83672039  0.17018406  0.00054139  1
  In  In80  1  0.50039579  0.50351924  0.49875672  1
  In  In81  1  0.33414666  0.33436916  0.24872584  1
  In  In82  1  0.34123581  -0.00016402  0.75445120  1
  In  In83  1  -0.01086715  0.34491395  0.75882278  1
  In  In84  1  -0.00451756  -0.00278873  0.74403892  1
  In  In85  1  0.49576537  0.17030134  0.01069225  1
  Cu  Cu86  1  0.83448642  0.83302600  0.75079781  1
  Cu  Cu87  1  -0.00620140  0.34335360  0.49579648  1
  Cu  Cu88  1  0.00331649  0.66502890  0.00709520  1
  Cu  Cu89  1  0.00070168  -0.01757197  0.00959819  1
  Cu  Cu90  1  0.66319222  0.33193295  0.50143304  1
  Cu  Cu91  1  0.82471345  0.16861869  0.74710937  1
  Cu  Cu92  1  0.16292127  0.50257010  0.24896175  1
  Cu  Cu93  1  0.83625589  0.49701917  0.24609313  1
  Cu  Cu94  1  0.16423172  0.82663329  0.75157363  1
  Cu  Cu95  1  -0.00318828  0.33773822  0.00640992  1
  Cu  Cu96  1  0.33277117  0.33473349  0.49832256  1
  Cu  Cu97  1  0.16607969  0.82410223  0.24704358  1
  Cu  Cu98  1  0.50367350  0.16719137  0.74663601  1
  Cu  Cu99  1  0.17120524  0.17488028  0.74835465  1
  Cu  Cu100  1  0.50902009  0.83445692  0.75569129  1
  Cu  Cu101  1  0.50182576  0.16441220  0.24899399  1
  Cu  Cu102  1  0.83186901  0.82878952  0.24443347  1
  Cu  Cu103  1  0.33466895  -0.01194615  0.49115367  1
  Cu  Cu104  1  0.83035077  0.17029275  0.24722242  1
  Cu  Cu105  1  0.33669683  0.34369567  0.00041439  1
  Cu  Cu106  1  0.32730907  -0.00838532  0.00929048  1
  Cu  Cu107  1  0.49747127  0.83592229  0.24789767  1
  Cu  Cu108  1  0.33146248  0.67239741  0.49471166  1
  Cu  Cu109  1  0.66062366  0.00047252  0.49633021  1
  Cu  Cu110  1  0.00574936  0.66796275  0.49442787  1
  Cu  Cu111  1  0.32439901  0.67035714  0.00459395  1
  Cu  Cu112  1  0.67028632  0.00175111  0.00430163  1
  Cu  Cu113  1  0.50200382  0.49141831  0.75648571  1
  Cu  Cu114  1  0.16434294  0.50414118  0.74709495  1
  Se  Se115  1  0.07845653  0.07161957  0.06498963  1
  Se  Se116  1  0.07749473  0.07564948  0.55013384  1
  Se  Se117  1  0.08539118  0.41863396  0.05568716  1
  Se  Se118  1  0.08290294  0.42179021  0.54839836  1
  Se  Se119  1  0.08639498  0.75042538  0.05783813  1
  Se  Se120  1  0.08406856  0.75385403  0.55003643  1
  Se  Se121  1  0.40569708  0.07566414  0.06653353  1
  Se  Se122  1  0.41218992  0.07766407  0.54553937  1
  Se  Se123  1  0.42095586  0.42290424  0.05522261  1
  Se  Se124  1  0.41154042  0.41399223  0.56241287  1
  Se  Se125  1  0.41251063  0.75047049  0.05701845  1
  Se  Se126  1  0.41869706  0.75220584  0.54767064  1
  Se  Se127  1  0.74897075  0.08232646  0.06444347  1
  Se  Se128  1  0.74521185  0.07915159  0.55517203  1
  Se  Se129  1  0.75899851  0.42171192  0.04574965  1
  Se  Se130  1  0.74960472  0.41685840  0.54896976  1
  Se  Se131  1  0.73946023  0.73324406  0.04402868  1
  Se  Se132  1  0.74652080  0.74705115  0.56469291  1
  Se  Se133  1  0.25870691  0.25796456  0.05838723  1
  Se  Se134  1  0.25080754  0.25408671  0.55977399  1
  Se  Se135  1  0.24616636  0.58097877  0.05623412  1
  Se  Se136  1  0.25062167  0.58562740  0.54841953  1
  Se  Se137  1  0.24210331  0.91213071  0.06210068  1
  Se  Se138  1  0.24732786  0.91053059  0.54524419  1
  Se  Se139  1  0.59460244  0.26344375  0.05572420  1
  Se  Se140  1  0.57979576  0.24727026  0.55233110  1
  Se  Se141  1  0.58908019  0.59650371  0.05033049  1
  Se  Se142  1  0.59041561  0.59104633  0.56036590  1
  Se  Se143  1  0.58351896  0.91959796  0.05539685  1
  Se  Se144  1  0.58240812  0.91464207  0.55218839  1
  Se  Se145  1  0.92615418  0.25119927  0.06716327  1
  Se  Se146  1  0.91928086  0.25644540  0.55472364  1
  Se  Se147  1  0.91565037  0.57917276  0.05339327  1
  Se  Se148  1  0.91960148  0.58954654  0.55103843  1
  Se  Se149  1  0.90898685  0.90461729  0.05766405  1
  Se  Se150  1  0.92492222  0.92504438  0.55444042  1
  Se  Se151  1  0.07217749  0.25752269  0.43785696  1
  Se  Se152  1  0.07501433  0.25761589  0.94275960  1
  Se  Se153  1  0.08610376  0.58189955  0.44043303  1
  Se  Se154  1  0.08575727  0.58173407  0.95108500  1
  Se  Se155  1  0.08303953  0.91193671  0.44468118  1
  Se  Se156  1  0.08801205  0.90761515  0.95277108  1
  Se  Se157  1  0.41930227  0.24925404  0.45216791  1
  Se  Se158  1  0.41443066  0.25878649  0.94166881  1
  Se  Se159  1  0.41125628  0.59004470  0.43518564  1
  Se  Se160  1  0.41048512  0.58697220  0.95209878  1
  Se  Se161  1  0.42233750  0.90893068  0.43850333  1
  Se  Se162  1  0.41388133  0.91934759  0.95040280  1
  Se  Se163  1  0.74091097  0.25872933  0.43272134  1
  Se  Se164  1  0.74048620  0.25544237  0.94399284  1
  Se  Se165  1  0.74639914  0.58851647  0.45359067  1
  Se  Se166  1  0.72725379  0.61619930  0.94992840  1
  Se  Se167  1  0.74556012  0.92374814  0.43699704  1
  Se  Se168  1  0.75396626  0.91899953  0.95032904  1
  Se  Se169  1  0.25561588  0.06956110  0.43066077  1
  Se  Se170  1  0.25708393  0.07358329  0.94277330  1
  Se  Se171  1  0.24872494  0.42104144  0.45069226  1
  Se  Se172  1  0.24638114  0.42044847  0.94835018  1
  Se  Se173  1  0.24675833  0.75172108  0.43932312  1
  Se  Se174  1  0.24353391  0.75451256  0.94956798  1
  Se  Se175  1  0.57882928  0.08455449  0.44224875  1
  Se  Se176  1  0.58930169  0.08415472  0.94588751  1
  Se  Se177  1  0.58688299  0.41229977  0.43713826  1
  Se  Se178  1  0.57276698  0.42521035  0.95078148  1
  Se  Se179  1  0.58906183  0.74673440  0.45274043  1
  Se  Se180  1  0.55793925  0.78156229  0.94713013  1
  Se  Se181  1  0.92764605  0.07188043  0.43868553  1
  Se  Se182  1  0.92789796  0.06839023  0.94733549  1
  Se  Se183  1  0.91185848  0.42665789  0.44225171  1
  Se  Se184  1  0.91418762  0.41661932  0.94955722  1
  Se  Se185  1  0.92144143  0.74410829  0.43378263  1
  Se  Se186  1  0.91924433  0.74793864  0.95157533  1
  Se  Se187  1  0.24928485  0.24974831  0.31587646  1
  Se  Se188  1  0.25759743  0.25686882  0.79785424  1
  Se  Se189  1  0.25136133  0.58251259  0.30041169  1
  Se  Se190  1  0.24506390  0.57851504  0.81273400  1
  Se  Se191  1  0.25044668  0.90978609  0.29902817  1
  Se  Se192  1  0.24633750  0.90676149  0.81013632  1
  Se  Se193  1  0.58227774  0.25186274  0.30087669  1
  Se  Se194  1  0.58476195  0.25096070  0.80290291  1
  Se  Se195  1  0.57865663  0.57659625  0.30992722  1
  Se  Se196  1  0.57815996  0.57513570  0.81579812  1
  Se  Se197  1  0.58482576  0.91682173  0.30019668  1
  Se  Se198  1  0.59209152  0.91946970  0.80605648  1
  Se  Se199  1  0.91746407  0.25016385  0.30033878  1
  Se  Se200  1  0.90338662  0.24122213  0.81269093  1
  Se  Se201  1  0.91537199  0.58457638  0.29913356  1
  Se  Se202  1  0.90733305  0.57499681  0.80705571  1
  Se  Se203  1  0.91605010  0.91227487  0.29856078  1
  Se  Se204  1  0.91488822  0.91321680  0.81407235  1
  Se  Se205  1  0.09148551  0.08524680  0.29867671  1
  Se  Se206  1  0.09248484  0.08910115  0.80441708  1
  Se  Se207  1  0.08097808  0.41717245  0.30144946  1
  Se  Se208  1  0.08964226  0.42662519  0.81447883  1
  Se  Se209  1  0.07893545  0.74259358  0.29902627  1
  Se  Se210  1  0.08072324  0.74466787  0.80400047  1
  Se  Se211  1  0.41653876  0.08267213  0.30095520  1
  Se  Se212  1  0.42880499  0.09198298  0.81553768  1
  Se  Se213  1  0.42538995  0.42354298  0.30762258  1
  Se  Se214  1  0.41038821  0.41229564  0.80509421  1
  Se  Se215  1  0.41992328  0.74689710  0.30036373  1
  Se  Se216  1  0.43184532  0.74989331  0.81375226  1
  Se  Se217  1  0.74858811  0.08263681  0.29891291  1
  Se  Se218  1  0.74623811  0.07937328  0.79895653  1
  Se  Se219  1  0.75039449  0.41911297  0.30188586  1
  Se  Se220  1  0.74236607  0.42947538  0.81026089  1
  Se  Se221  1  0.75288262  0.75325379  0.30973685  1
  Se  Se222  1  0.75885490  0.75527934  0.81612505  1
  Se  Se223  1  0.24021698  0.08806753  0.20915755  1
  Se  Se224  1  0.24785494  0.08789405  0.69127715  1
  Se  Se225  1  0.24693878  0.42565793  0.18747344  1
  Se  Se226  1  0.24892899  0.41898682  0.69713605  1
  Se  Se227  1  0.25400637  0.74108568  0.19836203  1
  Se  Se228  1  0.24761122  0.75363428  0.68829877  1
  Se  Se229  1  0.58821055  0.08094953  0.19809593  1
  Se  Se230  1  0.58011213  0.07721995  0.69315546  1
  Se  Se231  1  0.59750443  0.42326578  0.19529180  1
  Se  Se232  1  0.58723796  0.41553410  0.69850716  1
  Se  Se233  1  0.57729154  0.75694057  0.18481437  1
  Se  Se234  1  0.58136684  0.75002049  0.69298981  1
  Se  Se235  1  0.91583213  0.08157619  0.20029056  1
  Se  Se236  1  0.90864446  0.09540954  0.68508553  1
  Se  Se237  1  0.92181760  0.41188964  0.19502867  1
  Se  Se238  1  0.90922593  0.42422782  0.68688961  1
  Se  Se239  1  0.91263230  0.74048257  0.19435673  1
  Se  Se240  1  0.92248430  0.75165615  0.70186969  1
  Se  Se241  1  0.09598271  0.24714043  0.20452841  1
  Se  Se242  1  0.08295742  0.25396169  0.69536485  1
  Se  Se243  1  0.07818017  0.58545582  0.19618662  1
  Se  Se244  1  0.08191876  0.58672011  0.69359696  1
  Se  Se245  1  0.07750675  0.90951914  0.19904569  1
  Se  Se246  1  0.09386387  0.91188967  0.68768517  1
  Se  Se247  1  0.42487546  0.24538599  0.18541987  1
  Se  Se248  1  0.41755128  0.24844537  0.69439518  1
  Se  Se249  1  0.42357033  0.58204747  0.20115870  1
  Se  Se250  1  0.42571484  0.57374104  0.69464178  1
  Se  Se251  1  0.40929717  0.91973943  0.19807467  1
  Se  Se252  1  0.42396368  0.90660177  0.69205704  1
  Se  Se253  1  0.74859391  0.25660124  0.19601534  1
  Se  Se254  1  0.74161430  0.25288825  0.69561546  1
  Se  Se255  1  0.75317814  0.57368474  0.18464335  1
  Se  Se256  1  0.75770483  0.57807237  0.68917491  1
  Se  Se257  1  0.74516904  0.90999999  0.19247711  1
  Se  Se258  1  0.74978109  0.91848024  0.70203212  1
