# generated using pymatgen
data_In86Cu29Se144
_symmetry_space_group_name_H-M   'P 1'
_cell_length_a   17.57948161
_cell_length_b   17.57651109
_cell_length_c   23.44024905
_cell_angle_alpha   89.99572024
_cell_angle_beta   90.00686908
_cell_angle_gamma   90.00601140
_symmetry_Int_Tables_number   1
_chemical_formula_structural   In86Cu29Se144
_chemical_formula_sum   'In86 Cu29 Se144'
_cell_volume   7242.70759105
_cell_formula_units_Z   1
loop_
 _symmetry_equiv_pos_site_id
 _symmetry_equiv_pos_as_xyz
  1  'x, y, z'
loop_
 _atom_site_type_symbol
 _atom_site_label
 _atom_site_symmetry_multiplicity
 _atom_site_fract_x
 _atom_site_fract_y
 _atom_site_fract_z
 _atom_site_occupancy
  In  In0  1  0.00476539  0.17351635  0.12097006  1
  In  In1  1  -0.00816109  0.16328682  0.62486388  1
  In  In2  1  -0.01269273  0.51141774  0.13350097  1
  In  In3  1  0.00625274  0.50194774  0.62049358  1
  In  In4  1  -0.00316407  0.83098465  0.11771773  1
  In  In5  1  0.00499535  0.83207037  0.63495059  1
  In  In6  1  0.33749009  0.16203578  0.11149523  1
  In  In7  1  0.34060411  0.17784086  0.62500695  1
  In  In8  1  0.33868648  0.48815092  0.12155057  1
  In  In9  1  0.33221636  0.50003857  0.62978995  1
  In  In10  1  0.33164410  0.84869078  0.11503703  1
  In  In11  1  0.31858131  0.82701946  0.62828259  1
  In  In12  1  0.65751563  0.15663211  0.11945128  1
  In  In13  1  0.67242725  0.16666729  0.63142422  1
  In  In14  1  0.67634958  0.50794249  0.11808651  1
  In  In15  1  0.65121205  0.48054373  0.60626206  1
  In  In16  1  0.67114546  0.81916213  0.13411459  1
  In  In17  1  0.67696280  0.84132399  0.62856874  1
  In  In18  1  0.17127666  0.00449165  0.37645755  1
  In  In19  1  0.15950181  0.01363616  0.88638503  1
  In  In20  1  0.15765989  0.34370800  0.38474990  1
  In  In21  1  0.16951179  0.31958032  0.87401017  1
  In  In22  1  0.15442323  0.66718316  0.37134497  1
  In  In23  1  0.17123696  0.67272613  0.87217225  1
  In  In24  1  0.49873727  -0.00555230  0.36671365  1
  In  In25  1  0.51679928  0.00017681  0.87468766  1
  In  In26  1  0.51502946  0.34164885  0.37802201  1
  In  In27  1  0.50082581  0.33510170  0.87251870  1
  In  In28  1  0.50022763  0.65540870  0.37252484  1
  In  In29  1  0.48864382  0.66345992  0.87172185  1
  In  In30  1  0.83202409  0.01262996  0.37317276  1
  In  In31  1  0.83470910  0.00293853  0.87889696  1
  In  In32  1  0.83227647  0.32298334  0.38499385  1
  In  In33  1  0.82279026  0.34255237  0.88218206  1
  In  In34  1  0.82667335  0.65989941  0.36743949  1
  In  In35  1  0.84098832  0.66082072  0.87788121  1
  In  In36  1  -0.01060166  0.17706250  0.38271811  1
  In  In37  1  0.00936126  0.16007178  0.88303925  1
  In  In38  1  -0.00481273  0.49811567  0.37511817  1
  In  In39  1  -0.01635137  0.50180509  0.87224523  1
  In  In40  1  0.01221490  0.81915626  0.36558548  1
  In  In41  1  -0.00284537  0.83472594  0.87823517  1
  In  In42  1  0.32060935  0.15560074  0.38153246  1
  In  In43  1  0.32503066  0.17377484  0.88121210  1
  In  In44  1  0.33963293  0.49368564  0.38537612  1
  In  In45  1  0.34511216  0.50448350  0.86200261  1
  In  In46  1  0.32927420  0.83534739  0.37136607  1
  In  In47  1  0.33315629  0.82025002  0.87704255  1
  In  In48  1  0.67417782  0.17189730  0.37113462  1
  In  In49  1  0.66889867  0.16806233  0.87851745  1
  In  In50  1  0.66116540  0.49804216  0.38610741  1
  In  In51  1  0.66926298  0.49443859  0.87523734  1
  In  In52  1  0.66642732  0.83731562  0.35720441  1
  In  In53  1  0.66750273  0.84962625  0.87490684  1
  In  In54  1  0.17030806  -0.00008655  0.11059463  1
  In  In55  1  0.15645047  -0.00705670  0.62385760  1
  In  In56  1  0.16344427  0.32016443  0.12453597  1
  In  In57  1  0.17499878  0.34105808  0.62005075  1
  In  In58  1  0.15147668  0.67280425  0.12911006  1
  In  In59  1  0.17490071  0.65836819  0.63426187  1
  In  In60  1  0.50396247  0.00990326  0.12966955  1
  In  In61  1  0.50556865  0.01523503  0.62824050  1
  In  In62  1  0.49754978  0.33104394  0.11468649  1
  In  In63  1  0.49287641  0.34798498  0.64014978  1
  In  In64  1  0.52102289  0.67153459  0.12342696  1
  In  In65  1  0.50116027  0.64416458  0.63103406  1
  In  In66  1  0.82307492  -0.00805224  0.11729557  1
  In  In67  1  0.82975594  0.01462904  0.63489392  1
  In  In68  1  0.83836754  0.34360533  0.11895101  1
  In  In69  1  0.82280692  0.32650153  0.61598461  1
  In  In70  1  0.83295112  0.66718167  0.12331971  1
  In  In71  1  0.84802002  0.66207680  0.62785201  1
  In  In72  1  0.33632349  0.66984973  0.24939399  1
  In  In73  1  0.66976886  0.33251592  0.25363832  1
  In  In74  1  0.66869738  0.66156873  0.75225369  1
  In  In75  1  0.83386336  0.83395446  0.49939482  1
  In  In76  1  0.33512122  -0.00098806  0.24424699  1
  In  In77  1  0.33521752  -0.00186814  0.75383331  1
  In  In78  1  0.50285118  0.83465301  -0.00097956  1
  In  In79  1  -0.00327092  -0.00321078  0.24163322  1
  In  In80  1  0.49951950  0.17403560  0.50100744  1
  In  In81  1  0.49439516  0.83044887  0.49040026  1
  In  In82  1  0.16512164  0.83522914  0.49504244  1
  In  In83  1  0.00056228  0.33175309  0.75138026  1
  In  In84  1  0.16631176  0.49941409  0.00090549  1
  In  In85  1  0.33208185  0.32675648  0.24390331  1
  Cu  Cu86  1  0.67262243  0.66473411  -0.00114268  1
  Cu  Cu87  1  0.83713257  0.50199124  0.24811310  1
  Cu  Cu88  1  0.00110237  0.33087732  0.50286380  1
  Cu  Cu89  1  0.51002718  0.50090280  0.25024783  1
  Cu  Cu90  1  0.50878524  0.17174081  0.75238865  1
  Cu  Cu91  1  0.00529191  0.66060622  0.49896305  1
  Cu  Cu92  1  0.66731873  0.00474105  0.50341528  1
  Cu  Cu93  1  -0.00793059  0.00734095  0.50300948  1
  Cu  Cu94  1  0.15882980  0.49954751  0.25761063  1
  Cu  Cu95  1  0.83879548  0.82972930  0.24186887  1
  Cu  Cu96  1  0.83089491  0.16989567  0.25114176  1
  Cu  Cu97  1  0.15862396  0.83468148  0.75541402  1
  Cu  Cu98  1  0.33135191  0.66132666  -0.00489221  1
  Cu  Cu99  1  0.16847702  0.16276262  0.75431591  1
  Cu  Cu100  1  0.15928587  0.16783166  0.24972152  1
  Cu  Cu101  1  0.83039703  0.49879528  0.74922301  1
  Cu  Cu102  1  -0.00416465  0.00128001  0.00090628  1
  Cu  Cu103  1  -0.00170287  0.33432757  -0.00294355  1
  Cu  Cu104  1  0.83507548  0.16672442  0.75479292  1
  Cu  Cu105  1  0.16503722  0.50207464  0.74539096  1
  Cu  Cu106  1  0.33970331  0.33466820  -0.00358081  1
  Cu  Cu107  1  0.67150599  0.00220934  0.00032633  1
  Cu  Cu108  1  0.66559173  0.33012569  -0.00121313  1
  Cu  Cu109  1  0.83728670  0.84178776  0.75212079  1
  Cu  Cu110  1  0.33110745  0.33393880  0.50696021  1
  Cu  Cu111  1  0.67026166  0.65924291  0.49672271  1
  Cu  Cu112  1  0.50098989  0.83274345  0.75451716  1
  Cu  Cu113  1  -0.00467322  0.66864589  0.00247360  1
  Cu  Cu114  1  0.33492362  0.65748604  0.50686715  1
  Se  Se115  1  0.08113547  0.08704640  0.05132242  1
  Se  Se116  1  0.08077506  0.08304245  0.55705534  1
  Se  Se117  1  0.07471251  0.41434326  0.06278904  1
  Se  Se118  1  0.08582544  0.41682385  0.55216361  1
  Se  Se119  1  0.08529844  0.75065296  0.04978081  1
  Se  Se120  1  0.08113565  0.74497540  0.55975175  1
  Se  Se121  1  0.41464102  0.06557384  0.05375031  1
  Se  Se122  1  0.40953872  0.07629037  0.55611868  1
  Se  Se123  1  0.42234148  0.42156856  0.04649460  1
  Se  Se124  1  0.41507772  0.41616745  0.56035433  1
  Se  Se125  1  0.41297256  0.74015917  0.05837016  1
  Se  Se126  1  0.41316614  0.74494288  0.56197303  1
  Se  Se127  1  0.75386077  0.08918813  0.05153815  1
  Se  Se128  1  0.75068168  0.08540195  0.55743030  1
  Se  Se129  1  0.74935223  0.41763862  0.04960128  1
  Se  Se130  1  0.76891672  0.43372717  0.55259230  1
  Se  Se131  1  0.74923068  0.75143526  0.05462736  1
  Se  Se132  1  0.74434426  0.74116985  0.55939242  1
  Se  Se133  1  0.25381959  0.25550955  0.05220811  1
  Se  Se134  1  0.24867691  0.24511108  0.55459559  1
  Se  Se135  1  0.25395635  0.59019178  0.06423278  1
  Se  Se136  1  0.24586795  0.57893754  0.55788003  1
  Se  Se137  1  0.25022084  0.91769263  0.04151651  1
  Se  Se138  1  0.25762415  0.92305723  0.55524424  1
  Se  Se139  1  0.58165226  0.24568834  0.05054125  1
  Se  Se140  1  0.58034977  0.25629586  0.57028876  1
  Se  Se141  1  0.58455066  0.58296867  0.04947242  1
  Se  Se142  1  0.57828241  0.58430862  0.54831189  1
  Se  Se143  1  0.59374322  0.91841460  0.06222270  1
  Se  Se144  1  0.58498092  0.91973194  0.55691256  1
  Se  Se145  1  0.91633962  0.25193792  0.05330718  1
  Se  Se146  1  0.91551320  0.24640361  0.55331223  1
  Se  Se147  1  0.91349027  0.58110477  0.05323266  1
  Se  Se148  1  0.91835408  0.58159216  0.55181733  1
  Se  Se149  1  0.91316900  0.91427309  0.05115807  1
  Se  Se150  1  0.92035651  0.92077612  0.56414387  1
  Se  Se151  1  0.08511129  0.24679024  0.44926738  1
  Se  Se152  1  0.08744959  0.25123099  0.95002695  1
  Se  Se153  1  0.08625291  0.57881891  0.44281883  1
  Se  Se154  1  0.07472027  0.58746663  0.94027838  1
  Se  Se155  1  0.06596907  0.92406725  0.43929051  1
  Se  Se156  1  0.08018334  0.91815656  0.94754781  1
  Se  Se157  1  0.40712718  0.26042576  0.43722084  1
  Se  Se158  1  0.42166756  0.24924074  0.94386955  1
  Se  Se159  1  0.42219480  0.58278950  0.44895768  1
  Se  Se160  1  0.41519589  0.57868238  0.94401216  1
  Se  Se161  1  0.40210422  0.92965489  0.44102547  1
  Se  Se162  1  0.41501222  0.92114690  0.93588176  1
  Se  Se163  1  0.73060619  0.25719727  0.44810247  1
  Se  Se164  1  0.75354760  0.24757318  0.94928794  1
  Se  Se165  1  0.75835736  0.58047006  0.44505764  1
  Se  Se166  1  0.75173441  0.58010469  0.94267742  1
  Se  Se167  1  0.74063815  0.92162748  0.43957194  1
  Se  Se168  1  0.75350974  0.91585138  0.94890475  1
  Se  Se169  1  0.23812455  0.08314186  0.45306650  1
  Se  Se170  1  0.25519945  0.08379760  0.95046845  1
  Se  Se171  1  0.24947716  0.41853719  0.45161324  1
  Se  Se172  1  0.25543733  0.41396088  0.93761643  1
  Se  Se173  1  0.25917653  0.73725853  0.44159648  1
  Se  Se174  1  0.24638403  0.74882017  0.94957252  1
  Se  Se175  1  0.58413085  0.07746057  0.43983679  1
  Se  Se176  1  0.58528670  0.08440384  0.94905946  1
  Se  Se177  1  0.58607057  0.41226737  0.45593248  1
  Se  Se178  1  0.58393592  0.41539804  0.94455481  1
  Se  Se179  1  0.59654872  0.74606894  0.43650687  1
  Se  Se180  1  0.59073307  0.74281811  0.93596006  1
  Se  Se181  1  0.90757619  0.08800030  0.44875793  1
  Se  Se182  1  0.91439531  0.08808717  0.94904010  1
  Se  Se183  1  0.91842879  0.41244428  0.44601511  1
  Se  Se184  1  0.91473745  0.42095183  0.94817245  1
  Se  Se185  1  0.92538563  0.74389619  0.44029386  1
  Se  Se186  1  0.91238958  0.75161846  0.94734654  1
  Se  Se187  1  0.24071139  0.24653485  0.31048976  1
  Se  Se188  1  0.25449310  0.24873044  0.80060838  1
  Se  Se189  1  0.25214974  0.57297675  0.31095076  1
  Se  Se190  1  0.24641803  0.58356704  0.80393048  1
  Se  Se191  1  0.23673060  0.91101523  0.30254134  1
  Se  Se192  1  0.24238335  0.91316265  0.81500689  1
  Se  Se193  1  0.57043594  0.24240434  0.30522496  1
  Se  Se194  1  0.59183117  0.25319347  0.80710131  1
  Se  Se195  1  0.59223391  0.57926990  0.30714020  1
  Se  Se196  1  0.57365329  0.57289995  0.80655436  1
  Se  Se197  1  0.58395405  0.92486973  0.29595073  1
  Se  Se198  1  0.58772372  0.92006705  0.79781969  1
  Se  Se199  1  0.91154289  0.25184469  0.30681611  1
  Se  Se200  1  0.91376161  0.24718448  0.81692267  1
  Se  Se201  1  0.92144677  0.58569284  0.30254481  1
  Se  Se202  1  0.91371853  0.58610148  0.79797905  1
  Se  Se203  1  0.91054638  0.90856592  0.31023558  1
  Se  Se204  1  0.91933378  0.92249630  0.80848454  1
  Se  Se205  1  0.07907077  0.08691199  0.30915859  1
  Se  Se206  1  0.08288651  0.08204571  0.80609349  1
  Se  Se207  1  0.07787635  0.41111782  0.30661271  1
  Se  Se208  1  0.09009086  0.42391586  0.81214776  1
  Se  Se209  1  0.09486419  0.74952121  0.29307184  1
  Se  Se210  1  0.07690068  0.74853043  0.80788574  1
  Se  Se211  1  0.41563252  0.09534147  0.30705694  1
  Se  Se212  1  0.42522458  0.09037206  0.81121772  1
  Se  Se213  1  0.42317796  0.42003713  0.30484907  1
  Se  Se214  1  0.40985830  0.40298768  0.80078731  1
  Se  Se215  1  0.42843151  0.76031639  0.30883132  1
  Se  Se216  1  0.41349376  0.74900464  0.80061542  1
  Se  Se217  1  0.74700859  0.08345781  0.30008600  1
  Se  Se218  1  0.75071626  0.08352979  0.80852345  1
  Se  Se219  1  0.75813286  0.42419904  0.31238670  1
  Se  Se220  1  0.74968939  0.41440242  0.80240790  1
  Se  Se221  1  0.75400660  0.74911708  0.29796214  1
  Se  Se222  1  0.75572370  0.75818454  0.81005357  1
  Se  Se223  1  0.24098784  0.09271720  0.18817294  1
  Se  Se224  1  0.24737587  0.08518074  0.68949313  1
  Se  Se225  1  0.23754956  0.42443769  0.19218841  1
  Se  Se226  1  0.24881227  0.41404460  0.69820148  1
  Se  Se227  1  0.25081923  0.75917329  0.18669282  1
  Se  Se228  1  0.24512250  0.75119714  0.70403407  1
  Se  Se229  1  0.58902298  0.08385759  0.19965325  1
  Se  Se230  1  0.58976414  0.08373687  0.70148837  1
  Se  Se231  1  0.58186751  0.41813014  0.18654942  1
  Se  Se232  1  0.59548357  0.42146729  0.69677195  1
  Se  Se233  1  0.58467149  0.74415539  0.20406830  1
  Se  Se234  1  0.57985742  0.75488940  0.68897473  1
  Se  Se235  1  0.90624447  0.09026301  0.18647193  1
  Se  Se236  1  0.92270971  0.08486154  0.70375229  1
  Se  Se237  1  0.91726009  0.41243841  0.19798025  1
  Se  Se238  1  0.91252032  0.41832414  0.68867633  1
  Se  Se239  1  0.92274914  0.74700679  0.19082792  1
  Se  Se240  1  0.91486538  0.75251988  0.69945441  1
  Se  Se241  1  0.07626725  0.25320892  0.19885972  1
  Se  Se242  1  0.09175637  0.24450802  0.69049434  1
  Se  Se243  1  0.08207217  0.58388349  0.19991094  1
  Se  Se244  1  0.07644679  0.58435518  0.69688616  1
  Se  Se245  1  0.09284976  0.91305713  0.18461191  1
  Se  Se246  1  0.08059008  0.92252942  0.70230082  1
  Se  Se247  1  0.42459195  0.23836596  0.18738631  1
  Se  Se248  1  0.41732346  0.24913159  0.70157966  1
  Se  Se249  1  0.42461308  0.57552470  0.18946329  1
  Se  Se250  1  0.40412780  0.58980478  0.70031176  1
  Se  Se251  1  0.42726887  0.90440456  0.19090231  1
  Se  Se252  1  0.42323395  0.91019652  0.68790902  1
  Se  Se253  1  0.75356861  0.24756386  0.18587170  1
  Se  Se254  1  0.75651252  0.25164597  0.69829746  1
  Se  Se255  1  0.75142111  0.58341111  0.19465534  1
  Se  Se256  1  0.75134537  0.57581425  0.68513332  1
  Se  Se257  1  0.75192995  0.91535202  0.19511207  1
  Se  Se258  1  0.75053347  0.92351005  0.70050450  1
