# generated using pymatgen
data_In86Cu29Se144
_symmetry_space_group_name_H-M   'P 1'
_cell_length_a   17.55713636
_cell_length_b   17.55731745
_cell_length_c   23.41055928
_cell_angle_alpha   90.01751207
_cell_angle_beta   89.99959870
_cell_angle_gamma   89.98141282
_symmetry_Int_Tables_number   1
_chemical_formula_structural   In86Cu29Se144
_chemical_formula_sum   'In86 Cu29 Se144'
_cell_volume   7216.44971303
_cell_formula_units_Z   1
loop_
 _symmetry_equiv_pos_site_id
 _symmetry_equiv_pos_as_xyz
  1  'x, y, z'
loop_
 _atom_site_type_symbol
 _atom_site_label
 _atom_site_symmetry_multiplicity
 _atom_site_fract_x
 _atom_site_fract_y
 _atom_site_fract_z
 _atom_site_occupancy
  In  In0  1  -0.00201903  0.17166216  0.11653761  1
  In  In1  1  -0.01344691  0.16273260  0.62774469  1
  In  In2  1  -0.00375763  0.50106623  0.11750518  1
  In  In3  1  0.00548086  0.51271504  0.63120940  1
  In  In4  1  0.00203356  0.83212347  0.12475816  1
  In  In5  1  0.00313780  0.84507469  0.63106778  1
  In  In6  1  0.33119218  0.18815374  0.13213277  1
  In  In7  1  0.34621906  0.16038318  0.62819360  1
  In  In8  1  0.33264053  0.50002679  0.12280125  1
  In  In9  1  0.32193079  0.48461823  0.63423341  1
  In  In10  1  0.31012486  0.82923811  0.13082483  1
  In  In11  1  0.33704334  0.81736804  0.62279329  1
  In  In12  1  0.67307665  0.15406317  0.13015230  1
  In  In13  1  0.65961944  0.17021062  0.63482966  1
  In  In14  1  0.67551493  0.51570037  0.11369589  1
  In  In15  1  0.66471813  0.49912702  0.63839640  1
  In  In16  1  0.67995721  0.82252809  0.13182422  1
  In  In17  1  0.66910450  0.83220408  0.62484700  1
  In  In18  1  0.16020312  0.00265021  0.36407154  1
  In  In19  1  0.14858740  0.01007897  0.88393319  1
  In  In20  1  0.17115577  0.33573245  0.35755202  1
  In  In21  1  0.16390391  0.33182705  0.88727605  1
  In  In22  1  0.16036268  0.66688303  0.35042301  1
  In  In23  1  0.15984985  0.66420985  0.89933500  1
  In  In24  1  0.50871488  -0.00607313  0.38020919  1
  In  In25  1  0.50979150  -0.01332318  0.87205891  1
  In  In26  1  0.49038187  0.33484000  0.37221413  1
  In  In27  1  0.50889593  0.34074295  0.87162390  1
  In  In28  1  0.51633874  0.68375267  0.35991035  1
  In  In29  1  0.50639427  0.65269827  0.88051825  1
  In  In30  1  0.82192571  -0.00471927  0.36372089  1
  In  In31  1  0.83841217  -0.00570258  0.87718491  1
  In  In32  1  0.83730775  0.32988012  0.36438721  1
  In  In33  1  0.82592320  0.33662290  0.89101331  1
  In  In34  1  0.84907174  0.68026478  0.35810422  1
  In  In35  1  0.83148774  0.67125875  0.88594125  1
  In  In36  1  -0.00732413  0.16255161  0.35487384  1
  In  In37  1  0.00554198  0.16504101  0.89155099  1
  In  In38  1  0.00662255  0.50996664  0.35027019  1
  In  In39  1  0.00514635  0.49035902  0.90529098  1
  In  In40  1  -0.00928047  0.82574520  0.35821381  1
  In  In41  1  -0.02349096  0.84076098  0.89954306  1
  In  In42  1  0.33673345  0.17706937  0.37056939  1
  In  In43  1  0.31046972  0.17354510  0.87994613  1
  In  In44  1  0.32791293  0.49310424  0.36172908  1
  In  In45  1  0.33896526  0.49988506  0.88278718  1
  In  In46  1  0.34357815  0.83609127  0.37049223  1
  In  In47  1  0.33304887  0.82176134  0.87906000  1
  In  In48  1  0.66960803  0.15740651  0.37317719  1
  In  In49  1  0.67094519  0.16802501  0.87427795  1
  In  In50  1  0.66245256  0.50357559  0.36756702  1
  In  In51  1  0.66490642  0.49864849  0.87855292  1
  In  In52  1  0.66845282  0.83793687  0.37377275  1
  In  In53  1  0.69809534  0.84374472  0.85512799  1
  In  In54  1  0.14476492  -0.02007626  0.11537281  1
  In  In55  1  0.15451339  -0.00670173  0.63387757  1
  In  In56  1  0.16170736  0.33757752  0.11485073  1
  In  In57  1  0.17867866  0.34774029  0.63607526  1
  In  In58  1  0.16407221  0.66955308  0.12510974  1
  In  In59  1  0.16214633  0.66458781  0.62994056  1
  In  In60  1  0.51388750  0.01360210  0.13278259  1
  In  In61  1  0.50792916  0.00662631  0.61975468  1
  In  In62  1  0.48015908  0.33327805  0.13122665  1
  In  In63  1  0.50408397  0.32563782  0.63477336  1
  In  In64  1  0.50993118  0.65754655  0.13047829  1
  In  In65  1  0.50205601  0.67521846  0.61755848  1
  In  In66  1  0.83524927  0.00117354  0.12383212  1
  In  In67  1  0.83976065  -0.01458745  0.63796257  1
  In  In68  1  0.86051198  0.35400134  0.09468408  1
  In  In69  1  0.83258960  0.31902916  0.63183233  1
  In  In70  1  0.83269652  0.66762174  0.11943757  1
  In  In71  1  0.82188184  0.66599810  0.62813228  1
  In  In72  1  0.50148157  0.82834632  -0.00123502  1
  In  In73  1  0.32925560  -0.00168495  0.24733591  1
  In  In74  1  0.82705886  0.15547290  0.49944780  1
  In  In75  1  0.33395029  0.00504232  0.75055321  1
  In  In76  1  0.16911088  0.50620768  0.49932927  1
  In  In77  1  0.67797457  0.33876551  0.24164286  1
  In  In78  1  -0.00199479  0.33234154  0.77086070  1
  In  In79  1  0.49965529  0.17114509  0.00694599  1
  In  In80  1  -0.00278256  0.66403737  0.76520114  1
  In  In81  1  0.82834454  0.50357086  0.49494811  1
  In  In82  1  0.17446741  0.83751841  0.49732471  1
  In  In83  1  0.49857062  0.50614298  0.49387087  1
  In  In84  1  0.33767191  0.66090053  0.75341076  1
  In  In85  1  0.17035246  0.16470263  0.49285870  1
  Cu  Cu86  1  0.15702993  0.83711824  0.76317307  1
  Cu  Cu87  1  0.16431741  0.16519860  0.23810699  1
  Cu  Cu88  1  0.66092577  0.33813969  0.00242007  1
  Cu  Cu89  1  0.33201124  0.66650804  0.00683973  1
  Cu  Cu90  1  0.51425429  0.83104569  0.74363845  1
  Cu  Cu91  1  0.33070363  0.33920198  0.00245981  1
  Cu  Cu92  1  0.66424790  0.32827247  0.50856786  1
  Cu  Cu93  1  0.66844595  0.66980949  -0.00134050  1
  Cu  Cu94  1  0.16495332  0.49046540  0.23375190  1
  Cu  Cu95  1  0.15524162  0.17581150  0.76044090  1
  Cu  Cu96  1  -0.00581789  0.67801713  0.48872970  1
  Cu  Cu97  1  -0.00575036  -0.00710653  0.49947099  1
  Cu  Cu98  1  0.50181445  0.49765699  0.75629353  1
  Cu  Cu99  1  0.82972234  0.15618185  0.75399811  1
  Cu  Cu100  1  0.00424345  0.33847016  0.48896004  1
  Cu  Cu101  1  0.67190499  0.67756244  0.49624472  1
  Cu  Cu102  1  0.49200732  0.17302907  0.75377367  1
  Cu  Cu103  1  0.34186021  0.32621919  0.50053741  1
  Cu  Cu104  1  0.34536321  -0.00241655  0.49981023  1
  Cu  Cu105  1  0.83720432  0.49041053  0.76204272  1
  Cu  Cu106  1  0.66421952  -0.00455649  0.50143126  1
  Cu  Cu107  1  0.49764292  0.49738331  0.24674954  1
  Cu  Cu108  1  0.67314806  -0.00893090  0.00066844  1
  Cu  Cu109  1  0.83017598  0.83926893  0.24206959  1
  Cu  Cu110  1  0.49947109  0.83382147  0.25010933  1
  Cu  Cu111  1  0.84174649  0.17672899  0.23724748  1
  Cu  Cu112  1  0.32378180  0.00332344  0.00566756  1
  Cu  Cu113  1  0.34072842  0.66786976  0.49102826  1
  Cu  Cu114  1  -0.00410510  -0.00399529  0.00442774  1
  Se  Se115  1  0.08342409  0.08328669  0.05129932  1
  Se  Se116  1  0.07623346  0.07761686  0.55616752  1
  Se  Se117  1  0.07594127  0.41555866  0.04716993  1
  Se  Se118  1  0.07777704  0.41260283  0.55934384  1
  Se  Se119  1  0.08582052  0.75291200  0.05411598  1
  Se  Se120  1  0.07965046  0.74629580  0.55603210  1
  Se  Se121  1  0.40933684  0.07827394  0.06487531  1
  Se  Se122  1  0.42203585  0.08845227  0.55129601  1
  Se  Se123  1  0.41983306  0.41848615  0.05328503  1
  Se  Se124  1  0.41438742  0.41508048  0.55934772  1
  Se  Se125  1  0.41256755  0.74785831  0.06580760  1
  Se  Se126  1  0.42055465  0.75297481  0.54511947  1
  Se  Se127  1  0.74995341  0.08167806  0.05265354  1
  Se  Se128  1  0.74324691  0.07275614  0.56713842  1
  Se  Se129  1  0.74971972  0.42717579  0.04387463  1
  Se  Se130  1  0.74747178  0.41015721  0.56349025  1
  Se  Se131  1  0.75105926  0.75513570  0.04985836  1
  Se  Se132  1  0.75640051  0.75318301  0.55396423  1
  Se  Se133  1  0.25122412  0.24863215  0.05181635  1
  Se  Se134  1  0.25244049  0.25501311  0.56124661  1
  Se  Se135  1  0.24618342  0.58172957  0.05628122  1
  Se  Se136  1  0.26514955  0.59388702  0.56076974  1
  Se  Se137  1  0.24563492  0.91016540  0.05190533  1
  Se  Se138  1  0.25992014  0.92849647  0.56438177  1
  Se  Se139  1  0.58936769  0.25910295  0.06816027  1
  Se  Se140  1  0.57959998  0.24616773  0.55945603  1
  Se  Se141  1  0.57828505  0.58801164  0.04724651  1
  Se  Se142  1  0.59866620  0.58601423  0.55461129  1
  Se  Se143  1  0.58767649  0.91948715  0.06192793  1
  Se  Se144  1  0.58107686  0.91143403  0.55557383  1
  Se  Se145  1  0.90030139  0.22977032  0.04493555  1
  Se  Se146  1  0.92303697  0.25765620  0.55041993  1
  Se  Se147  1  0.92687465  0.59944909  0.04613479  1
  Se  Se148  1  0.92519255  0.59159099  0.55449976  1
  Se  Se149  1  0.91257834  0.91150310  0.05606463  1
  Se  Se150  1  0.91543794  0.91325864  0.55773828  1
  Se  Se151  1  0.07990985  0.25364981  0.43023718  1
  Se  Se152  1  0.07945033  0.25613832  0.95707775  1
  Se  Se153  1  0.07845866  0.59216604  0.43486723  1
  Se  Se154  1  0.06736849  0.59431374  0.96889462  1
  Se  Se155  1  0.07734532  0.91912547  0.43711543  1
  Se  Se156  1  0.08531765  0.91307260  0.95290972  1
  Se  Se157  1  0.42395321  0.24505391  0.44574337  1
  Se  Se158  1  0.41101051  0.25645083  0.94137174  1
  Se  Se159  1  0.41339894  0.58882388  0.42552544  1
  Se  Se160  1  0.41747572  0.58608967  0.95248555  1
  Se  Se161  1  0.42191576  0.90963255  0.44589408  1
  Se  Se162  1  0.40753211  0.92675560  0.94443071  1
  Se  Se163  1  0.74756284  0.25895043  0.44222394  1
  Se  Se164  1  0.73954763  0.24605208  0.95249228  1
  Se  Se165  1  0.74648921  0.59696988  0.43260607  1
  Se  Se166  1  0.74889235  0.57896960  0.94816112  1
  Se  Se167  1  0.75174614  0.92132054  0.44371069  1
  Se  Se168  1  0.75387276  0.90755525  0.94576681  1
  Se  Se169  1  0.26092310  0.06961503  0.43606048  1
  Se  Se170  1  0.24130956  0.08560786  0.95084612  1
  Se  Se171  1  0.25575142  0.40617197  0.44154344  1
  Se  Se172  1  0.24748771  0.42388110  0.94959437  1
  Se  Se173  1  0.24942227  0.73906983  0.43276842  1
  Se  Se174  1  0.25172751  0.75443601  0.95511153  1
  Se  Se175  1  0.58759305  0.08463353  0.44742992  1
  Se  Se176  1  0.58531856  0.07272034  0.94628609  1
  Se  Se177  1  0.59312606  0.40934716  0.44244653  1
  Se  Se178  1  0.57699177  0.42062173  0.94886818  1
  Se  Se179  1  0.58229968  0.75477800  0.44290118  1
  Se  Se180  1  0.59591656  0.75277820  0.93302209  1
  Se  Se181  1  0.92350758  0.07742814  0.43556100  1
  Se  Se182  1  0.91287121  0.07897601  0.94996364  1
  Se  Se183  1  0.92394309  0.42048884  0.43207253  1
  Se  Se184  1  0.92386227  0.39467420  0.96142814  1
  Se  Se185  1  0.91079502  0.76206607  0.43924174  1
  Se  Se186  1  0.92611578  0.72846371  0.96166274  1
  Se  Se187  1  0.25169304  0.24374616  0.29466242  1
  Se  Se188  1  0.24175201  0.26024841  0.80690891  1
  Se  Se189  1  0.24514223  0.57314798  0.29294338  1
  Se  Se190  1  0.24341979  0.58791645  0.82004687  1
  Se  Se191  1  0.24002689  0.90307660  0.30438867  1
  Se  Se192  1  0.24743992  0.91719162  0.81628562  1
  Se  Se193  1  0.58929073  0.25563609  0.31005487  1
  Se  Se194  1  0.58440549  0.24859969  0.80648827  1
  Se  Se195  1  0.58403969  0.58284953  0.29612111  1
  Se  Se196  1  0.58719703  0.58258489  0.80459190  1
  Se  Se197  1  0.58315443  0.91807756  0.30304372  1
  Se  Se198  1  0.59266680  0.91772008  0.79796602  1
  Se  Se199  1  0.92399724  0.26143260  0.29113796  1
  Se  Se200  1  0.90341889  0.23767504  0.81943340  1
  Se  Se201  1  0.91328191  0.58589537  0.28963366  1
  Se  Se202  1  0.91645028  0.56500350  0.82539483  1
  Se  Se203  1  0.91466687  0.92355156  0.29653756  1
  Se  Se204  1  0.90988468  0.89749944  0.81179956  1
  Se  Se205  1  0.08152455  0.08027726  0.29144274  1
  Se  Se206  1  0.07331618  0.08889174  0.80907550  1
  Se  Se207  1  0.08057672  0.40933395  0.29049937  1
  Se  Se208  1  0.08663918  0.43171373  0.81965168  1
  Se  Se209  1  0.07595135  0.75131462  0.28847403  1
  Se  Se210  1  0.08472931  0.75539879  0.82607881  1
  Se  Se211  1  0.42142458  0.08140096  0.31058246  1
  Se  Se212  1  0.41889023  0.09155513  0.81882573  1
  Se  Se213  1  0.41475972  0.40983693  0.29634469  1
  Se  Se214  1  0.41397577  0.41864617  0.80818757  1
  Se  Se215  1  0.41192211  0.74802200  0.29721460  1
  Se  Se216  1  0.43114783  0.75629949  0.80762298  1
  Se  Se217  1  0.75915129  0.09784494  0.29763809  1
  Se  Se218  1  0.74709669  0.07474809  0.80992815  1
  Se  Se219  1  0.76366621  0.43260542  0.30249625  1
  Se  Se220  1  0.74907189  0.40924818  0.81289859  1
  Se  Se221  1  0.74835456  0.75768238  0.30098339  1
  Se  Se222  1  0.75424474  0.72932592  0.80229368  1
  Se  Se223  1  0.24305297  0.08141367  0.17965724  1
  Se  Se224  1  0.23499998  0.09609494  0.69491821  1
  Se  Se225  1  0.25444556  0.40639697  0.18715473  1
  Se  Se226  1  0.24286203  0.42652565  0.71456918  1
  Se  Se227  1  0.24817280  0.73906894  0.20200717  1
  Se  Se228  1  0.23938167  0.75949815  0.70034278  1
  Se  Se229  1  0.58712457  0.09181262  0.20644740  1
  Se  Se230  1  0.57292650  0.08574593  0.70009019  1
  Se  Se231  1  0.58186485  0.42583653  0.18308296  1
  Se  Se232  1  0.58446331  0.41120685  0.70244782  1
  Se  Se233  1  0.58443631  0.74996944  0.19688846  1
  Se  Se234  1  0.58907730  0.73899854  0.69170878  1
  Se  Se235  1  0.92246789  0.08452303  0.18925157  1
  Se  Se236  1  0.91971615  0.07863933  0.70204638  1
  Se  Se237  1  0.91353770  0.41532492  0.18523700  1
  Se  Se238  1  0.91672313  0.41936707  0.69420120  1
  Se  Se239  1  0.91091377  0.75243667  0.19115518  1
  Se  Se240  1  0.91872478  0.74793614  0.69215599  1
  Se  Se241  1  0.08239536  0.25234788  0.18653673  1
  Se  Se242  1  0.07903505  0.25281365  0.69254981  1
  Se  Se243  1  0.07940503  0.57980946  0.18965603  1
  Se  Se244  1  0.09770043  0.57561311  0.70653776  1
  Se  Se245  1  0.08122744  0.91270116  0.19883018  1
  Se  Se246  1  0.07561925  0.92150975  0.70951615  1
  Se  Se247  1  0.43386252  0.23240637  0.20236185  1
  Se  Se248  1  0.40654060  0.25394181  0.70026384  1
  Se  Se249  1  0.41433575  0.58256344  0.19416056  1
  Se  Se250  1  0.42671185  0.57343480  0.68644227  1
  Se  Se251  1  0.42298295  0.91065356  0.18523915  1
  Se  Se252  1  0.41989917  0.90767248  0.69034953  1
  Se  Se253  1  0.76588682  0.25721606  0.17525332  1
  Se  Se254  1  0.74905268  0.24644469  0.70380353  1
  Se  Se255  1  0.74084039  0.59665785  0.18966109  1
  Se  Se256  1  0.76039318  0.57356606  0.70122311  1
  Se  Se257  1  0.74437969  0.92658901  0.19438122  1
  Se  Se258  1  0.74064171  0.91621437  0.69854096  1
