# generated using pymatgen
data_In86Cu29Se144
_symmetry_space_group_name_H-M   'P 1'
_cell_length_a   17.59280470
_cell_length_b   17.59338888
_cell_length_c   23.45646641
_cell_angle_alpha   89.98493290
_cell_angle_beta   89.98593025
_cell_angle_gamma   89.98664404
_symmetry_Int_Tables_number   1
_chemical_formula_structural   In86Cu29Se144
_chemical_formula_sum   'In86 Cu29 Se144'
_cell_volume   7260.17572593
_cell_formula_units_Z   1
loop_
 _symmetry_equiv_pos_site_id
 _symmetry_equiv_pos_as_xyz
  1  'x, y, z'
loop_
 _atom_site_type_symbol
 _atom_site_label
 _atom_site_symmetry_multiplicity
 _atom_site_fract_x
 _atom_site_fract_y
 _atom_site_fract_z
 _atom_site_occupancy
  In  In0  1  0.00146254  0.18309789  0.12963159  1
  In  In1  1  -0.00065521  0.16855337  0.62615796  1
  In  In2  1  -0.00084057  0.49874063  0.12040338  1
  In  In3  1  0.00196340  0.49933087  0.62127854  1
  In  In4  1  -0.00851811  0.82977419  0.12327143  1
  In  In5  1  0.01135115  0.82024473  0.63393030  1
  In  In6  1  0.33141639  0.16508969  0.14044400  1
  In  In7  1  0.33582368  0.18096497  0.62511573  1
  In  In8  1  0.32764565  0.50022652  0.12963287  1
  In  In9  1  0.31976769  0.50551415  0.62587531  1
  In  In10  1  0.32763711  0.82694392  0.13679990  1
  In  In11  1  0.30987408  0.83626089  0.62049285  1
  In  In12  1  0.67798175  0.17849960  0.12164335  1
  In  In13  1  0.66867612  0.17335429  0.61974547  1
  In  In14  1  0.67781783  0.48784120  0.13093812  1
  In  In15  1  0.68437053  0.48916267  0.62194496  1
  In  In16  1  0.67178893  0.82264777  0.12840896  1
  In  In17  1  0.67053636  0.83304540  0.62398307  1
  In  In18  1  0.16989766  -0.00309364  0.37941673  1
  In  In19  1  0.16022929  0.01407189  0.87270879  1
  In  In20  1  0.16951596  0.33147891  0.37504328  1
  In  In21  1  0.16796622  0.34149498  0.86991998  1
  In  In22  1  0.15763417  0.66336254  0.37157885  1
  In  In23  1  0.14560198  0.64633875  0.86536031  1
  In  In24  1  0.48161691  0.02114667  0.37452126  1
  In  In25  1  0.51313865  0.00510588  0.87948360  1
  In  In26  1  0.49611708  0.32049895  0.35971279  1
  In  In27  1  0.48280179  0.33772330  0.88421907  1
  In  In28  1  0.49630604  0.65804924  0.36549855  1
  In  In29  1  0.49091465  0.67388323  0.87533295  1
  In  In30  1  0.84844328  0.00529313  0.37820741  1
  In  In31  1  0.83696189  0.00020449  0.88037939  1
  In  In32  1  0.83756781  0.33441012  0.37453750  1
  In  In33  1  0.84519334  0.32505448  0.87979171  1
  In  In34  1  0.82483332  0.65068248  0.36335468  1
  In  In35  1  0.87680386  0.63679748  0.91082892  1
  In  In36  1  -0.01296574  0.17826379  0.38356452  1
  In  In37  1  -0.00985598  0.16715187  0.85959173  1
  In  In38  1  0.00186090  0.49743750  0.37427583  1
  In  In39  1  0.00750142  0.49400712  0.87604511  1
  In  In40  1  0.01945217  0.82762168  0.37458428  1
  In  In41  1  -0.00631593  0.82625789  0.87122910  1
  In  In42  1  0.31621171  0.15052366  0.34575376  1
  In  In43  1  0.32554059  0.19202055  0.88441534  1
  In  In44  1  0.32044206  0.48952670  0.37023441  1
  In  In45  1  0.31640875  0.48830775  0.87080929  1
  In  In46  1  0.29303911  0.80973826  0.34598912  1
  In  In47  1  0.34186747  0.82518794  0.87695346  1
  In  In48  1  0.67258366  0.19867056  0.37128125  1
  In  In49  1  0.66752041  0.16793813  0.88508229  1
  In  In50  1  0.66953116  0.49560806  0.36615995  1
  In  In51  1  0.67404797  0.51224450  0.87581314  1
  In  In52  1  0.67677421  0.82792548  0.37015627  1
  In  In53  1  0.67557826  0.84412650  0.87872970  1
  In  In54  1  0.17639009  0.01085531  0.13395734  1
  In  In55  1  0.15660325  -0.00680866  0.61864038  1
  In  In56  1  0.15704058  0.33109310  0.13998822  1
  In  In57  1  0.16521411  0.33487226  0.62189542  1
  In  In58  1  0.17026298  0.65932017  0.12887133  1
  In  In59  1  0.16218279  0.66638822  0.62260341  1
  In  In60  1  0.48528308  0.00474324  0.12974689  1
  In  In61  1  0.50257793  0.01371290  0.62564808  1
  In  In62  1  0.50125586  0.32567245  0.13564285  1
  In  In63  1  0.49487886  0.32414919  0.62816906  1
  In  In64  1  0.49542945  0.67265568  0.13177761  1
  In  In65  1  0.48638631  0.64812388  0.61867993  1
  In  In66  1  0.83382810  0.00253856  0.11625161  1
  In  In67  1  0.84282916  0.01708276  0.62391627  1
  In  In68  1  0.83780885  0.33432328  0.12292478  1
  In  In69  1  0.83646652  0.34455387  0.61663599  1
  In  In70  1  0.84159713  0.65818988  0.12487306  1
  In  In71  1  0.85065873  0.66456626  0.62527624  1
  In  In72  1  0.16468666  0.82666001  0.00569282  1
  In  In73  1  0.67304726  -0.00153742  0.76075188  1
  In  In74  1  0.66800999  0.33537308  0.74544129  1
  In  In75  1  0.49737632  0.17122492  0.49861747  1
  In  In76  1  0.16391461  0.17374012  0.00805804  1
  In  In77  1  0.84497636  0.83090354  0.49811898  1
  In  In78  1  0.49237156  0.83726357  0.48436464  1
  In  In79  1  0.50623866  0.83528026  0.00809880  1
  In  In80  1  0.50488781  0.49917432  0.01235899  1
  In  In81  1  0.49729631  0.49356933  0.48546310  1
  In  In82  1  0.66467893  -0.00103519  0.25328066  1
  In  In83  1  0.33054025  0.00063984  0.75235947  1
  In  In84  1  0.00516518  -0.00757631  0.25086660  1
  In  In85  1  0.66672121  0.67665862  0.76103393  1
  Cu  Cu86  1  0.84072212  0.50712235  0.75234200  1
  Cu  Cu87  1  0.83970307  0.83268117  0.75664617  1
  Cu  Cu88  1  0.16443615  0.49822093  0.74394946  1
  Cu  Cu89  1  0.00224221  0.65939968  0.49863640  1
  Cu  Cu90  1  0.48719339  0.82103275  0.74449935  1
  Cu  Cu91  1  0.48379119  0.49929345  0.74878744  1
  Cu  Cu92  1  0.83560477  0.81888470  0.24781703  1
  Cu  Cu93  1  0.49996920  0.83502617  0.25186960  1
  Cu  Cu94  1  0.50490705  0.50769469  0.24416333  1
  Cu  Cu95  1  0.67957672  0.67084968  0.00489845  1
  Cu  Cu96  1  0.00266781  0.33595363  0.49913878  1
  Cu  Cu97  1  -0.00212987  0.00311720  -0.00378178  1
  Cu  Cu98  1  0.16289974  0.17083045  0.74727410  1
  Cu  Cu99  1  0.00266290  0.33310882  0.00081884  1
  Cu  Cu100  1  0.32581769  0.65577658  -0.00053270  1
  Cu  Cu101  1  0.32022866  0.00018817  0.48968112  1
  Cu  Cu102  1  0.33030707  0.33355483  0.49647404  1
  Cu  Cu103  1  0.66964976  0.33553071  0.00458011  1
  Cu  Cu104  1  0.83475939  0.17233781  0.25089293  1
  Cu  Cu105  1  0.49429759  0.17172007  0.75801695  1
  Cu  Cu106  1  0.16024384  0.50072845  0.25132135  1
  Cu  Cu107  1  0.00517802  0.00721777  0.50059478  1
  Cu  Cu108  1  0.16793423  0.82711728  0.74937912  1
  Cu  Cu109  1  0.66875991  0.01042060  0.00276499  1
  Cu  Cu110  1  0.31984023  0.67672223  0.49727302  1
  Cu  Cu111  1  0.67320081  0.65364432  0.49214401  1
  Cu  Cu112  1  0.66337815  0.00348394  0.50002727  1
  Cu  Cu113  1  0.33843545  0.00770124  0.00803517  1
  Cu  Cu114  1  0.84134404  0.49471439  0.24764708  1
  Se  Se115  1  0.07513834  0.07549849  0.06345387  1
  Se  Se116  1  0.08686044  0.09102019  0.55461021  1
  Se  Se117  1  0.08656722  0.40710171  0.06003656  1
  Se  Se118  1  0.08659229  0.41986960  0.55163615  1
  Se  Se119  1  0.07280651  0.73506800  0.05842919  1
  Se  Se120  1  0.07930897  0.74897065  0.55178004  1
  Se  Se121  1  0.41439888  0.09474005  0.06117546  1
  Se  Se122  1  0.40303293  0.07383948  0.55421735  1
  Se  Se123  1  0.41193048  0.40822837  0.06403488  1
  Se  Se124  1  0.41195133  0.41219628  0.55749455  1
  Se  Se125  1  0.40368166  0.74416724  0.05568023  1
  Se  Se126  1  0.41012922  0.74959111  0.55542834  1
  Se  Se127  1  0.75671588  0.09340806  0.05152546  1
  Se  Se128  1  0.74730262  0.08268913  0.55517845  1
  Se  Se129  1  0.75618085  0.41936086  0.05278142  1
  Se  Se130  1  0.74282473  0.40777992  0.54492128  1
  Se  Se131  1  0.76088597  0.75294797  0.05911852  1
  Se  Se132  1  0.74624208  0.73976000  0.55454914  1
  Se  Se133  1  0.25465275  0.25665646  0.06824503  1
  Se  Se134  1  0.25007859  0.24989986  0.55280296  1
  Se  Se135  1  0.24533810  0.57584060  0.05538265  1
  Se  Se136  1  0.24662528  0.58638811  0.55154864  1
  Se  Se137  1  0.25740899  0.92269644  0.06134324  1
  Se  Se138  1  0.24011164  0.91597342  0.54538870  1
  Se  Se139  1  0.58367978  0.25634369  0.05815330  1
  Se  Se140  1  0.59033628  0.26617796  0.55292467  1
  Se  Se141  1  0.59461063  0.59568368  0.06626423  1
  Se  Se142  1  0.58851787  0.58006423  0.55347231  1
  Se  Se143  1  0.59430465  0.92767761  0.06660943  1
  Se  Se144  1  0.58271883  0.92050674  0.55581220  1
  Se  Se145  1  0.91864884  0.24802462  0.05272709  1
  Se  Se146  1  0.92081121  0.25390202  0.55555365  1
  Se  Se147  1  0.91181657  0.57432856  0.05021553  1
  Se  Se148  1  0.91430874  0.57932293  0.55039572  1
  Se  Se149  1  0.91922256  0.91780112  0.05231765  1
  Se  Se150  1  0.92883338  0.91990154  0.56219165  1
  Se  Se151  1  0.08530747  0.25147823  0.44581117  1
  Se  Se152  1  0.07793897  0.25112325  0.93678416  1
  Se  Se153  1  0.08616513  0.57799364  0.44527352  1
  Se  Se154  1  0.08267824  0.57905626  0.94838846  1
  Se  Se155  1  0.08227353  0.91848446  0.44770478  1
  Se  Se156  1  0.08311203  0.92299236  0.94171408  1
  Se  Se157  1  0.40643744  0.25228018  0.43532000  1
  Se  Se158  1  0.42639089  0.24119508  0.95384201  1
  Se  Se159  1  0.40246507  0.59437813  0.43972913  1
  Se  Se160  1  0.41523088  0.58131086  0.94301054  1
  Se  Se161  1  0.39680733  0.92026598  0.42760828  1
  Se  Se162  1  0.41357656  0.92529560  0.94565956  1
  Se  Se163  1  0.76895297  0.23870617  0.44448335  1
  Se  Se164  1  0.75212732  0.25399060  0.94832022  1
  Se  Se165  1  0.75432800  0.57047956  0.44006968  1
  Se  Se166  1  0.75296303  0.57803740  0.95384185  1
  Se  Se167  1  0.74622975  0.92300676  0.44246719  1
  Se  Se168  1  0.75037963  0.92315858  0.95171966  1
  Se  Se169  1  0.25134788  0.09658654  0.43713154  1
  Se  Se170  1  0.25522715  0.07943900  0.94576826  1
  Se  Se171  1  0.24443424  0.41930005  0.44883885  1
  Se  Se172  1  0.25385929  0.40424051  0.94616724  1
  Se  Se173  1  0.23808769  0.75575858  0.43975840  1
  Se  Se174  1  0.25085891  0.74093224  0.93941290  1
  Se  Se175  1  0.59080954  0.08427765  0.43702526  1
  Se  Se176  1  0.57955244  0.09014295  0.95360130  1
  Se  Se177  1  0.58715540  0.40020864  0.43152597  1
  Se  Se178  1  0.59243025  0.41615529  0.94094559  1
  Se  Se179  1  0.59143024  0.73900284  0.43867028  1
  Se  Se180  1  0.59301610  0.74360072  0.94421006  1
  Se  Se181  1  0.91348311  0.08732893  0.45434213  1
  Se  Se182  1  0.92300184  0.09106191  0.94123913  1
  Se  Se183  1  0.91820035  0.41796178  0.44514493  1
  Se  Se184  1  0.91942841  0.41578590  0.94674289  1
  Se  Se185  1  0.92242525  0.73680774  0.43373506  1
  Se  Se186  1  0.90921409  0.76883026  0.94973841  1
  Se  Se187  1  0.27651470  0.28045826  0.30639166  1
  Se  Se188  1  0.24738124  0.25034095  0.80247273  1
  Se  Se189  1  0.24715686  0.58222979  0.30404223  1
  Se  Se190  1  0.24679344  0.58043502  0.80147630  1
  Se  Se191  1  0.25332007  0.93589779  0.30019895  1
  Se  Se192  1  0.24288417  0.90776357  0.81390548  1
  Se  Se193  1  0.57778852  0.23362100  0.29414110  1
  Se  Se194  1  0.57950154  0.25222373  0.81415327  1
  Se  Se195  1  0.59091783  0.58624634  0.30036854  1
  Se  Se196  1  0.56865083  0.57599404  0.80793138  1
  Se  Se197  1  0.57318986  0.91368763  0.31705385  1
  Se  Se198  1  0.57006116  0.90076060  0.80560838  1
  Se  Se199  1  0.92084508  0.25373848  0.30243449  1
  Se  Se200  1  0.91665419  0.26327197  0.79659643  1
  Se  Se201  1  0.92342751  0.58031889  0.30058217  1
  Se  Se202  1  0.92045677  0.58530884  0.81237501  1
  Se  Se203  1  0.91001721  0.90154394  0.31075560  1
  Se  Se204  1  0.91840146  0.92273970  0.80736726  1
  Se  Se205  1  0.07581392  0.08604552  0.31825241  1
  Se  Se206  1  0.08137358  0.08306836  0.79683869  1
  Se  Se207  1  0.08332150  0.41246137  0.30596230  1
  Se  Se208  1  0.08146699  0.41547284  0.79917306  1
  Se  Se209  1  0.09251023  0.75526202  0.29815255  1
  Se  Se210  1  0.08029088  0.74881493  0.80268017  1
  Se  Se211  1  0.42729611  0.09048982  0.28894273  1
  Se  Se212  1  0.41731081  0.08807303  0.81747194  1
  Se  Se213  1  0.42793633  0.43118793  0.30765211  1
  Se  Se214  1  0.41147866  0.41206491  0.80556001  1
  Se  Se215  1  0.41600024  0.74965372  0.30269478  1
  Se  Se216  1  0.40584772  0.74102141  0.79977651  1
  Se  Se217  1  0.75897515  0.08755214  0.31111848  1
  Se  Se218  1  0.75899111  0.09795967  0.81114318  1
  Se  Se219  1  0.75544177  0.41266427  0.30058203  1
  Se  Se220  1  0.75563207  0.42570231  0.80739855  1
  Se  Se221  1  0.74461502  0.74192687  0.29789257  1
  Se  Se222  1  0.76467576  0.75337299  0.82022128  1
  Se  Se223  1  0.24425351  0.08847656  0.21009157  1
  Se  Se224  1  0.24589107  0.08905778  0.68795565  1
  Se  Se225  1  0.24705819  0.41869880  0.20044854  1
  Se  Se226  1  0.25048051  0.41288337  0.69450127  1
  Se  Se227  1  0.24503242  0.74390212  0.20100355  1
  Se  Se228  1  0.24969233  0.74612532  0.69377095  1
  Se  Se229  1  0.58718738  0.08680103  0.18545065  1
  Se  Se230  1  0.58133256  0.09511892  0.69980607  1
  Se  Se231  1  0.58577047  0.41567547  0.19807993  1
  Se  Se232  1  0.57326302  0.42997539  0.68849982  1
  Se  Se233  1  0.58310794  0.75261263  0.19844122  1
  Se  Se234  1  0.57525323  0.74752142  0.68572861  1
  Se  Se235  1  0.91055109  0.08378929  0.19305583  1
  Se  Se236  1  0.92337648  0.08294261  0.69826348  1
  Se  Se237  1  0.92348515  0.41231717  0.19288508  1
  Se  Se238  1  0.91275310  0.42291282  0.69158522  1
  Se  Se239  1  0.92304911  0.74179054  0.19617512  1
  Se  Se240  1  0.91820395  0.74642540  0.70097655  1
  Se  Se241  1  0.09443162  0.22883975  0.20527673  1
  Se  Se242  1  0.08275494  0.25499002  0.69294503  1
  Se  Se243  1  0.07878979  0.58043023  0.19368423  1
  Se  Se244  1  0.08078509  0.58362771  0.69230155  1
  Se  Se245  1  0.09310711  0.90634891  0.18694231  1
  Se  Se246  1  0.08792567  0.91545405  0.69762792  1
  Se  Se247  1  0.40512320  0.26133951  0.20414230  1
  Se  Se248  1  0.41288875  0.25362996  0.70289900  1
  Se  Se249  1  0.41293557  0.58621368  0.19558767  1
  Se  Se250  1  0.40449444  0.58671966  0.69662585  1
  Se  Se251  1  0.41473552  0.91435587  0.19767818  1
  Se  Se252  1  0.42014702  0.91318476  0.68587789  1
  Se  Se253  1  0.75398887  0.25608914  0.19652919  1
  Se  Se254  1  0.75967634  0.24550717  0.68945982  1
  Se  Se255  1  0.75605045  0.57935375  0.19565303  1
  Se  Se256  1  0.75257864  0.58461119  0.69464168  1
  Se  Se257  1  0.76197833  0.91359801  0.19438674  1
  Se  Se258  1  0.75993366  0.91042532  0.69288234  1
