# generated using pymatgen
data_In86Cu29Se144
_symmetry_space_group_name_H-M   'P 1'
_cell_length_a   17.57101320
_cell_length_b   17.56815716
_cell_length_c   23.42259072
_cell_angle_alpha   89.99401793
_cell_angle_beta   89.97592205
_cell_angle_gamma   90.00648641
_symmetry_Int_Tables_number   1
_chemical_formula_structural   In86Cu29Se144
_chemical_formula_sum   'In86 Cu29 Se144'
_cell_volume   7230.32633196
_cell_formula_units_Z   1
loop_
 _symmetry_equiv_pos_site_id
 _symmetry_equiv_pos_as_xyz
  1  'x, y, z'
loop_
 _atom_site_type_symbol
 _atom_site_label
 _atom_site_symmetry_multiplicity
 _atom_site_fract_x
 _atom_site_fract_y
 _atom_site_fract_z
 _atom_site_occupancy
  In  In0  1  0.01338636  0.18128800  0.11833171  1
  In  In1  1  0.00051617  0.16616391  0.62108678  1
  In  In2  1  -0.00808601  0.49727627  0.11877524  1
  In  In3  1  0.00131197  0.47605838  0.62962549  1
  In  In4  1  -0.00660833  0.82674876  0.12589283  1
  In  In5  1  0.00316912  0.84740525  0.63052142  1
  In  In6  1  0.33341080  0.17320322  0.13098578  1
  In  In7  1  0.33194647  0.17991745  0.61590872  1
  In  In8  1  0.31919178  0.48716322  0.12478290  1
  In  In9  1  0.32919471  0.49585805  0.61757472  1
  In  In10  1  0.34765560  0.83264339  0.13097487  1
  In  In11  1  0.33236327  0.82203789  0.62413033  1
  In  In12  1  0.66724514  0.16897197  0.12843236  1
  In  In13  1  0.66967600  0.16160600  0.60774358  1
  In  In14  1  0.67963947  0.48464711  0.13872734  1
  In  In15  1  0.65791708  0.51083000  0.62192853  1
  In  In16  1  0.67402222  0.84045878  0.14559670  1
  In  In17  1  0.67418124  0.84453593  0.60306994  1
  In  In18  1  0.18758356  0.00551446  0.37017919  1
  In  In19  1  0.16714197  0.01931900  0.87463137  1
  In  In20  1  0.16558870  0.33268859  0.37651561  1
  In  In21  1  0.16557143  0.33170521  0.87447198  1
  In  In22  1  0.16379374  0.65174912  0.37783460  1
  In  In23  1  0.15807703  0.64468119  0.87311244  1
  In  In24  1  0.50332110  0.00788767  0.38454986  1
  In  In25  1  0.50825721  0.00207135  0.87360420  1
  In  In26  1  0.49589392  0.32748945  0.38246105  1
  In  In27  1  0.48367125  0.33472865  0.87492360  1
  In  In28  1  0.50849043  0.65451957  0.37768862  1
  In  In29  1  0.49765687  0.67380205  0.86893475  1
  In  In30  1  0.82196955  0.00409573  0.38271821  1
  In  In31  1  0.84664196  -0.00041002  0.87170678  1
  In  In32  1  0.82240693  0.32067266  0.36428041  1
  In  In33  1  0.84668658  0.31991708  0.88336347  1
  In  In34  1  0.82726887  0.68166789  0.37357865  1
  In  In35  1  0.83012977  0.66595399  0.87985060  1
  In  In36  1  -0.01183811  0.17591901  0.37738407  1
  In  In37  1  -0.00023673  0.16933053  0.87236033  1
  In  In38  1  0.01513806  0.48861488  0.37771273  1
  In  In39  1  0.02042138  0.48455629  0.88903224  1
  In  In40  1  -0.00880413  0.82951863  0.37981796  1
  In  In41  1  -0.01059042  0.84129035  0.86483329  1
  In  In42  1  0.33878059  0.17417683  0.38322823  1
  In  In43  1  0.32035936  0.17605607  0.88214541  1
  In  In44  1  0.33157843  0.48342973  0.38200695  1
  In  In45  1  0.31825607  0.48144242  0.86527329  1
  In  In46  1  0.33494361  0.85171262  0.37316572  1
  In  In47  1  0.34616551  0.82937059  0.86623536  1
  In  In48  1  0.66598285  0.16359752  0.38039517  1
  In  In49  1  0.66525789  0.16768260  0.88603881  1
  In  In50  1  0.65549091  0.48795308  0.36303932  1
  In  In51  1  0.67126825  0.51062504  0.88090488  1
  In  In52  1  0.66820520  0.83459040  0.37563128  1
  In  In53  1  0.66866057  0.83156742  0.87299490  1
  In  In54  1  0.16095402  0.01911602  0.12943654  1
  In  In55  1  0.14667117  0.00091737  0.62704458  1
  In  In56  1  0.16972745  0.33710005  0.13152884  1
  In  In57  1  0.16942223  0.32830238  0.61540284  1
  In  In58  1  0.16335346  0.65319493  0.11707091  1
  In  In59  1  0.18531967  0.67320883  0.62756243  1
  In  In60  1  0.49675841  0.01320504  0.13651267  1
  In  In61  1  0.50837095  0.00482338  0.60805033  1
  In  In62  1  0.50872513  0.31928034  0.13551455  1
  In  In63  1  0.47893467  0.32065502  0.60431575  1
  In  In64  1  0.50521200  0.67778840  0.12947892  1
  In  In65  1  0.48961414  0.65665532  0.61234760  1
  In  In66  1  0.81652372  0.00248640  0.13038870  1
  In  In67  1  0.83885538  0.00523082  0.61684972  1
  In  In68  1  0.83748209  0.33290763  0.12555479  1
  In  In69  1  0.84604067  0.32708426  0.62698109  1
  In  In70  1  0.83752726  0.65754865  0.13022620  1
  In  In71  1  0.82373396  0.66691914  0.62409894  1
  In  In72  1  0.66338500  0.66993970  0.75014834  1
  In  In73  1  0.50249401  0.49882323  0.00044156  1
  In  In74  1  0.83052910  0.49853627  0.50227839  1
  In  In75  1  0.16712067  0.83720968  0.50537827  1
  In  In76  1  0.00448859  0.66600175  0.75223232  1
  In  In77  1  0.66385036  0.33681738  0.74608675  1
  In  In78  1  0.66963556  0.00117938  0.73519976  1
  In  In79  1  -0.00467349  0.00341525  0.25511568  1
  In  In80  1  0.83358847  0.83739225  -0.00356092  1
  In  In81  1  0.33545681  0.65890805  0.25517314  1
  In  In82  1  -0.00406802  0.66131397  0.24564089  1
  In  In83  1  0.50214165  0.83795232  -0.00286167  1
  In  In84  1  0.17250554  0.83907295  -0.00349555  1
  In  In85  1  0.32813292  0.00176748  0.74577516  1
  Cu  Cu86  1  0.49946658  0.82433479  0.73743404  1
  Cu  Cu87  1  0.49662177  0.49548913  0.25474819  1
  Cu  Cu88  1  0.16000205  0.17575391  0.74974849  1
  Cu  Cu89  1  0.16836612  0.82879928  0.24991661  1
  Cu  Cu90  1  -0.00195798  0.32593669  0.49904099  1
  Cu  Cu91  1  0.83405111  0.17021616  0.24898702  1
  Cu  Cu92  1  0.00139620  0.33121357  0.00189786  1
  Cu  Cu93  1  0.33282264  0.66761292  0.49738838  1
  Cu  Cu94  1  0.50505122  0.84323711  0.25668359  1
  Cu  Cu95  1  0.33029133  0.32647891  0.00205633  1
  Cu  Cu96  1  0.66821317  0.33460797  0.49204499  1
  Cu  Cu97  1  0.67705733  0.65945297  0.00862695  1
  Cu  Cu98  1  0.32851257  0.65549354  -0.00621336  1
  Cu  Cu99  1  -0.00009223  0.66198624  0.49889972  1
  Cu  Cu100  1  0.50148130  0.16597789  0.26004337  1
  Cu  Cu101  1  0.67060118  0.33247356  0.00966647  1
  Cu  Cu102  1  0.84129153  0.49367947  0.75858887  1
  Cu  Cu103  1  0.83720379  0.49979973  0.25007166  1
  Cu  Cu104  1  0.48950294  0.17579324  0.74595268  1
  Cu  Cu105  1  0.00292279  0.00404842  0.49906209  1
  Cu  Cu106  1  0.33204960  0.01021794  0.00878419  1
  Cu  Cu107  1  0.33585658  0.00802462  0.49888075  1
  Cu  Cu108  1  -0.00223212  0.01193747  -0.00191180  1
  Cu  Cu109  1  0.48511153  0.50034205  0.73923069  1
  Cu  Cu110  1  0.17102760  0.49426617  0.74762993  1
  Cu  Cu111  1  0.83867798  0.16094985  0.74822408  1
  Cu  Cu112  1  0.65863952  0.00897337  0.00780075  1
  Cu  Cu113  1  0.66501499  0.66936850  0.49352622  1
  Cu  Cu114  1  0.17548740  0.17325314  0.25162011  1
  Se  Se115  1  0.08767276  0.08881084  0.05005873  1
  Se  Se116  1  0.08770634  0.08800368  0.55004289  1
  Se  Se117  1  0.08357189  0.41238619  0.05843392  1
  Se  Se118  1  0.07976353  0.41329923  0.54987519  1
  Se  Se119  1  0.07959075  0.74928555  0.05476664  1
  Se  Se120  1  0.07690521  0.74304819  0.56257948  1
  Se  Se121  1  0.41879562  0.08897699  0.06153695  1
  Se  Se122  1  0.41783028  0.09339949  0.55150164  1
  Se  Se123  1  0.41677407  0.40578933  0.06026375  1
  Se  Se124  1  0.43569712  0.44115719  0.55230391  1
  Se  Se125  1  0.40896202  0.73894489  0.05170736  1
  Se  Se126  1  0.41526725  0.75390448  0.54823621  1
  Se  Se127  1  0.75037272  0.08772704  0.05584360  1
  Se  Se128  1  0.73880650  0.06178662  0.54776307  1
  Se  Se129  1  0.75423089  0.42027475  0.05673565  1
  Se  Se130  1  0.74165002  0.40695491  0.56415961  1
  Se  Se131  1  0.74496061  0.75438769  0.06471947  1
  Se  Se132  1  0.75495519  0.74458953  0.54677430  1
  Se  Se133  1  0.24667417  0.24896121  0.06016236  1
  Se  Se134  1  0.26558721  0.26862829  0.54151206  1
  Se  Se135  1  0.25017819  0.57337440  0.05027635  1
  Se  Se136  1  0.24721943  0.58753004  0.55123783  1
  Se  Se137  1  0.25765295  0.92204530  0.06620338  1
  Se  Se138  1  0.25726978  0.92992098  0.56346842  1
  Se  Se139  1  0.58260714  0.24800186  0.05607376  1
  Se  Se140  1  0.58516678  0.25119562  0.54692563  1
  Se  Se141  1  0.59069755  0.58418919  0.06646448  1
  Se  Se142  1  0.58255192  0.58296390  0.54472774  1
  Se  Se143  1  0.58768074  0.91899384  0.06614108  1
  Se  Se144  1  0.57527165  0.91100614  0.54135494  1
  Se  Se145  1  0.91438961  0.24848073  0.05306245  1
  Se  Se146  1  0.91120446  0.24368654  0.55089572  1
  Se  Se147  1  0.92569559  0.59960289  0.05588403  1
  Se  Se148  1  0.92454687  0.58292981  0.56524721  1
  Se  Se149  1  0.92192498  0.92878504  0.06002248  1
  Se  Se150  1  0.92447104  0.91599645  0.55272149  1
  Se  Se151  1  0.08294363  0.24472228  0.44490773  1
  Se  Se152  1  0.08242578  0.24909496  0.94349289  1
  Se  Se153  1  0.08428388  0.57609887  0.45155566  1
  Se  Se154  1  0.08654998  0.58216662  0.95494308  1
  Se  Se155  1  0.08305230  0.92465553  0.43683678  1
  Se  Se156  1  0.07423764  0.92590298  0.93922587  1
  Se  Se157  1  0.40266795  0.26570784  0.45715403  1
  Se  Se158  1  0.41740335  0.24722110  0.94838652  1
  Se  Se159  1  0.41085563  0.58276899  0.44101216  1
  Se  Se160  1  0.41351816  0.58136621  0.93304200  1
  Se  Se161  1  0.41610447  0.91852876  0.44941262  1
  Se  Se162  1  0.40513066  0.92959736  0.94226578  1
  Se  Se163  1  0.75571287  0.24879141  0.44647621  1
  Se  Se164  1  0.75111902  0.24999994  0.95065139  1
  Se  Se165  1  0.74326032  0.58140893  0.43551227  1
  Se  Se166  1  0.75921998  0.57952968  0.95319014  1
  Se  Se167  1  0.75945851  0.90277243  0.44715086  1
  Se  Se168  1  0.73635005  0.93063075  0.94153094  1
  Se  Se169  1  0.24821226  0.08816208  0.44830712  1
  Se  Se170  1  0.24632095  0.08733715  0.95248147  1
  Se  Se171  1  0.23612562  0.41930322  0.45074911  1
  Se  Se172  1  0.24919076  0.41209729  0.94716094  1
  Se  Se173  1  0.25207422  0.74950135  0.43719543  1
  Se  Se174  1  0.25769829  0.74468189  0.93485526  1
  Se  Se175  1  0.58195442  0.09188839  0.45414325  1
  Se  Se176  1  0.57447739  0.08545327  0.94941448  1
  Se  Se177  1  0.58302913  0.42011779  0.44431527  1
  Se  Se178  1  0.59238790  0.40581959  0.94061140  1
  Se  Se179  1  0.57856182  0.75162915  0.44255994  1
  Se  Se180  1  0.59583812  0.73630229  0.94532123  1
  Se  Se181  1  0.91609914  0.08360173  0.44533878  1
  Se  Se182  1  0.91186215  0.08985261  0.94306949  1
  Se  Se183  1  0.91438540  0.40686599  0.43961069  1
  Se  Se184  1  0.91619434  0.41634383  0.94955882  1
  Se  Se185  1  0.91458248  0.74587470  0.45039708  1
  Se  Se186  1  0.92886413  0.74760841  0.94170446  1
  Se  Se187  1  0.25633332  0.25230567  0.30980152  1
  Se  Se188  1  0.25042191  0.25156619  0.80323641  1
  Se  Se189  1  0.24131707  0.56688832  0.30662530  1
  Se  Se190  1  0.25034374  0.58182062  0.80065292  1
  Se  Se191  1  0.25293031  0.91766615  0.29528811  1
  Se  Se192  1  0.24509950  0.91551773  0.81331428  1
  Se  Se193  1  0.58438483  0.25107097  0.31296645  1
  Se  Se194  1  0.57695549  0.24477877  0.80879019  1
  Se  Se195  1  0.58321924  0.58509013  0.29747044  1
  Se  Se196  1  0.57193809  0.56967499  0.80406555  1
  Se  Se197  1  0.58443380  0.92647765  0.31229562  1
  Se  Se198  1  0.57755098  0.90643161  0.79953862  1
  Se  Se199  1  0.92164805  0.25386114  0.29763912  1
  Se  Se200  1  0.91618180  0.25022808  0.80105233  1
  Se  Se201  1  0.91295526  0.57611853  0.31658973  1
  Se  Se202  1  0.91908695  0.57594530  0.81707639  1
  Se  Se203  1  0.90669082  0.91047200  0.31049044  1
  Se  Se204  1  0.91079905  0.91990528  0.79453924  1
  Se  Se205  1  0.09093945  0.09258181  0.31038572  1
  Se  Se206  1  0.08082436  0.08613393  0.80066175  1
  Se  Se207  1  0.07816612  0.40462877  0.30292302  1
  Se  Se208  1  0.08434947  0.41628062  0.80410045  1
  Se  Se209  1  0.08826346  0.75218651  0.31043432  1
  Se  Se210  1  0.09388134  0.75625909  0.81239110  1
  Se  Se211  1  0.41593122  0.08515304  0.31405003  1
  Se  Se212  1  0.41859387  0.08975932  0.80869666  1
  Se  Se213  1  0.41679234  0.41156043  0.30892174  1
  Se  Se214  1  0.41279116  0.41159879  0.79730625  1
  Se  Se215  1  0.42211800  0.75618621  0.31117832  1
  Se  Se216  1  0.41690487  0.74356978  0.79273017  1
  Se  Se217  1  0.75378924  0.08934074  0.30717002  1
  Se  Se218  1  0.74811142  0.08923966  0.80713387  1
  Se  Se219  1  0.74955961  0.41413147  0.29804900  1
  Se  Se220  1  0.75267103  0.41735334  0.81511188  1
  Se  Se221  1  0.73969166  0.74702461  0.30211968  1
  Se  Se222  1  0.76295619  0.75904393  0.80415045  1
  Se  Se223  1  0.25333789  0.08322768  0.19961541  1
  Se  Se224  1  0.24093727  0.09642584  0.68700599  1
  Se  Se225  1  0.26009370  0.40650225  0.20322113  1
  Se  Se226  1  0.24838182  0.41295292  0.68778268  1
  Se  Se227  1  0.24479447  0.74691454  0.18795881  1
  Se  Se228  1  0.24649462  0.76276552  0.70053266  1
  Se  Se229  1  0.58786647  0.08815974  0.20258412  1
  Se  Se230  1  0.57296602  0.09749890  0.68721665  1
  Se  Se231  1  0.58281381  0.41230390  0.20182531  1
  Se  Se232  1  0.57145998  0.42030816  0.68420766  1
  Se  Se233  1  0.58235232  0.75332934  0.20356304  1
  Se  Se234  1  0.58478215  0.75165880  0.67684695  1
  Se  Se235  1  0.91669978  0.09321106  0.18678763  1
  Se  Se236  1  0.91975807  0.07998826  0.69124094  1
  Se  Se237  1  0.91972617  0.41775646  0.19507107  1
  Se  Se238  1  0.91722544  0.40628839  0.70407872  1
  Se  Se239  1  0.90206878  0.76228327  0.19980635  1
  Se  Se240  1  0.91197898  0.75068912  0.69035712  1
  Se  Se241  1  0.08512959  0.25063530  0.19921724  1
  Se  Se242  1  0.08130025  0.25430066  0.68780716  1
  Se  Se243  1  0.09066845  0.57096247  0.19284375  1
  Se  Se244  1  0.08964933  0.57525466  0.68765201  1
  Se  Se245  1  0.08620702  0.91005591  0.19152333  1
  Se  Se246  1  0.09618627  0.90766584  0.70160370  1
  Se  Se247  1  0.41753699  0.24833726  0.20448117  1
  Se  Se248  1  0.40990183  0.25865636  0.69113824  1
  Se  Se249  1  0.42317617  0.57460864  0.18718632  1
  Se  Se250  1  0.40613769  0.58820033  0.68807671  1
  Se  Se251  1  0.41797121  0.92007435  0.20113044  1
  Se  Se252  1  0.42614989  0.91929407  0.68467544  1
  Se  Se253  1  0.75053306  0.25442075  0.19523487  1
  Se  Se254  1  0.75078876  0.23721230  0.68992794  1
  Se  Se255  1  0.75077921  0.58536013  0.20115348  1
  Se  Se256  1  0.75771793  0.56977641  0.69820810  1
  Se  Se257  1  0.74925745  0.93059221  0.21024172  1
  Se  Se258  1  0.75918198  0.90461257  0.68498207  1
