# generated using pymatgen
data_In86Cu29Se144
_symmetry_space_group_name_H-M   'P 1'
_cell_length_a   17.56358565
_cell_length_b   17.56194330
_cell_length_c   23.41736508
_cell_angle_alpha   90.02167320
_cell_angle_beta   90.00577476
_cell_angle_gamma   89.98733235
_symmetry_Int_Tables_number   1
_chemical_formula_structural   In86Cu29Se144
_chemical_formula_sum   'In86 Cu29 Se144'
_cell_volume   7223.10181052
_cell_formula_units_Z   1
loop_
 _symmetry_equiv_pos_site_id
 _symmetry_equiv_pos_as_xyz
  1  'x, y, z'
loop_
 _atom_site_type_symbol
 _atom_site_label
 _atom_site_symmetry_multiplicity
 _atom_site_fract_x
 _atom_site_fract_y
 _atom_site_fract_z
 _atom_site_occupancy
  In  In0  1  0.00657574  0.15135476  0.12100531  1
  In  In1  1  -0.00525003  0.17291045  0.63228485  1
  In  In2  1  0.00326491  0.50972029  0.12909819  1
  In  In3  1  -0.00452997  0.49288207  0.62459189  1
  In  In4  1  -0.00417345  0.81966391  0.13169232  1
  In  In5  1  0.01968603  0.86277188  0.58892569  1
  In  In6  1  0.33620222  0.16181514  0.12396927  1
  In  In7  1  0.33681762  0.16045007  0.63245630  1
  In  In8  1  0.34054271  0.47958473  0.13770416  1
  In  In9  1  0.33572069  0.48763807  0.62239456  1
  In  In10  1  0.33727544  0.84198122  0.14471022  1
  In  In11  1  0.34270934  0.84420492  0.61260100  1
  In  In12  1  0.66713005  0.18246027  0.12711007  1
  In  In13  1  0.66455361  0.16654579  0.62416526  1
  In  In14  1  0.66097423  0.49714024  0.12502848  1
  In  In15  1  0.65914514  0.50432645  0.62356656  1
  In  In16  1  0.65853627  0.82712873  0.13996710  1
  In  In17  1  0.67411836  0.84649056  0.61014061  1
  In  In18  1  0.16447449  -0.00918175  0.38041058  1
  In  In19  1  0.19429732  0.04098919  0.83861573  1
  In  In20  1  0.18807059  0.32692307  0.36863940  1
  In  In21  1  0.15761418  0.31560758  0.86427453  1
  In  In22  1  0.17414001  0.67316813  0.36776397  1
  In  In23  1  0.16475534  0.67304415  0.87752769  1
  In  In24  1  0.48889529  0.01099402  0.38281515  1
  In  In25  1  0.51203507  0.01115790  0.86487255  1
  In  In26  1  0.50480837  0.33312050  0.37533171  1
  In  In27  1  0.50000855  0.33428840  0.87310179  1
  In  In28  1  0.49592955  0.66735863  0.37194292  1
  In  In29  1  0.49147362  0.66359081  0.88038270  1
  In  In30  1  0.84716606  -0.00719401  0.39738207  1
  In  In31  1  0.83968110  0.00968329  0.86043601  1
  In  In32  1  0.82350219  0.33799658  0.37652934  1
  In  In33  1  0.83570259  0.33955693  0.87412531  1
  In  In34  1  0.84333865  0.69240400  0.35309908  1
  In  In35  1  0.81859205  0.66513468  0.87959496  1
  In  In36  1  0.00255191  0.15208724  0.38543511  1
  In  In37  1  0.00621962  0.17241820  0.86239057  1
  In  In38  1  -0.00643056  0.50832287  0.37535519  1
  In  In39  1  0.00184618  0.48305059  0.88200327  1
  In  In40  1  0.00381296  0.82849749  0.39114565  1
  In  In41  1  -0.00545436  0.84228260  0.87419922  1
  In  In42  1  0.34253660  0.18204146  0.36020620  1
  In  In43  1  0.34100560  0.17125383  0.87143402  1
  In  In44  1  0.34701287  0.51997953  0.35542285  1
  In  In45  1  0.35114007  0.49226296  0.88362382  1
  In  In46  1  0.33534451  0.83380820  0.37366161  1
  In  In47  1  0.32043879  0.84120460  0.87151404  1
  In  In48  1  0.66398441  0.16830414  0.38244380  1
  In  In49  1  0.65507966  0.16092786  0.86778454  1
  In  In50  1  0.65858863  0.49453336  0.37111869  1
  In  In51  1  0.67206122  0.49611796  0.88331408  1
  In  In52  1  0.67179708  0.82390026  0.37878742  1
  In  In53  1  0.65997270  0.83887071  0.86981007  1
  In  In54  1  0.17931300  0.01016164  0.11923790  1
  In  In55  1  0.17390601  0.00068327  0.62991872  1
  In  In56  1  0.18211094  0.32397571  0.13097463  1
  In  In57  1  0.17417937  0.31720021  0.64407858  1
  In  In58  1  0.17091930  0.64587128  0.15297493  1
  In  In59  1  0.15679396  0.68314471  0.61566513  1
  In  In60  1  0.48002273  -0.00130592  0.12785195  1
  In  In61  1  0.49782264  0.00571027  0.62081905  1
  In  In62  1  0.49589217  0.33320724  0.12299780  1
  In  In63  1  0.50331123  0.33509913  0.62481190  1
  In  In64  1  0.51257630  0.65676472  0.14228153  1
  In  In65  1  0.50068791  0.66436809  0.60914667  1
  In  In66  1  0.83881573  -0.00527227  0.12516659  1
  In  In67  1  0.83187798  -0.00067413  0.61864682  1
  In  In68  1  0.81198651  0.33221559  0.12670373  1
  In  In69  1  0.84099077  0.32394648  0.63374401  1
  In  In70  1  0.84539754  0.65767134  0.13982554  1
  In  In71  1  0.83389556  0.67057198  0.61699359  1
  In  In72  1  0.16061109  0.83396552  0.00138881  1
  In  In73  1  0.66871289  -0.00197192  0.25834086  1
  In  In74  1  0.33434746  0.66516775  0.75803151  1
  In  In75  1  0.50086164  0.83426471  0.00569558  1
  In  In76  1  0.17163798  0.50234665  0.49355326  1
  In  In77  1  -0.00422094  0.66737902  0.74301138  1
  In  In78  1  0.17172041  0.16694882  0.50495701  1
  In  In79  1  0.83380205  0.83261563  0.00736096  1
  In  In80  1  0.00755250  -0.00656754  0.26295735  1
  In  In81  1  0.66541635  0.67067457  0.74122999  1
  In  In82  1  0.00415648  0.33453840  0.24707603  1
  In  In83  1  0.82873853  0.50695287  0.49885991  1
  In  In84  1  0.83298961  0.17461722  -0.00730571  1
  In  In85  1  0.17164653  0.48858756  0.00917769  1
  Cu  Cu86  1  0.65285058  0.33910069  0.00178070  1
  Cu  Cu87  1  0.66699605  0.65564844  0.00944742  1
  Cu  Cu88  1  0.33016792  0.00353319  0.50004265  1
  Cu  Cu89  1  0.81760752  0.49670690  0.25173109  1
  Cu  Cu90  1  0.66766506  0.32756741  0.50124294  1
  Cu  Cu91  1  0.34767109  0.33562660  0.49686395  1
  Cu  Cu92  1  0.84037257  0.49238599  0.75376131  1
  Cu  Cu93  1  -0.00294539  0.65783994  0.01179363  1
  Cu  Cu94  1  0.83567979  0.16610820  0.25980270  1
  Cu  Cu95  1  0.50403310  0.17128484  0.25034813  1
  Cu  Cu96  1  0.49993797  0.16959130  0.74630229  1
  Cu  Cu97  1  0.33543872  0.00751113  -0.00588132  1
  Cu  Cu98  1  0.34300835  0.66158930  0.01226624  1
  Cu  Cu99  1  0.66134787  0.65789244  0.48848331  1
  Cu  Cu100  1  0.33160339  0.66715482  0.49044975  1
  Cu  Cu101  1  0.50025337  0.49177766  0.25064263  1
  Cu  Cu102  1  0.49892819  0.84781624  0.73998461  1
  Cu  Cu103  1  0.83656214  0.84195990  0.73559679  1
  Cu  Cu104  1  0.66823778  0.00363622  -0.00367333  1
  Cu  Cu105  1  0.16371087  0.83894256  0.25711168  1
  Cu  Cu106  1  -0.00309110  0.32926718  -0.00331114  1
  Cu  Cu107  1  0.82103133  0.16398168  0.74573278  1
  Cu  Cu108  1  0.02076872  0.00411152  -0.00741833  1
  Cu  Cu109  1  0.16716397  0.84007347  0.73612375  1
  Cu  Cu110  1  0.00927211  0.33370352  0.50651127  1
  Cu  Cu111  1  0.33441783  0.32489914  0.00074259  1
  Cu  Cu112  1  0.50093086  0.49508481  0.74938809  1
  Cu  Cu113  1  0.65709212  0.00429133  0.49919997  1
  Cu  Cu114  1  0.16720406  0.49216125  0.75053959  1
  Se  Se115  1  0.09784702  0.08969862  0.04751038  1
  Se  Se116  1  0.07770364  0.08284557  0.56299605  1
  Se  Se117  1  0.07394561  0.40209948  0.06608523  1
  Se  Se118  1  0.09424899  0.40962807  0.56385834  1
  Se  Se119  1  0.08646204  0.73501189  0.06688751  1
  Se  Se120  1  0.08280367  0.75029716  0.53714317  1
  Se  Se121  1  0.42216642  0.08482654  0.04991669  1
  Se  Se122  1  0.41147802  0.08947630  0.55337972  1
  Se  Se123  1  0.41064662  0.41497609  0.05348899  1
  Se  Se124  1  0.42679434  0.42177936  0.55150167  1
  Se  Se125  1  0.41495313  0.74897049  0.07168788  1
  Se  Se126  1  0.41517480  0.75022311  0.54618445  1
  Se  Se127  1  0.74972401  0.08079660  0.05894309  1
  Se  Se128  1  0.74469007  0.08423019  0.55343208  1
  Se  Se129  1  0.74398962  0.41691985  0.05230538  1
  Se  Se130  1  0.74869735  0.40976422  0.56180593  1
  Se  Se131  1  0.74369708  0.74337286  0.06714697  1
  Se  Se132  1  0.73757850  0.73765396  0.55123292  1
  Se  Se133  1  0.25032334  0.24347183  0.05389335  1
  Se  Se134  1  0.26177855  0.26317507  0.55942329  1
  Se  Se135  1  0.25454110  0.58603133  0.06815980  1
  Se  Se136  1  0.25777213  0.59190382  0.56052159  1
  Se  Se137  1  0.26659302  0.91523778  0.05538758  1
  Se  Se138  1  0.24392647  0.92053796  0.55179217  1
  Se  Se139  1  0.57857216  0.24743166  0.05380377  1
  Se  Se140  1  0.58048335  0.24869508  0.55451916  1
  Se  Se141  1  0.57310400  0.58087461  0.05838092  1
  Se  Se142  1  0.58226240  0.57422108  0.54523972  1
  Se  Se143  1  0.59456739  0.92466304  0.06388539  1
  Se  Se144  1  0.57255325  0.91724668  0.54975506  1
  Se  Se145  1  0.91994586  0.25377769  0.06421080  1
  Se  Se146  1  0.92004654  0.25397355  0.55615384  1
  Se  Se147  1  0.90852824  0.57620847  0.05918738  1
  Se  Se148  1  0.93210300  0.59031244  0.55376992  1
  Se  Se149  1  0.93944708  0.92468233  0.05561562  1
  Se  Se150  1  0.88830745  0.89663235  0.55005365  1
  Se  Se151  1  0.08719383  0.26017022  0.44051212  1
  Se  Se152  1  0.07759214  0.24646585  0.94250067  1
  Se  Se153  1  0.07836193  0.59448388  0.44081662  1
  Se  Se154  1  0.08159039  0.58451912  0.94824124  1
  Se  Se155  1  0.06384259  0.93839009  0.44936530  1
  Se  Se156  1  0.09526150  0.92497322  0.92890469  1
  Se  Se157  1  0.42049934  0.24542149  0.44173831  1
  Se  Se158  1  0.42219750  0.24886928  0.94440924  1
  Se  Se159  1  0.41482213  0.57940767  0.44248828  1
  Se  Se160  1  0.42330185  0.57972988  0.95543830  1
  Se  Se161  1  0.41224512  0.91710952  0.44720829  1
  Se  Se162  1  0.41517281  0.92090918  0.93661122  1
  Se  Se163  1  0.75523544  0.24870636  0.44800620  1
  Se  Se164  1  0.73352533  0.25966038  0.93886956  1
  Se  Se165  1  0.75098006  0.59041282  0.42793510  1
  Se  Se166  1  0.75416587  0.57909995  0.95385647  1
  Se  Se167  1  0.74054457  0.91719693  0.44913887  1
  Se  Se168  1  0.75058795  0.92286118  0.93831291  1
  Se  Se169  1  0.25872892  0.08710962  0.43591483  1
  Se  Se170  1  0.25088957  0.08448536  0.93592784  1
  Se  Se171  1  0.26717654  0.41523898  0.43757524  1
  Se  Se172  1  0.25078648  0.40301230  0.93872829  1
  Se  Se173  1  0.24652030  0.75386390  0.44352179  1
  Se  Se174  1  0.26360827  0.74047539  0.94861662  1
  Se  Se175  1  0.57500394  0.09201453  0.45023031  1
  Se  Se176  1  0.58114328  0.08459328  0.94605849  1
  Se  Se177  1  0.58740159  0.41339519  0.44730850  1
  Se  Se178  1  0.57392837  0.42352951  0.94522196  1
  Se  Se179  1  0.57702886  0.74783499  0.44379611  1
  Se  Se180  1  0.59501057  0.74217412  0.94528159  1
  Se  Se181  1  0.91182143  0.09609246  0.45914483  1
  Se  Se182  1  0.92268539  0.07629424  0.94099808  1
  Se  Se183  1  0.92497518  0.40955711  0.44603545  1
  Se  Se184  1  0.90981645  0.41652544  0.95248501  1
  Se  Se185  1  0.89882310  0.75118898  0.44406786  1
  Se  Se186  1  0.92486909  0.74109937  0.94476036  1
  Se  Se187  1  0.25257278  0.25124347  0.28962703  1
  Se  Se188  1  0.25151691  0.24421836  0.80086118  1
  Se  Se189  1  0.23064644  0.57015659  0.30167115  1
  Se  Se190  1  0.24232737  0.57185694  0.81630423  1
  Se  Se191  1  0.25024950  0.92148738  0.30683303  1
  Se  Se192  1  0.25385456  0.91860026  0.79223941  1
  Se  Se193  1  0.58947268  0.24806878  0.30688474  1
  Se  Se194  1  0.58199351  0.25421399  0.80140391  1
  Se  Se195  1  0.57879970  0.58048647  0.30341172  1
  Se  Se196  1  0.57881116  0.58297613  0.80864465  1
  Se  Se197  1  0.57718819  0.91735524  0.32075900  1
  Se  Se198  1  0.58890280  0.92091110  0.79646882  1
  Se  Se199  1  0.92028739  0.24584574  0.31548020  1
  Se  Se200  1  0.90279930  0.24481423  0.80534113  1
  Se  Se201  1  0.90653604  0.57642187  0.30271479  1
  Se  Se202  1  0.91299417  0.58065630  0.81391266  1
  Se  Se203  1  0.90959843  0.90904659  0.31586024  1
  Se  Se204  1  0.91905789  0.91589378  0.79764331  1
  Se  Se205  1  0.09770146  0.09457914  0.30925394  1
  Se  Se206  1  0.05572281  0.05618105  0.80675617  1
  Se  Se207  1  0.08546459  0.41780645  0.31683329  1
  Se  Se208  1  0.07884597  0.41454701  0.80423248  1
  Se  Se209  1  0.07807145  0.75872674  0.31041212  1
  Se  Se210  1  0.09132087  0.75936100  0.80220236  1
  Se  Se211  1  0.42139240  0.08429249  0.30045312  1
  Se  Se212  1  0.41789288  0.08347996  0.79948638  1
  Se  Se213  1  0.41589945  0.40802798  0.30387916  1
  Se  Se214  1  0.41367292  0.41554304  0.80246525  1
  Se  Se215  1  0.39117944  0.72814096  0.30830523  1
  Se  Se216  1  0.42904268  0.76543271  0.80851758  1
  Se  Se217  1  0.76346856  0.08087778  0.32041730  1
  Se  Se218  1  0.73908688  0.07870350  0.79906951  1
  Se  Se219  1  0.73997572  0.40773856  0.30261251  1
  Se  Se220  1  0.74749311  0.41998621  0.80677350  1
  Se  Se221  1  0.72919095  0.74374914  0.29642194  1
  Se  Se222  1  0.76093452  0.76091791  0.80149387  1
  Se  Se223  1  0.27057976  0.06491489  0.19293546  1
  Se  Se224  1  0.23427901  0.09942170  0.69764456  1
  Se  Se225  1  0.22169239  0.43666897  0.19384487  1
  Se  Se226  1  0.25775457  0.41581024  0.69899770  1
  Se  Se227  1  0.24584765  0.75438158  0.20261389  1
  Se  Se228  1  0.25246784  0.75197873  0.68702985  1
  Se  Se229  1  0.58380243  0.08615782  0.19002724  1
  Se  Se230  1  0.58128838  0.08311169  0.69297726  1
  Se  Se231  1  0.58259229  0.40992898  0.19379925  1
  Se  Se232  1  0.58852010  0.41756566  0.69551991  1
  Se  Se233  1  0.56737259  0.76136110  0.20891509  1
  Se  Se234  1  0.57403042  0.75899367  0.68168976  1
  Se  Se235  1  0.91373057  0.08536240  0.19831307  1
  Se  Se236  1  0.90728190  0.08305850  0.69217824  1
  Se  Se237  1  0.90364299  0.41983912  0.19129395  1
  Se  Se238  1  0.92469257  0.41202756  0.69955911  1
  Se  Se239  1  0.90846622  0.75816619  0.20488104  1
  Se  Se240  1  0.91917896  0.76121742  0.67884265  1
  Se  Se241  1  0.08866017  0.23351553  0.19204087  1
  Se  Se242  1  0.07267831  0.25301524  0.70476233  1
  Se  Se243  1  0.05907551  0.59023609  0.20993879  1
  Se  Se244  1  0.09594251  0.57777146  0.68794238  1
  Se  Se245  1  0.09074524  0.91408238  0.18677503  1
  Se  Se246  1  0.07473647  0.91410806  0.68412021  1
  Se  Se247  1  0.41719492  0.24796343  0.19289136  1
  Se  Se248  1  0.41749568  0.25456953  0.69376538  1
  Se  Se249  1  0.41372296  0.57738546  0.20056210  1
  Se  Se250  1  0.42433529  0.58223386  0.69052131  1
  Se  Se251  1  0.43875627  0.90732533  0.20693970  1
  Se  Se252  1  0.40856838  0.92618443  0.69052130  1
  Se  Se253  1  0.75216756  0.24616233  0.20445905  1
  Se  Se254  1  0.74135887  0.25371467  0.69563409  1
  Se  Se255  1  0.74088543  0.58269091  0.19493733  1
  Se  Se256  1  0.76450611  0.57513187  0.69159424  1
  Se  Se257  1  0.76253425  0.91040070  0.19669094  1
  Se  Se258  1  0.74297505  0.92099695  0.69022087  1
