# generated using pymatgen
data_In86Cu29Se144
_symmetry_space_group_name_H-M   'P 1'
_cell_length_a   17.58176289
_cell_length_b   17.58439174
_cell_length_c   23.43902163
_cell_angle_alpha   89.98646274
_cell_angle_beta   89.97862474
_cell_angle_gamma   90.04394723
_symmetry_Int_Tables_number   1
_chemical_formula_structural   In86Cu29Se144
_chemical_formula_sum   'In86 Cu29 Se144'
_cell_volume   7246.51305038
_cell_formula_units_Z   1
loop_
 _symmetry_equiv_pos_site_id
 _symmetry_equiv_pos_as_xyz
  1  'x, y, z'
loop_
 _atom_site_type_symbol
 _atom_site_label
 _atom_site_symmetry_multiplicity
 _atom_site_fract_x
 _atom_site_fract_y
 _atom_site_fract_z
 _atom_site_occupancy
  In  In0  1  -0.01099622  0.18846814  0.12653665  1
  In  In1  1  -0.00336639  0.17679568  0.62763754  1
  In  In2  1  -0.00060483  0.48430340  0.12430195  1
  In  In3  1  -0.01079812  0.48651664  0.61371441  1
  In  In4  1  -0.00097938  0.83320771  0.11970294  1
  In  In5  1  -0.00509095  0.83175197  0.61421629  1
  In  In6  1  0.32410873  0.15559630  0.12830359  1
  In  In7  1  0.34466278  0.16224647  0.63548877  1
  In  In8  1  0.33539558  0.51274166  0.12407765  1
  In  In9  1  0.32886688  0.48874521  0.61614185  1
  In  In10  1  0.33565354  0.83204788  0.12827552  1
  In  In11  1  0.33730620  0.84605872  0.62520741  1
  In  In12  1  0.67637104  0.15930108  0.13072375  1
  In  In13  1  0.68094065  0.17311633  0.61596838  1
  In  In14  1  0.66670354  0.49991039  0.13979034  1
  In  In15  1  0.65782741  0.49296662  0.60635331  1
  In  In16  1  0.66512712  0.83503690  0.12848255  1
  In  In17  1  0.67918959  0.83947424  0.61421875  1
  In  In18  1  0.16227905  -0.01628645  0.37548114  1
  In  In19  1  0.17092019  -0.00810018  0.87717429  1
  In  In20  1  0.16485988  0.34577951  0.37513579  1
  In  In21  1  0.16450493  0.33272595  0.87029109  1
  In  In22  1  0.17224842  0.66387790  0.37527461  1
  In  In23  1  0.16522814  0.66927967  0.88396968  1
  In  In24  1  0.51064139  0.01269052  0.36937086  1
  In  In25  1  0.49123076  0.00182954  0.87365114  1
  In  In26  1  0.51102984  0.31770931  0.38472626  1
  In  In27  1  0.49727994  0.32303972  0.85477903  1
  In  In28  1  0.49161475  0.66138414  0.36955044  1
  In  In29  1  0.51312256  0.67318888  0.87691375  1
  In  In30  1  0.79730003  0.03170755  0.41831347  1
  In  In31  1  0.83473640  -0.00232502  0.88096231  1
  In  In32  1  0.83169843  0.33621976  0.37538795  1
  In  In33  1  0.82842892  0.32315741  0.86100395  1
  In  In34  1  0.81137810  0.68244949  0.39008409  1
  In  In35  1  0.84166948  0.66887773  0.87670942  1
  In  In36  1  -0.02746769  0.16410480  0.38068312  1
  In  In37  1  -0.01408485  0.17263338  0.87425128  1
  In  In38  1  0.00396959  0.49538944  0.37765927  1
  In  In39  1  0.00815830  0.50127323  0.87368217  1
  In  In40  1  -0.00899094  0.85100112  0.38880348  1
  In  In41  1  0.00097868  0.83991364  0.88587987  1
  In  In42  1  0.34929216  0.16758317  0.37629054  1
  In  In43  1  0.33424591  0.16103209  0.86086456  1
  In  In44  1  0.32402395  0.50567072  0.38097247  1
  In  In45  1  0.33182757  0.48757766  0.87273920  1
  In  In46  1  0.33011448  0.82677484  0.36828285  1
  In  In47  1  0.32964094  0.84095233  0.87974192  1
  In  In48  1  0.66292880  0.17110507  0.37690185  1
  In  In49  1  0.66929814  0.17891492  0.86857500  1
  In  In50  1  0.66890816  0.50046042  0.37844392  1
  In  In51  1  0.67608094  0.49398527  0.87166894  1
  In  In52  1  0.67146738  0.84492507  0.37017728  1
  In  In53  1  0.66984827  0.83021249  0.88429849  1
  In  In54  1  0.17931731  -0.00251160  0.12834862  1
  In  In55  1  0.17901083  -0.00073899  0.62380429  1
  In  In56  1  0.14598222  0.33508226  0.12302776  1
  In  In57  1  0.16372545  0.33940604  0.62921638  1
  In  In58  1  0.17250895  0.67475211  0.12058188  1
  In  In59  1  0.16951162  0.66502834  0.61704310  1
  In  In60  1  0.51241270  -0.01065583  0.13506882  1
  In  In61  1  0.49240285  -0.00231397  0.62338170  1
  In  In62  1  0.50476758  0.34591741  0.12507492  1
  In  In63  1  0.50208482  0.33002743  0.62214268  1
  In  In64  1  0.48898551  0.67200032  0.13851360  1
  In  In65  1  0.52599411  0.66615757  0.61255819  1
  In  In66  1  0.82584995  -0.00515042  0.12225534  1
  In  In67  1  0.83540052  0.00231749  0.61077934  1
  In  In68  1  0.83792118  0.32707232  0.13393514  1
  In  In69  1  0.82983019  0.32570710  0.62377592  1
  In  In70  1  0.82015019  0.67174155  0.13279420  1
  In  In71  1  0.83471663  0.67006563  0.60986985  1
  In  In72  1  -0.00090900  0.00310532  0.75210453  1
  In  In73  1  0.16342625  0.16556963  0.50808953  1
  In  In74  1  0.00001557  0.66305284  0.25688446  1
  In  In75  1  -0.00092731  0.66382911  0.74138827  1
  In  In76  1  0.33556526  0.33192596  0.24990706  1
  In  In77  1  0.33855944  0.65996077  0.74349096  1
  In  In78  1  0.15930052  0.16061590  -0.00231470  1
  In  In79  1  0.50392432  0.16550208  -0.00675453  1
  In  In80  1  0.67004142  0.00845086  0.74150288  1
  In  In81  1  0.49936274  0.83786026  0.49661409  1
  In  In82  1  0.49961476  0.50577345  -0.00251353  1
  In  In83  1  0.83506613  0.50285567  0.00139352  1
  In  In84  1  0.67290726  0.66350130  0.74485931  1
  In  In85  1  -0.00774916  0.00235116  0.25729541  1
  Cu  Cu86  1  -0.00146814  0.33068980  0.50177664  1
  Cu  Cu87  1  0.82523470  0.16906190  0.25855728  1
  Cu  Cu88  1  -0.00063475  0.00264939  0.00255237  1
  Cu  Cu89  1  0.50122686  0.84029942  0.74993723  1
  Cu  Cu90  1  0.16727731  0.83755949  0.75509345  1
  Cu  Cu91  1  0.66938781  0.33569081  -0.00418726  1
  Cu  Cu92  1  0.50236681  0.49370504  0.73866334  1
  Cu  Cu93  1  0.33377574  0.66555385  0.49554956  1
  Cu  Cu94  1  0.50078120  0.83416369  0.25266047  1
  Cu  Cu95  1  0.82550532  0.83910928  0.25579495  1
  Cu  Cu96  1  0.66266497  0.67564079  0.00919342  1
  Cu  Cu97  1  0.50292269  0.49243564  0.25845324  1
  Cu  Cu98  1  0.01010491  0.66238255  0.49519519  1
  Cu  Cu99  1  0.67256918  0.33382894  0.49923880  1
  Cu  Cu100  1  0.16214728  0.16481497  0.24885289  1
  Cu  Cu101  1  0.32174338  0.33148866  -0.00718599  1
  Cu  Cu102  1  0.33911133  0.33399667  0.49932085  1
  Cu  Cu103  1  0.16954106  0.82884899  0.25078169  1
  Cu  Cu104  1  0.83118921  0.50072036  0.25614626  1
  Cu  Cu105  1  0.00035565  0.66965203  0.00174414  1
  Cu  Cu106  1  0.33222193  0.67418527  0.00388960  1
  Cu  Cu107  1  0.67281716  -0.00202831  0.00660950  1
  Cu  Cu108  1  0.16889056  0.16995613  0.74606122  1
  Cu  Cu109  1  0.32820339  -0.00115003  0.50038744  1
  Cu  Cu110  1  0.16747474  0.50117479  0.25323663  1
  Cu  Cu111  1  0.83026112  0.48793420  0.74127184  1
  Cu  Cu112  1  0.16628836  0.49298079  0.74856111  1
  Cu  Cu113  1  0.34137896  -0.00930656  0.00397082  1
  Cu  Cu114  1  0.50399798  0.16455687  0.25296503  1
  Se  Se115  1  0.07469817  0.07896936  0.06927854  1
  Se  Se116  1  0.07354673  0.07318201  0.56492587  1
  Se  Se117  1  0.08197222  0.41962118  0.04837085  1
  Se  Se118  1  0.08804298  0.41296597  0.55092975  1
  Se  Se119  1  0.08558434  0.75386411  0.05296200  1
  Se  Se120  1  0.08605562  0.74950546  0.55201523  1
  Se  Se121  1  0.41822848  0.07814675  0.06087250  1
  Se  Se122  1  0.40975462  0.08153168  0.55542318  1
  Se  Se123  1  0.40548666  0.40997562  0.05300736  1
  Se  Se124  1  0.42468249  0.41805418  0.55064410  1
  Se  Se125  1  0.42042074  0.74887853  0.05919492  1
  Se  Se126  1  0.41224983  0.74371698  0.55996537  1
  Se  Se127  1  0.75445470  0.08878242  0.05318117  1
  Se  Se128  1  0.74981945  0.08286326  0.54373195  1
  Se  Se129  1  0.74092407  0.41665532  0.06123445  1
  Se  Se130  1  0.76014181  0.41516767  0.55119622  1
  Se  Se131  1  0.75297527  0.75587882  0.05788724  1
  Se  Se132  1  0.72141041  0.72616124  0.55383081  1
  Se  Se133  1  0.25164204  0.25219101  0.05941035  1
  Se  Se134  1  0.25849189  0.25512866  0.56258877  1
  Se  Se135  1  0.25026441  0.58464345  0.05231988  1
  Se  Se136  1  0.25185125  0.58085991  0.55067356  1
  Se  Se137  1  0.25172059  0.91312768  0.05639551  1
  Se  Se138  1  0.24856941  0.91038843  0.55117841  1
  Se  Se139  1  0.58893289  0.25635575  0.05790091  1
  Se  Se140  1  0.58744119  0.25074908  0.55193271  1
  Se  Se141  1  0.58678529  0.58751800  0.06530270  1
  Se  Se142  1  0.58960214  0.58492302  0.53644946  1
  Se  Se143  1  0.58412106  0.91650674  0.05567862  1
  Se  Se144  1  0.59075201  0.93043943  0.55322281  1
  Se  Se145  1  0.91047002  0.26070597  0.05261285  1
  Se  Se146  1  0.91449047  0.24508145  0.55157220  1
  Se  Se147  1  0.92078622  0.59391486  0.06630298  1
  Se  Se148  1  0.92120392  0.58328076  0.54806847  1
  Se  Se149  1  0.91520200  0.91773860  0.05476035  1
  Se  Se150  1  0.89842967  0.89815952  0.54908513  1
  Se  Se151  1  0.07878467  0.25160163  0.43957664  1
  Se  Se152  1  0.07336195  0.25694182  0.94344827  1
  Se  Se153  1  0.09199926  0.57753870  0.44298482  1
  Se  Se154  1  0.07978713  0.58405161  0.94793347  1
  Se  Se155  1  0.09016457  0.91531514  0.45456317  1
  Se  Se156  1  0.08823517  0.92128054  0.95195341  1
  Se  Se157  1  0.42080484  0.24311873  0.45369904  1
  Se  Se158  1  0.40862131  0.25607775  0.93636338  1
  Se  Se159  1  0.41834738  0.58128972  0.44578148  1
  Se  Se160  1  0.40664641  0.59488016  0.93661520  1
  Se  Se161  1  0.40946543  0.92570499  0.43521186  1
  Se  Se162  1  0.42463323  0.91266013  0.94679653  1
  Se  Se163  1  0.75401571  0.24918776  0.44481871  1
  Se  Se164  1  0.75163333  0.25332034  0.94195484  1
  Se  Se165  1  0.76334100  0.56771180  0.44756808  1
  Se  Se166  1  0.73807146  0.59485375  0.94418532  1
  Se  Se167  1  0.75685700  0.89788937  0.45087911  1
  Se  Se168  1  0.75438010  0.91396230  0.95009763  1
  Se  Se169  1  0.25175895  0.08253742  0.43939779  1
  Se  Se170  1  0.26463145  0.07737713  0.94438756  1
  Se  Se171  1  0.24974448  0.41411593  0.44924161  1
  Se  Se172  1  0.24121608  0.41875180  0.94274217  1
  Se  Se173  1  0.25163726  0.75134759  0.44402848  1
  Se  Se174  1  0.24903137  0.75562062  0.94748053  1
  Se  Se175  1  0.57772541  0.09051906  0.44592582  1
  Se  Se176  1  0.59792226  0.07425716  0.93796345  1
  Se  Se177  1  0.58513562  0.41467641  0.44691754  1
  Se  Se178  1  0.58237423  0.40900778  0.93623404  1
  Se  Se179  1  0.58249067  0.75013021  0.43289155  1
  Se  Se180  1  0.57901350  0.75554509  0.95306114  1
  Se  Se181  1  0.93281833  0.06464342  0.45345037  1
  Se  Se182  1  0.91817042  0.08375593  0.94666761  1
  Se  Se183  1  0.91848905  0.41462893  0.44557388  1
  Se  Se184  1  0.91233206  0.41546904  0.93311393  1
  Se  Se185  1  0.92219055  0.74516700  0.44650435  1
  Se  Se186  1  0.91552660  0.75151277  0.94880152  1
  Se  Se187  1  0.24421599  0.24363824  0.31125949  1
  Se  Se188  1  0.25082974  0.25341534  0.80193725  1
  Se  Se189  1  0.25325151  0.58429141  0.30256305  1
  Se  Se190  1  0.24090784  0.58088091  0.80720568  1
  Se  Se191  1  0.25015299  0.91754693  0.30190910  1
  Se  Se192  1  0.25512688  0.91992345  0.80354414  1
  Se  Se193  1  0.58497376  0.25256485  0.30261847  1
  Se  Se194  1  0.58890477  0.24681875  0.79317046  1
  Se  Se195  1  0.58492343  0.58076185  0.30717017  1
  Se  Se196  1  0.57647331  0.57385038  0.80447164  1
  Se  Se197  1  0.58449486  0.92183537  0.30125815  1
  Se  Se198  1  0.58786350  0.91356079  0.80905483  1
  Se  Se199  1  0.91555436  0.25276511  0.30423804  1
  Se  Se200  1  0.92286776  0.25073457  0.79552729  1
  Se  Se201  1  0.90598677  0.58292245  0.31846165  1
  Se  Se202  1  0.90586105  0.57288326  0.80237373  1
  Se  Se203  1  0.89919945  0.92053693  0.31769192  1
  Se  Se204  1  0.91248206  0.90636121  0.80896723  1
  Se  Se205  1  0.08487258  0.09183161  0.31649309  1
  Se  Se206  1  0.09309731  0.09114754  0.81258558  1
  Se  Se207  1  0.08109692  0.41678611  0.30095436  1
  Se  Se208  1  0.07882214  0.41477003  0.80165766  1
  Se  Se209  1  0.08295778  0.76128014  0.31471645  1
  Se  Se210  1  0.08439976  0.75424259  0.80929001  1
  Se  Se211  1  0.41446823  0.08252132  0.30053127  1
  Se  Se212  1  0.43090455  0.08913344  0.79929650  1
  Se  Se213  1  0.41992366  0.41420251  0.31811787  1
  Se  Se214  1  0.41622627  0.42083385  0.79787937  1
  Se  Se215  1  0.41445467  0.74701305  0.29935053  1
  Se  Se216  1  0.42355790  0.75308088  0.80698167  1
  Se  Se217  1  0.75391201  0.08068164  0.31777733  1
  Se  Se218  1  0.76193813  0.08784910  0.80816767  1
  Se  Se219  1  0.74608951  0.41483126  0.30581163  1
  Se  Se220  1  0.74326312  0.41159533  0.79691345  1
  Se  Se221  1  0.74503947  0.74800459  0.30422268  1
  Se  Se222  1  0.75718383  0.75520418  0.80783757  1
  Se  Se223  1  0.24980488  0.07914511  0.20447185  1
  Se  Se224  1  0.25058792  0.08093447  0.69793619  1
  Se  Se225  1  0.24423632  0.42005951  0.18857834  1
  Se  Se226  1  0.25621768  0.41638862  0.69616334  1
  Se  Se227  1  0.25208609  0.74609393  0.19687849  1
  Se  Se228  1  0.24371692  0.75632879  0.69264845  1
  Se  Se229  1  0.58900488  0.08232559  0.19909790  1
  Se  Se230  1  0.57891697  0.09338528  0.68214600  1
  Se  Se231  1  0.58467184  0.40988732  0.20354060  1
  Se  Se232  1  0.59138998  0.41644106  0.68689694  1
  Se  Se233  1  0.58508190  0.75036860  0.19878890  1
  Se  Se234  1  0.58225090  0.76262841  0.68985064  1
  Se  Se235  1  0.90673558  0.09258414  0.19328962  1
  Se  Se236  1  0.90710466  0.08593687  0.69020301  1
  Se  Se237  1  0.91428840  0.41964331  0.20025720  1
  Se  Se238  1  0.91993948  0.40845918  0.69136025  1
  Se  Se239  1  0.91255596  0.76141374  0.19852846  1
  Se  Se240  1  0.90569300  0.75540923  0.68908094  1
  Se  Se241  1  0.07991903  0.25206331  0.20001266  1
  Se  Se242  1  0.08306872  0.25250923  0.69657816  1
  Se  Se243  1  0.08751946  0.57953150  0.18975277  1
  Se  Se244  1  0.08943219  0.57126523  0.68530988  1
  Se  Se245  1  0.08490317  0.91183707  0.19529402  1
  Se  Se246  1  0.08547918  0.90955162  0.69018538  1
  Se  Se247  1  0.42543336  0.24152353  0.18703160  1
  Se  Se248  1  0.40957359  0.26613813  0.69465125  1
  Se  Se249  1  0.41830442  0.57329135  0.20275233  1
  Se  Se250  1  0.43172445  0.58103488  0.67884791  1
  Se  Se251  1  0.41509844  0.91676503  0.19833761  1
  Se  Se252  1  0.41441797  0.92194545  0.69994570  1
  Se  Se253  1  0.74594926  0.25198616  0.20032452  1
  Se  Se254  1  0.75209774  0.24407749  0.69573915  1
  Se  Se255  1  0.74854262  0.58718097  0.20497293  1
  Se  Se256  1  0.75676022  0.57388620  0.68137571  1
  Se  Se257  1  0.74636037  0.92175390  0.19761002  1
  Se  Se258  1  0.76212224  0.91265421  0.68958501  1
