# generated using pymatgen
data_In86Cu29Se144
_symmetry_space_group_name_H-M   'P 1'
_cell_length_a   17.58514365
_cell_length_b   17.58449079
_cell_length_c   23.44815196
_cell_angle_alpha   90.00865133
_cell_angle_beta   90.01114458
_cell_angle_gamma   89.98512090
_symmetry_Int_Tables_number   1
_chemical_formula_structural   In86Cu29Se144
_chemical_formula_sum   'In86 Cu29 Se144'
_cell_volume   7250.77299934
_cell_formula_units_Z   1
loop_
 _symmetry_equiv_pos_site_id
 _symmetry_equiv_pos_as_xyz
  1  'x, y, z'
loop_
 _atom_site_type_symbol
 _atom_site_label
 _atom_site_symmetry_multiplicity
 _atom_site_fract_x
 _atom_site_fract_y
 _atom_site_fract_z
 _atom_site_occupancy
  In  In0  1  0.01117480  0.17638551  0.12506324  1
  In  In1  1  0.01063322  0.16641377  0.60664659  1
  In  In2  1  -0.00226118  0.48829616  0.13136936  1
  In  In3  1  0.01052073  0.51098260  0.61831122  1
  In  In4  1  -0.00762651  0.82646909  0.11925713  1
  In  In5  1  -0.00843060  0.82794245  0.62009864  1
  In  In6  1  0.31773655  0.16453676  0.12524126  1
  In  In7  1  0.33076518  0.18034154  0.62695337  1
  In  In8  1  0.33662106  0.51056365  0.11851370  1
  In  In9  1  0.32301215  0.50210517  0.63171938  1
  In  In10  1  0.33586339  0.83099620  0.12490965  1
  In  In11  1  0.32949161  0.81484105  0.62344006  1
  In  In12  1  0.67281108  0.16263054  0.13590918  1
  In  In13  1  0.66077233  0.15080314  0.62035788  1
  In  In14  1  0.65253454  0.51809683  0.14763093  1
  In  In15  1  0.66843558  0.48976789  0.61898476  1
  In  In16  1  0.66861345  0.83073531  0.12095868  1
  In  In17  1  0.67187221  0.84090511  0.61467538  1
  In  In18  1  0.18140267  0.00121305  0.37288514  1
  In  In19  1  0.16557154  0.00563286  0.88632898  1
  In  In20  1  0.15694434  0.35203000  0.38681024  1
  In  In21  1  0.17007714  0.32994278  0.88026167  1
  In  In22  1  0.16660345  0.65055249  0.36818241  1
  In  In23  1  0.16762257  0.66348954  0.87769902  1
  In  In24  1  0.49094857  -0.00884249  0.36668495  1
  In  In25  1  0.50429995  -0.01876413  0.87889194  1
  In  In26  1  0.50224428  0.32617187  0.37665903  1
  In  In27  1  0.49754161  0.35361104  0.88085587  1
  In  In28  1  0.50899703  0.67359347  0.36731868  1
  In  In29  1  0.48873224  0.67870572  0.88498532  1
  In  In30  1  0.82866106  0.00678059  0.37902639  1
  In  In31  1  0.82091729  -0.00338551  0.86928432  1
  In  In32  1  0.83453536  0.33675013  0.37192173  1
  In  In33  1  0.83697928  0.33369658  0.87330585  1
  In  In34  1  0.82647587  0.67657798  0.38264361  1
  In  In35  1  0.84728639  0.66791517  0.87599368  1
  In  In36  1  -0.01293249  0.17405453  0.38641921  1
  In  In37  1  0.00619457  0.17811758  0.87468264  1
  In  In38  1  0.01129305  0.49013745  0.37563289  1
  In  In39  1  0.00270726  0.51691349  0.87161625  1
  In  In40  1  -0.01147994  0.82753975  0.37592882  1
  In  In41  1  0.01030554  0.82808954  0.88553615  1
  In  In42  1  0.33839361  0.16510613  0.37784454  1
  In  In43  1  0.31876286  0.16562273  0.87611876  1
  In  In44  1  0.30482259  0.50402979  0.37346189  1
  In  In45  1  0.32651446  0.50464947  0.87586527  1
  In  In46  1  0.33869700  0.83846982  0.36598330  1
  In  In47  1  0.33843184  0.82005409  0.88160647  1
  In  In48  1  0.67492033  0.17785654  0.36487424  1
  In  In49  1  0.68078852  0.16122266  0.87117696  1
  In  In50  1  0.68614781  0.51768653  0.35823725  1
  In  In51  1  0.66162272  0.49814609  0.88474758  1
  In  In52  1  0.66638974  0.82914276  0.37008988  1
  In  In53  1  0.65821593  0.83634226  0.88413993  1
  In  In54  1  0.17043449  0.00490402  0.12356276  1
  In  In55  1  0.15715183  0.00942628  0.61896422  1
  In  In56  1  0.16425082  0.33472818  0.12231625  1
  In  In57  1  0.18506526  0.34765782  0.60596274  1
  In  In58  1  0.17193594  0.67270643  0.12067433  1
  In  In59  1  0.17454042  0.64914110  0.63988405  1
  In  In60  1  0.51832376  -0.01918007  0.13439371  1
  In  In61  1  0.51485273  -0.00204553  0.62508379  1
  In  In62  1  0.49355607  0.35133089  0.12695686  1
  In  In63  1  0.49700931  0.32496183  0.62665242  1
  In  In64  1  0.50379674  0.66501705  0.11944295  1
  In  In65  1  0.48388583  0.66642647  0.62350474  1
  In  In66  1  0.83119717  -0.01444342  0.13073903  1
  In  In67  1  0.82868620  -0.01362580  0.60766490  1
  In  In68  1  0.83069664  0.35293556  0.14964040  1
  In  In69  1  0.83958059  0.33474786  0.61212543  1
  In  In70  1  0.80869617  0.67215762  0.13706499  1
  In  In71  1  0.84233389  0.67550147  0.61626598  1
  In  In72  1  0.49939594  0.16540450  0.49585179  1
  In  In73  1  0.49467327  0.16292383  0.00717053  1
  In  In74  1  0.00483325  0.33686323  0.74854276  1
  In  In75  1  0.66336859  0.66858005  0.75479821  1
  In  In76  1  0.83466593  0.50786717  0.00905078  1
  In  In77  1  0.33642643  -0.00900799  0.75722392  1
  In  In78  1  0.50013134  0.50177361  0.49669394  1
  In  In79  1  0.66166324  0.33049769  0.75313131  1
  In  In80  1  0.33675888  0.33536989  0.25263228  1
  In  In81  1  0.16375926  0.83204380  0.49989680  1
  In  In82  1  0.84390418  0.16782154  -0.00181350  1
  In  In83  1  -0.00389170  -0.00369609  0.73872367  1
  In  In84  1  -0.00406452  0.66363123  0.24623102  1
  In  In85  1  -0.00313103  0.00201801  0.25805718  1
  Cu  Cu86  1  0.50554662  0.83177791  0.75490889  1
  Cu  Cu87  1  0.16849232  0.83344153  0.24490143  1
  Cu  Cu88  1  0.33130309  0.66592423  0.49923858  1
  Cu  Cu89  1  0.49752577  0.15908595  0.25141373  1
  Cu  Cu90  1  0.49575163  0.16608686  0.74853598  1
  Cu  Cu91  1  0.33285161  -0.00615246  0.00345294  1
  Cu  Cu92  1  0.66826381  -0.00573831  0.00201046  1
  Cu  Cu93  1  0.83097154  0.83546052  0.74155245  1
  Cu  Cu94  1  0.00062587  0.65982589  0.49624211  1
  Cu  Cu95  1  0.66827864  0.67016897  0.49193317  1
  Cu  Cu96  1  0.33911023  -0.00249462  0.49541422  1
  Cu  Cu97  1  0.16329681  0.82239287  0.75589590  1
  Cu  Cu98  1  0.00257910  0.33570569  0.00285490  1
  Cu  Cu99  1  0.49862939  0.50285185  0.24933782  1
  Cu  Cu100  1  0.33052229  0.33811375  0.00245010  1
  Cu  Cu101  1  0.16627542  0.17060267  0.74878336  1
  Cu  Cu102  1  0.00025252  0.00122899  0.00685063  1
  Cu  Cu103  1  0.82690040  0.15876290  0.73849011  1
  Cu  Cu104  1  -0.00369217  0.32987570  0.49608554  1
  Cu  Cu105  1  0.66407384  -0.00391070  0.49313156  1
  Cu  Cu106  1  0.32952698  0.66585803  0.00051663  1
  Cu  Cu107  1  0.83950131  0.16831139  0.25660865  1
  Cu  Cu108  1  0.16591319  0.17354813  0.24935928  1
  Cu  Cu109  1  0.00293028  0.66837849  0.00236952  1
  Cu  Cu110  1  0.50054783  0.82870840  0.24522764  1
  Cu  Cu111  1  0.83442235  0.50837300  0.74589239  1
  Cu  Cu112  1  0.48548150  0.50395252  0.75390818  1
  Cu  Cu113  1  0.66296799  0.33887403  0.00851871  1
  Cu  Cu114  1  0.67723120  0.33543296  0.49041476  1
  Se  Se115  1  0.08381552  0.08741089  0.05581374  1
  Se  Se116  1  0.08051444  0.07205081  0.54002646  1
  Se  Se117  1  0.08273078  0.42232979  0.05495825  1
  Se  Se118  1  0.07773544  0.41512646  0.55034308  1
  Se  Se119  1  0.08636478  0.75527419  0.05321571  1
  Se  Se120  1  0.08378749  0.73491413  0.56080899  1
  Se  Se121  1  0.41196078  0.06999210  0.06806623  1
  Se  Se122  1  0.41250983  0.07772709  0.56278515  1
  Se  Se123  1  0.41725939  0.42236425  0.05023380  1
  Se  Se124  1  0.41477265  0.41526953  0.56225845  1
  Se  Se125  1  0.41527689  0.74806730  0.05374436  1
  Se  Se126  1  0.41710757  0.75150767  0.54764760  1
  Se  Se127  1  0.74852232  0.08095034  0.05649475  1
  Se  Se128  1  0.74545548  0.08133713  0.54740597  1
  Se  Se129  1  0.74827487  0.41330637  0.06682628  1
  Se  Se130  1  0.75491343  0.42065172  0.54713282  1
  Se  Se131  1  0.75622853  0.74984082  0.05440126  1
  Se  Se132  1  0.75121790  0.75140223  0.54986495  1
  Se  Se133  1  0.24824285  0.25161080  0.05334790  1
  Se  Se134  1  0.23535540  0.22906271  0.55363093  1
  Se  Se135  1  0.24353772  0.58172684  0.05011885  1
  Se  Se136  1  0.25066245  0.58574120  0.55703843  1
  Se  Se137  1  0.24736848  0.91364385  0.05776661  1
  Se  Se138  1  0.25840776  0.92202446  0.56038315  1
  Se  Se139  1  0.58759010  0.25237345  0.06588189  1
  Se  Se140  1  0.59435519  0.25938541  0.55355339  1
  Se  Se141  1  0.59429071  0.57789473  0.05952139  1
  Se  Se142  1  0.59022834  0.59378930  0.55874026  1
  Se  Se143  1  0.58059463  0.91075610  0.04986608  1
  Se  Se144  1  0.57869036  0.91548666  0.54735993  1
  Se  Se145  1  0.91491255  0.26499226  0.06397997  1
  Se  Se146  1  0.91258529  0.24294002  0.54592622  1
  Se  Se147  1  0.92499428  0.59524585  0.06933369  1
  Se  Se148  1  0.91402519  0.57927833  0.55102071  1
  Se  Se149  1  0.91276880  0.91777984  0.05420142  1
  Se  Se150  1  0.93237718  0.92000440  0.54864224  1
  Se  Se151  1  0.08673631  0.24945666  0.44675572  1
  Se  Se152  1  0.08409061  0.24925909  0.95022740  1
  Se  Se153  1  0.08888831  0.57976690  0.44549831  1
  Se  Se154  1  0.08313576  0.58241190  0.94923079  1
  Se  Se155  1  0.08154797  0.91924719  0.43347359  1
  Se  Se156  1  0.08518815  0.91930344  0.95230059  1
  Se  Se157  1  0.40529190  0.26434755  0.44981914  1
  Se  Se158  1  0.41098190  0.25460920  0.94264950  1
  Se  Se159  1  0.41108310  0.58985703  0.43488426  1
  Se  Se160  1  0.41363745  0.58182781  0.94681873  1
  Se  Se161  1  0.41810065  0.91155190  0.44325823  1
  Se  Se162  1  0.41569778  0.91175492  0.94862453  1
  Se  Se163  1  0.75682373  0.24509869  0.44168236  1
  Se  Se164  1  0.74192296  0.26141394  0.94539558  1
  Se  Se165  1  0.75036874  0.57905028  0.44655167  1
  Se  Se166  1  0.74787008  0.59293135  0.94240384  1
  Se  Se167  1  0.74838907  0.91249123  0.44094788  1
  Se  Se168  1  0.75431915  0.91603574  0.94635321  1
  Se  Se169  1  0.25547412  0.08305818  0.44695566  1
  Se  Se170  1  0.25287652  0.08467695  0.95379318  1
  Se  Se171  1  0.25726183  0.41648090  0.45237170  1
  Se  Se172  1  0.24725991  0.41916143  0.94691699  1
  Se  Se173  1  0.25268577  0.74554847  0.43605752  1
  Se  Se174  1  0.24435230  0.75064177  0.94882390  1
  Se  Se175  1  0.58712817  0.07960683  0.43222357  1
  Se  Se176  1  0.59159294  0.08107676  0.94285033  1
  Se  Se177  1  0.59369468  0.41774571  0.43522568  1
  Se  Se178  1  0.57957596  0.42227254  0.95688407  1
  Se  Se179  1  0.58049950  0.75259388  0.44379103  1
  Se  Se180  1  0.58807186  0.74316474  0.94866854  1
  Se  Se181  1  0.92388455  0.07058854  0.44779009  1
  Se  Se182  1  0.92699648  0.07357559  0.93444721  1
  Se  Se183  1  0.91759747  0.41706093  0.44247008  1
  Se  Se184  1  0.92197384  0.41559204  0.94182029  1
  Se  Se185  1  0.91627472  0.75073248  0.45280138  1
  Se  Se186  1  0.91696375  0.75146956  0.95069729  1
  Se  Se187  1  0.24524640  0.25024197  0.31377753  1
  Se  Se188  1  0.24796080  0.25160388  0.80428123  1
  Se  Se189  1  0.25904620  0.59396384  0.29449339  1
  Se  Se190  1  0.25485166  0.59318077  0.80566960  1
  Se  Se191  1  0.25089550  0.91841382  0.29802500  1
  Se  Se192  1  0.23859260  0.90852558  0.81555079  1
  Se  Se193  1  0.57687319  0.24968066  0.30086257  1
  Se  Se194  1  0.57312503  0.24278533  0.81630792  1
  Se  Se195  1  0.58657947  0.58927265  0.29646585  1
  Se  Se196  1  0.57395781  0.57658954  0.81304658  1
  Se  Se197  1  0.58096511  0.91261775  0.30184066  1
  Se  Se198  1  0.59084552  0.91581664  0.80385646  1
  Se  Se199  1  0.92411318  0.25257275  0.30607886  1
  Se  Se200  1  0.90595804  0.23810050  0.80019792  1
  Se  Se201  1  0.91692311  0.58421191  0.31911500  1
  Se  Se202  1  0.91815637  0.58944452  0.79886905  1
  Se  Se203  1  0.90166095  0.90789624  0.30642083  1
  Se  Se204  1  0.91474402  0.90935124  0.80662895  1
  Se  Se205  1  0.08844300  0.09442594  0.31329160  1
  Se  Se206  1  0.08592668  0.08550219  0.80527284  1
  Se  Se207  1  0.10069766  0.42504922  0.30246289  1
  Se  Se208  1  0.09125273  0.42395398  0.81075466  1
  Se  Se209  1  0.08780175  0.75736365  0.30742050  1
  Se  Se210  1  0.07707455  0.74489443  0.80953391  1
  Se  Se211  1  0.40871171  0.08192081  0.30312696  1
  Se  Se212  1  0.42462710  0.08574498  0.81605028  1
  Se  Se213  1  0.42170322  0.42808634  0.31576840  1
  Se  Se214  1  0.40907271  0.41524739  0.80712992  1
  Se  Se215  1  0.41616561  0.74775856  0.30018920  1
  Se  Se216  1  0.41753732  0.74986965  0.80367293  1
  Se  Se217  1  0.75216889  0.08202450  0.30231110  1
  Se  Se218  1  0.74638209  0.07783803  0.79478976  1
  Se  Se219  1  0.73444648  0.39969090  0.30549826  1
  Se  Se220  1  0.75573771  0.42836241  0.80718617  1
  Se  Se221  1  0.74083299  0.73511249  0.30491366  1
  Se  Se222  1  0.75760481  0.75869433  0.80986356  1
  Se  Se223  1  0.24573756  0.08347311  0.20031413  1
  Se  Se224  1  0.24664134  0.08119736  0.69535532  1
  Se  Se225  1  0.25208895  0.42229302  0.18832610  1
  Se  Se226  1  0.24622679  0.40756168  0.69376235  1
  Se  Se227  1  0.25216268  0.74848707  0.19488792  1
  Se  Se228  1  0.25239313  0.74648400  0.70142807  1
  Se  Se229  1  0.58609408  0.07941789  0.19991898  1
  Se  Se230  1  0.58307659  0.08349782  0.69977649  1
  Se  Se231  1  0.58097580  0.41093943  0.20335603  1
  Se  Se232  1  0.57197517  0.42679686  0.69503123  1
  Se  Se233  1  0.58464157  0.74779376  0.19052164  1
  Se  Se234  1  0.57958865  0.75468213  0.68689808  1
  Se  Se235  1  0.91426634  0.09152347  0.18864388  1
  Se  Se236  1  0.91236528  0.08857816  0.67723540  1
  Se  Se237  1  0.93295371  0.41387460  0.21247134  1
  Se  Se238  1  0.90940804  0.42156264  0.68864073  1
  Se  Se239  1  0.90363301  0.76205715  0.19661499  1
  Se  Se240  1  0.91688226  0.74867092  0.69531476  1
  Se  Se241  1  0.08421249  0.25890415  0.19827794  1
  Se  Se242  1  0.08621537  0.24420398  0.68566876  1
  Se  Se243  1  0.09262334  0.57993214  0.18999566  1
  Se  Se244  1  0.07532929  0.57950528  0.70144704  1
  Se  Se245  1  0.08099208  0.91301302  0.19035560  1
  Se  Se246  1  0.09588683  0.90390158  0.68823772  1
  Se  Se247  1  0.42168859  0.24156525  0.18822102  1
  Se  Se248  1  0.41410434  0.25344679  0.70082452  1
  Se  Se249  1  0.41939440  0.58466665  0.19140168  1
  Se  Se250  1  0.40901264  0.58792279  0.69710826  1
  Se  Se251  1  0.41450242  0.91606325  0.19644790  1
  Se  Se252  1  0.42327550  0.90728522  0.69019588  1
  Se  Se253  1  0.75264796  0.24910362  0.20271862  1
  Se  Se254  1  0.74984183  0.24914414  0.68438653  1
  Se  Se255  1  0.78002204  0.55202905  0.19536064  1
  Se  Se256  1  0.74891001  0.58233297  0.68689463  1
  Se  Se257  1  0.73013833  0.92621326  0.19381362  1
  Se  Se258  1  0.75032570  0.92012821  0.68848588  1
