# generated using pymatgen
data_In86Cu29Se144
_symmetry_space_group_name_H-M   'P 1'
_cell_length_a   17.57968933
_cell_length_b   17.57744166
_cell_length_c   23.44108991
_cell_angle_alpha   89.98966776
_cell_angle_beta   90.00340726
_cell_angle_gamma   90.02214064
_symmetry_Int_Tables_number   1
_chemical_formula_structural   In86Cu29Se144
_chemical_formula_sum   'In86 Cu29 Se144'
_cell_volume   7243.43590773
_cell_formula_units_Z   1
loop_
 _symmetry_equiv_pos_site_id
 _symmetry_equiv_pos_as_xyz
  1  'x, y, z'
loop_
 _atom_site_type_symbol
 _atom_site_label
 _atom_site_symmetry_multiplicity
 _atom_site_fract_x
 _atom_site_fract_y
 _atom_site_fract_z
 _atom_site_occupancy
  In  In0  1  -0.00806574  0.17111571  0.13719735  1
  In  In1  1  0.00272061  0.17117970  0.61997703  1
  In  In2  1  -0.00644966  0.50045750  0.12638447  1
  In  In3  1  -0.00864435  0.50670930  0.62850640  1
  In  In4  1  0.00692034  0.82771547  0.14563802  1
  In  In5  1  -0.01275983  0.83471031  0.61886044  1
  In  In6  1  0.33898658  0.15259406  0.12455242  1
  In  In7  1  0.32945793  0.15316681  0.62167662  1
  In  In8  1  0.34438872  0.50274860  0.11888840  1
  In  In9  1  0.34572062  0.50399040  0.63173739  1
  In  In10  1  0.33870179  0.83056150  0.12873718  1
  In  In11  1  0.34565550  0.83101989  0.63195176  1
  In  In12  1  0.66412016  0.14734385  0.11175638  1
  In  In13  1  0.67466221  0.17145548  0.62108470  1
  In  In14  1  0.66665728  0.49232875  0.11607424  1
  In  In15  1  0.66648730  0.48757185  0.63142287  1
  In  In16  1  0.65975367  0.85901537  0.12333761  1
  In  In17  1  0.67031510  0.83485866  0.61906914  1
  In  In18  1  0.17439480  0.00274847  0.36741803  1
  In  In19  1  0.17691033  -0.00871035  0.87825172  1
  In  In20  1  0.14802369  0.32966025  0.37399584  1
  In  In21  1  0.15917774  0.33879832  0.87045344  1
  In  In22  1  0.17326194  0.68670098  0.35556955  1
  In  In23  1  0.16726958  0.66916045  0.86772734  1
  In  In24  1  0.50196922  -0.00084438  0.37203225  1
  In  In25  1  0.49099462  0.00830486  0.88624630  1
  In  In26  1  0.48940570  0.32255768  0.37441139  1
  In  In27  1  0.51666260  0.32459816  0.87886691  1
  In  In28  1  0.50374441  0.68455805  0.37503567  1
  In  In29  1  0.48786757  0.67880522  0.88205111  1
  In  In30  1  0.83077288  0.00277116  0.37442339  1
  In  In31  1  0.83904241  0.00722811  0.88379867  1
  In  In32  1  0.84731508  0.32182695  0.38427663  1
  In  In33  1  0.83321159  0.33443715  0.87158791  1
  In  In34  1  0.84386230  0.65805477  0.38226123  1
  In  In35  1  0.82981575  0.65464674  0.87417440  1
  In  In36  1  -0.00483454  0.16529231  0.37548930  1
  In  In37  1  -0.01318635  0.17071285  0.87913645  1
  In  In38  1  -0.00377522  0.49437054  0.37042145  1
  In  In39  1  -0.01571905  0.48878277  0.86414120  1
  In  In40  1  -0.00328690  0.83024787  0.36879842  1
  In  In41  1  0.01098608  0.83695761  0.87229883  1
  In  In42  1  0.34574220  0.15160588  0.38216586  1
  In  In43  1  0.35560950  0.15525687  0.87381485  1
  In  In44  1  0.31943873  0.50533368  0.37357132  1
  In  In45  1  0.32981156  0.51622064  0.87554660  1
  In  In46  1  0.34001243  0.84563401  0.36398350  1
  In  In47  1  0.35948470  0.85454922  0.84868854  1
  In  In48  1  0.68026913  0.15403468  0.38388466  1
  In  In49  1  0.64943844  0.17667384  0.88021159  1
  In  In50  1  0.67337097  0.50958811  0.37866286  1
  In  In51  1  0.68249293  0.49158962  0.88334703  1
  In  In52  1  0.65419843  0.84468571  0.38308826  1
  In  In53  1  0.65815858  0.83585826  0.88123156  1
  In  In54  1  0.17540983  -0.01283202  0.14658521  1
  In  In55  1  0.16917640  0.01312112  0.61812360  1
  In  In56  1  0.15346239  0.32595077  0.12553494  1
  In  In57  1  0.16674810  0.31148202  0.62577035  1
  In  In58  1  0.16626262  0.67452290  0.13602871  1
  In  In59  1  0.17156352  0.66197297  0.62639819  1
  In  In60  1  0.49821358  0.00231609  0.11716206  1
  In  In61  1  0.49535998  -0.00577381  0.62235073  1
  In  In62  1  0.50584794  0.32847129  0.11326660  1
  In  In63  1  0.51234373  0.32922184  0.63323910  1
  In  In64  1  0.49388944  0.66110651  0.11694450  1
  In  In65  1  0.49282107  0.67392091  0.63182880  1
  In  In66  1  0.82736618  0.00917319  0.13904795  1
  In  In67  1  0.84000693  0.00168928  0.60907466  1
  In  In68  1  0.84105768  0.32845086  0.11798896  1
  In  In69  1  0.83148843  0.33647142  0.62563351  1
  In  In70  1  0.84031173  0.66222230  0.12491440  1
  In  In71  1  0.84571466  0.67474055  0.61721888  1
  In  In72  1  0.66223148  0.66795656  0.75281111  1
  In  In73  1  0.66757379  0.67298397  0.25117061  1
  In  In74  1  0.50592126  0.49807858  0.51025137  1
  In  In75  1  0.66199066  0.00473631  0.75400548  1
  In  In76  1  0.17305509  0.83216932  0.00969123  1
  In  In77  1  0.66857493  0.32997949  0.24576878  1
  In  In78  1  0.00584842  0.00087774  0.73992132  1
  In  In79  1  0.16346595  0.50207418  0.00390928  1
  In  In80  1  0.16596312  0.83879336  0.48692218  1
  In  In81  1  0.16540792  0.16391017  0.00188403  1
  In  In82  1  0.32478426  0.33237138  0.24162346  1
  In  In83  1  0.15901034  0.49673198  0.49445597  1
  In  In84  1  0.32889228  0.33221254  0.75196708  1
  In  In85  1  0.83329607  0.83234651  0.00938814  1
  Cu  Cu86  1  0.50604107  0.15637569  0.24889643  1
  Cu  Cu87  1  0.00339333  0.66652135  0.49441371  1
  Cu  Cu88  1  0.48842001  0.50831298  0.24481399  1
  Cu  Cu89  1  0.33113572  0.31714672  0.50280095  1
  Cu  Cu90  1  0.33901026  0.33089684  -0.00222687  1
  Cu  Cu91  1  0.17117010  0.82356167  0.74668521  1
  Cu  Cu92  1  -0.00516901  0.65899972  -0.00141239  1
  Cu  Cu93  1  0.33681962  -0.00338449  0.49557876  1
  Cu  Cu94  1  0.67695797  0.32946141  -0.00284026  1
  Cu  Cu95  1  0.16696208  0.17034010  0.25262551  1
  Cu  Cu96  1  0.83331425  0.16548232  0.25554540  1
  Cu  Cu97  1  0.49851023  0.83809433  0.24779482  1
  Cu  Cu98  1  0.82823951  0.17700396  0.75004254  1
  Cu  Cu99  1  0.82926541  0.83264971  0.25375093  1
  Cu  Cu100  1  0.33584256  0.67817095  -0.00428049  1
  Cu  Cu101  1  0.15910880  0.50270839  0.74920403  1
  Cu  Cu102  1  0.67468021  0.67132019  0.50009091  1
  Cu  Cu103  1  0.50300285  0.50082591  0.75848284  1
  Cu  Cu104  1  0.83427380  0.50001290  0.75057560  1
  Cu  Cu105  1  0.66273054  0.00212960  0.49931488  1
  Cu  Cu106  1  0.83634415  0.49258336  0.25056533  1
  Cu  Cu107  1  0.66579945  0.33571147  0.50527568  1
  Cu  Cu108  1  0.16054307  0.16357598  0.74920854  1
  Cu  Cu109  1  0.34342881  0.66758954  0.50131338  1
  Cu  Cu110  1  -0.00025687  0.00513985  0.01510649  1
  Cu  Cu111  1  -0.00528628  0.33138628  0.50039678  1
  Cu  Cu112  1  0.83413635  0.83445425  0.74453624  1
  Cu  Cu113  1  0.66230686  0.66402743  -0.00090240  1
  Cu  Cu114  1  0.16158666  0.50879803  0.25028188  1
  Se  Se115  1  0.08857868  0.07658634  0.07331288  1
  Se  Se116  1  0.06267027  0.06718596  0.55644200  1
  Se  Se117  1  0.07076176  0.40696950  0.05403684  1
  Se  Se118  1  0.07921766  0.40761298  0.56219324  1
  Se  Se119  1  0.07054018  0.74242920  0.06015426  1
  Se  Se120  1  0.08601551  0.74449224  0.55429943  1
  Se  Se121  1  0.42991336  0.10066958  0.04994614  1
  Se  Se122  1  0.41809601  0.08046218  0.55115989  1
  Se  Se123  1  0.42075201  0.41695763  0.05024866  1
  Se  Se124  1  0.40811660  0.40305333  0.56158474  1
  Se  Se125  1  0.41869993  0.75676384  0.05314889  1
  Se  Se126  1  0.42174355  0.75313403  0.55497753  1
  Se  Se127  1  0.76732771  0.07703466  0.05346083  1
  Se  Se128  1  0.74892961  0.08635154  0.54950305  1
  Se  Se129  1  0.75674979  0.41391478  0.05206278  1
  Se  Se130  1  0.74924403  0.42169962  0.55508987  1
  Se  Se131  1  0.73680854  0.74291686  0.06598252  1
  Se  Se132  1  0.75817208  0.75652152  0.55196305  1
  Se  Se133  1  0.25821132  0.25801404  0.06117284  1
  Se  Se134  1  0.24372671  0.23502038  0.55212047  1
  Se  Se135  1  0.25335773  0.59990929  0.05758720  1
  Se  Se136  1  0.26124579  0.58118988  0.55356704  1
  Se  Se137  1  0.25944584  0.93044373  0.06204571  1
  Se  Se138  1  0.25649477  0.91618889  0.55669048  1
  Se  Se139  1  0.59111650  0.24596420  0.04882437  1
  Se  Se140  1  0.58112658  0.25120785  0.55531503  1
  Se  Se141  1  0.58069730  0.57759251  0.05216977  1
  Se  Se142  1  0.59443080  0.59511196  0.56599338  1
  Se  Se143  1  0.57685537  0.91735386  0.04607098  1
  Se  Se144  1  0.58302021  0.91620535  0.55376302  1
  Se  Se145  1  0.92408987  0.23940901  0.05515528  1
  Se  Se146  1  0.91089086  0.25084802  0.55612174  1
  Se  Se147  1  0.91174253  0.57728417  0.05205396  1
  Se  Se148  1  0.92132025  0.58327961  0.54942152  1
  Se  Se149  1  0.92614253  0.91539923  0.07171943  1
  Se  Se150  1  0.92160346  0.91685960  0.54424802  1
  Se  Se151  1  0.07882181  0.24716516  0.44836018  1
  Se  Se152  1  0.07766402  0.25839087  0.94439991  1
  Se  Se153  1  0.08654741  0.59532092  0.43033330  1
  Se  Se154  1  0.07696143  0.58535075  0.93612867  1
  Se  Se155  1  0.07271301  0.92957588  0.43448820  1
  Se  Se156  1  0.07652894  0.92592031  0.95090519  1
  Se  Se157  1  0.42209417  0.24161293  0.45068723  1
  Se  Se158  1  0.42150405  0.24859492  0.94368758  1
  Se  Se159  1  0.41833528  0.58195299  0.44066911  1
  Se  Se160  1  0.41533714  0.58364394  0.94986466  1
  Se  Se161  1  0.41985804  0.91340359  0.44169607  1
  Se  Se162  1  0.40916884  0.90968627  0.94184712  1
  Se  Se163  1  0.74676771  0.25488418  0.44765974  1
  Se  Se164  1  0.75417537  0.24562975  0.93976684  1
  Se  Se165  1  0.75500285  0.58121332  0.45216917  1
  Se  Se166  1  0.75447209  0.58443697  0.95227351  1
  Se  Se167  1  0.74874941  0.91994436  0.44635634  1
  Se  Se168  1  0.74761025  0.92183676  0.94662201  1
  Se  Se169  1  0.24812287  0.07911597  0.44591264  1
  Se  Se170  1  0.26093435  0.07702002  0.94529518  1
  Se  Se171  1  0.25653022  0.40183442  0.44184815  1
  Se  Se172  1  0.25529945  0.41089713  0.94151969  1
  Se  Se173  1  0.26313190  0.74354105  0.43745133  1
  Se  Se174  1  0.25286755  0.75352298  0.93571791  1
  Se  Se175  1  0.57830683  0.08390697  0.44469208  1
  Se  Se176  1  0.59660471  0.07089139  0.94533382  1
  Se  Se177  1  0.58588328  0.41050906  0.43858862  1
  Se  Se178  1  0.58901315  0.41491730  0.94816974  1
  Se  Se179  1  0.58291353  0.75133420  0.45246632  1
  Se  Se180  1  0.58024998  0.75137304  0.95011098  1
  Se  Se181  1  0.89226690  0.10464224  0.44038419  1
  Se  Se182  1  0.92119859  0.08451691  0.95531261  1
  Se  Se183  1  0.91797155  0.42215910  0.44782211  1
  Se  Se184  1  0.91115275  0.42003613  0.94198604  1
  Se  Se185  1  0.91908535  0.75358212  0.44565028  1
  Se  Se186  1  0.92206613  0.74944475  0.94001949  1
  Se  Se187  1  0.25048628  0.24658533  0.31468305  1
  Se  Se188  1  0.24342561  0.23716792  0.81384248  1
  Se  Se189  1  0.25370736  0.58778579  0.29768945  1
  Se  Se190  1  0.24774924  0.58359860  0.79910731  1
  Se  Se191  1  0.23819475  0.90534090  0.29964901  1
  Se  Se192  1  0.24423491  0.91791644  0.79772904  1
  Se  Se193  1  0.58150648  0.24053551  0.30944507  1
  Se  Se194  1  0.57662708  0.24346861  0.79963775  1
  Se  Se195  1  0.57441585  0.57751456  0.30812491  1
  Se  Se196  1  0.58242149  0.57949894  0.82054066  1
  Se  Se197  1  0.58552958  0.91701892  0.30176702  1
  Se  Se198  1  0.57409476  0.91086695  0.80931824  1
  Se  Se199  1  0.91840655  0.25344756  0.30278730  1
  Se  Se200  1  0.91995275  0.25248076  0.80219553  1
  Se  Se201  1  0.91431823  0.58137380  0.30340153  1
  Se  Se202  1  0.91663242  0.58965915  0.79938332  1
  Se  Se203  1  0.91170739  0.91839782  0.30503183  1
  Se  Se204  1  0.91214182  0.91714801  0.80674775  1
  Se  Se205  1  0.08360617  0.08821524  0.30643699  1
  Se  Se206  1  0.08533020  0.08389538  0.81504989  1
  Se  Se207  1  0.08345563  0.41820981  0.30035205  1
  Se  Se208  1  0.07841736  0.41390542  0.79807529  1
  Se  Se209  1  0.06715541  0.74448919  0.29576448  1
  Se  Se210  1  0.07985188  0.75024908  0.80038571  1
  Se  Se211  1  0.41580744  0.07935686  0.30156411  1
  Se  Se212  1  0.41867203  0.06861385  0.80027363  1
  Se  Se213  1  0.41602680  0.42233711  0.30628384  1
  Se  Se214  1  0.41754134  0.42019705  0.81511411  1
  Se  Se215  1  0.41866488  0.75002692  0.30033701  1
  Se  Se216  1  0.41315266  0.73693217  0.79845528  1
  Se  Se217  1  0.74438468  0.08066038  0.30138555  1
  Se  Se218  1  0.75828129  0.09102143  0.81207635  1
  Se  Se219  1  0.75452260  0.41667897  0.31233693  1
  Se  Se220  1  0.74843747  0.41720946  0.80179449  1
  Se  Se221  1  0.75310327  0.75417826  0.31895551  1
  Se  Se222  1  0.75625076  0.76116619  0.81060041  1
  Se  Se223  1  0.25494457  0.08933886  0.20178246  1
  Se  Se224  1  0.24580151  0.08198270  0.69733942  1
  Se  Se225  1  0.23773109  0.43031099  0.18372762  1
  Se  Se226  1  0.23962905  0.42219033  0.68738381  1
  Se  Se227  1  0.24147494  0.76773586  0.19764764  1
  Se  Se228  1  0.25673457  0.74342553  0.69290064  1
  Se  Se229  1  0.58652850  0.07789511  0.19028161  1
  Se  Se230  1  0.57968516  0.09017721  0.68660824  1
  Se  Se231  1  0.57189028  0.42349086  0.19166259  1
  Se  Se232  1  0.58358540  0.41612840  0.70539954  1
  Se  Se233  1  0.57789359  0.75577738  0.18684758  1
  Se  Se234  1  0.57959403  0.76625676  0.69561029  1
  Se  Se235  1  0.92092444  0.07987909  0.20677564  1
  Se  Se236  1  0.90444377  0.08986741  0.69089413  1
  Se  Se237  1  0.91525897  0.41039064  0.19338763  1
  Se  Se238  1  0.91675533  0.41625160  0.69596014  1
  Se  Se239  1  0.90771663  0.74476232  0.20062231  1
  Se  Se240  1  0.91996095  0.75089250  0.69526870  1
  Se  Se241  1  0.08055929  0.25428000  0.20375033  1
  Se  Se242  1  0.07640176  0.24746608  0.69888590  1
  Se  Se243  1  0.07601252  0.58595910  0.19355387  1
  Se  Se244  1  0.08040763  0.58798162  0.69344538  1
  Se  Se245  1  0.07390149  0.92496287  0.20930271  1
  Se  Se246  1  0.09411830  0.90493444  0.68337018  1
  Se  Se247  1  0.42967740  0.24678971  0.19262987  1
  Se  Se248  1  0.41509849  0.24259207  0.69123739  1
  Se  Se249  1  0.40805574  0.59270157  0.19302010  1
  Se  Se250  1  0.42232568  0.58433812  0.70355240  1
  Se  Se251  1  0.41893409  0.92267799  0.19226895  1
  Se  Se252  1  0.40952241  0.92937082  0.69817328  1
  Se  Se253  1  0.75457122  0.23803172  0.18699891  1
  Se  Se254  1  0.74427177  0.25708387  0.69549256  1
  Se  Se255  1  0.75050701  0.57152229  0.19333686  1
  Se  Se256  1  0.75652421  0.58514063  0.68977561  1
  Se  Se257  1  0.74618604  0.91641454  0.20168234  1
  Se  Se258  1  0.75781114  0.92075097  0.68886146  1
