# generated using pymatgen
data_In86Cu29Se144
_symmetry_space_group_name_H-M   'P 1'
_cell_length_a   17.58426980
_cell_length_b   17.58498384
_cell_length_c   23.44285689
_cell_angle_alpha   89.99032683
_cell_angle_beta   90.00041693
_cell_angle_gamma   90.01075648
_symmetry_Int_Tables_number   1
_chemical_formula_structural   In86Cu29Se144
_chemical_formula_sum   'In86 Cu29 Se144'
_cell_volume   7248.97888366
_cell_formula_units_Z   1
loop_
 _symmetry_equiv_pos_site_id
 _symmetry_equiv_pos_as_xyz
  1  'x, y, z'
loop_
 _atom_site_type_symbol
 _atom_site_label
 _atom_site_symmetry_multiplicity
 _atom_site_fract_x
 _atom_site_fract_y
 _atom_site_fract_z
 _atom_site_occupancy
  In  In0  1  -0.00963261  0.16041215  0.12693747  1
  In  In1  1  0.00422202  0.16773291  0.62796213  1
  In  In2  1  0.00351215  0.50292033  0.12110081  1
  In  In3  1  0.00648681  0.49589582  0.62732550  1
  In  In4  1  0.00165949  0.83278747  0.11892980  1
  In  In5  1  -0.00736315  0.83490903  0.63359632  1
  In  In6  1  0.34478128  0.15724747  0.13576234  1
  In  In7  1  0.32910007  0.16964038  0.62243961  1
  In  In8  1  0.33021875  0.49912666  0.14108776  1
  In  In9  1  0.33285675  0.49386949  0.62185364  1
  In  In10  1  0.33754755  0.83114477  0.12577870  1
  In  In11  1  0.33924617  0.83238784  0.63219465  1
  In  In12  1  0.65609311  0.17915531  0.11877100  1
  In  In13  1  0.65508339  0.17752128  0.63495779  1
  In  In14  1  0.68197680  0.49263525  0.12049605  1
  In  In15  1  0.66441803  0.49959017  0.63115819  1
  In  In16  1  0.67110591  0.83510478  0.11119139  1
  In  In17  1  0.67283138  0.82508266  0.63583020  1
  In  In18  1  0.18107132  0.00655067  0.36738129  1
  In  In19  1  0.16750102  -0.00044345  0.86531289  1
  In  In20  1  0.17069085  0.32721558  0.38456108  1
  In  In21  1  0.16291156  0.33321819  0.86532132  1
  In  In22  1  0.16791757  0.65056734  0.37704997  1
  In  In23  1  0.15938891  0.66044956  0.86322981  1
  In  In24  1  0.48719675  0.01350011  0.37651887  1
  In  In25  1  0.49999065  0.00328703  0.87721512  1
  In  In26  1  0.49412569  0.33789316  0.38237449  1
  In  In27  1  0.50142982  0.33224953  0.86936935  1
  In  In28  1  0.49133464  0.66814132  0.37671339  1
  In  In29  1  0.50698659  0.67770906  0.86928508  1
  In  In30  1  0.83972166  -0.00850870  0.37354856  1
  In  In31  1  0.82246668  -0.00874882  0.87033082  1
  In  In32  1  0.85063482  0.33843756  0.38288779  1
  In  In33  1  0.84888548  0.35527580  0.85201322  1
  In  In34  1  0.83394610  0.65894626  0.37655152  1
  In  In35  1  0.83907538  0.67131307  0.87611756  1
  In  In36  1  0.01975398  0.16693211  0.38034127  1
  In  In37  1  0.00334250  0.17115068  0.86648559  1
  In  In38  1  0.01817642  0.47007523  0.40964139  1
  In  In39  1  -0.01584263  0.50227248  0.86443790  1
  In  In40  1  -0.00436262  0.84554274  0.37103700  1
  In  In41  1  -0.01486498  0.82108657  0.86831547  1
  In  In42  1  0.33251201  0.16751805  0.37609799  1
  In  In43  1  0.34471722  0.17955984  0.86792329  1
  In  In44  1  0.33264025  0.50091925  0.37626322  1
  In  In45  1  0.33231145  0.49866893  0.86300953  1
  In  In46  1  0.33324747  0.82839654  0.36379312  1
  In  In47  1  0.33868649  0.84443796  0.86987453  1
  In  In48  1  0.65033443  0.16469390  0.38150733  1
  In  In49  1  0.66237496  0.16050491  0.86733179  1
  In  In50  1  0.67645101  0.49135948  0.38949504  1
  In  In51  1  0.69315732  0.52535163  0.84314097  1
  In  In52  1  0.66907776  0.82844401  0.37406132  1
  In  In53  1  0.66320827  0.83608919  0.88096495  1
  In  In54  1  0.16420999  0.00154664  0.12946706  1
  In  In55  1  0.15435108  0.01257872  0.62845872  1
  In  In56  1  0.18600400  0.34082102  0.12859505  1
  In  In57  1  0.16393303  0.33799574  0.62091074  1
  In  In58  1  0.16808700  0.66966004  0.12650520  1
  In  In59  1  0.18220081  0.65275274  0.63109352  1
  In  In60  1  0.49892870  -0.00056317  0.11851997  1
  In  In61  1  0.48929873  0.01198386  0.63037962  1
  In  In62  1  0.49543705  0.32871322  0.11985772  1
  In  In63  1  0.49591300  0.32876676  0.62321047  1
  In  In64  1  0.48851281  0.66812937  0.12003020  1
  In  In65  1  0.51020522  0.65642434  0.63534066  1
  In  In66  1  0.84400618  -0.00559097  0.12578150  1
  In  In67  1  0.83472278  -0.00353794  0.63477238  1
  In  In68  1  0.82876765  0.33689748  0.11605093  1
  In  In69  1  0.82837251  0.34716623  0.63784631  1
  In  In70  1  0.84417812  0.66469707  0.10811181  1
  In  In71  1  0.86220236  0.61666285  0.67526773  1
  In  In72  1  0.16281776  0.82805770  0.00199093  1
  In  In73  1  0.82947700  0.17751629  0.51353126  1
  In  In74  1  0.66819138  0.66735078  0.25329322  1
  In  In75  1  0.00446537  0.66374160  0.24812333  1
  In  In76  1  0.50112406  0.83146076  0.49768611  1
  In  In77  1  0.01041083  0.32907891  0.26083291  1
  In  In78  1  0.82571505  0.16930231  -0.00421536  1
  In  In79  1  0.15922031  0.49842008  -0.00459337  1
  In  In80  1  0.82998052  0.82517707  0.50071171  1
  In  In81  1  0.66149989  0.00171871  0.23909283  1
  In  In82  1  0.16565181  0.83061001  0.50371340  1
  In  In83  1  0.66040026  0.33243174  0.25553791  1
  In  In84  1  0.50679673  0.50101011  -0.00890754  1
  In  In85  1  0.16643655  0.17010346  -0.01081215  1
  Cu  Cu86  1  0.16526051  0.83358312  0.74623924  1
  Cu  Cu87  1  0.50123069  0.83932904  0.75425098  1
  Cu  Cu88  1  0.16899460  0.50069551  0.74398453  1
  Cu  Cu89  1  -0.00285248  0.65983618  0.51273344  1
  Cu  Cu90  1  0.00276327  0.01089691  0.50109169  1
  Cu  Cu91  1  0.65651666  0.00300927  0.50681561  1
  Cu  Cu92  1  0.49834967  0.50038745  0.25513427  1
  Cu  Cu93  1  0.48978002  0.48945662  0.74413807  1
  Cu  Cu94  1  0.82941418  0.15734793  0.24888633  1
  Cu  Cu95  1  0.16766693  0.83345764  0.24439504  1
  Cu  Cu96  1  0.49578631  0.16074761  0.74892308  1
  Cu  Cu97  1  0.17148624  0.16827814  0.74559420  1
  Cu  Cu98  1  0.33018657  0.66977961  -0.00130593  1
  Cu  Cu99  1  0.67345016  0.65581479  0.51362992  1
  Cu  Cu100  1  0.66215967  0.33191966  0.50972558  1
  Cu  Cu101  1  0.66839706  0.33771472  -0.01290196  1
  Cu  Cu102  1  0.33773948  0.65632533  0.50116782  1
  Cu  Cu103  1  0.83811887  0.16475371  0.74972377  1
  Cu  Cu104  1  -0.00512822  -0.00525818  -0.00396600  1
  Cu  Cu105  1  0.33286968  0.33130850  0.50137505  1
  Cu  Cu106  1  0.50163492  0.83851178  0.24536991  1
  Cu  Cu107  1  0.34307198  0.00274810  -0.00172984  1
  Cu  Cu108  1  0.33981563  0.32989215  -0.00207301  1
  Cu  Cu109  1  0.32495829  0.00895651  0.50139120  1
  Cu  Cu110  1  0.66299078  0.00222077  -0.00496226  1
  Cu  Cu111  1  0.66909715  0.66318806  -0.01076358  1
  Cu  Cu112  1  0.16777914  0.16369043  0.25449126  1
  Cu  Cu113  1  0.82762189  0.83702722  0.75907049  1
  Cu  Cu114  1  0.84585471  0.50180998  0.25009296  1
  Se  Se115  1  0.07653122  0.07788726  0.05310010  1
  Se  Se116  1  0.08635605  0.09479470  0.55115760  1
  Se  Se117  1  0.08275418  0.40093232  0.05988583  1
  Se  Se118  1  0.08984177  0.42765558  0.55185396  1
  Se  Se119  1  0.07147810  0.72937727  0.05313781  1
  Se  Se120  1  0.07797871  0.74435224  0.56773439  1
  Se  Se121  1  0.41875178  0.09096498  0.05334504  1
  Se  Se122  1  0.41499944  0.08639872  0.55303228  1
  Se  Se123  1  0.40838376  0.42361321  0.05601837  1
  Se  Se124  1  0.41854949  0.41456558  0.55260240  1
  Se  Se125  1  0.41461236  0.75413481  0.04939405  1
  Se  Se126  1  0.41513066  0.74072423  0.56014845  1
  Se  Se127  1  0.74201909  0.07742916  0.06225393  1
  Se  Se128  1  0.74204298  0.07718866  0.56560320  1
  Se  Se129  1  0.75337259  0.41726658  0.04247617  1
  Se  Se130  1  0.74584363  0.41595008  0.56057395  1
  Se  Se131  1  0.75107644  0.74551667  0.04695575  1
  Se  Se132  1  0.75504793  0.73729273  0.56920646  1
  Se  Se133  1  0.25807758  0.24930819  0.05640573  1
  Se  Se134  1  0.24532440  0.25008126  0.55291799  1
  Se  Se135  1  0.25665902  0.58351940  0.05781329  1
  Se  Se136  1  0.24894026  0.57675071  0.55118181  1
  Se  Se137  1  0.25444422  0.92631200  0.05535252  1
  Se  Se138  1  0.25428644  0.92246139  0.56291142  1
  Se  Se139  1  0.58375085  0.26164519  0.04540085  1
  Se  Se140  1  0.57850735  0.24225087  0.55388404  1
  Se  Se141  1  0.59395584  0.58890381  0.05931631  1
  Se  Se142  1  0.57876550  0.57692464  0.55747909  1
  Se  Se143  1  0.58092386  0.91704918  0.04956000  1
  Se  Se144  1  0.58538564  0.91483569  0.56597651  1
  Se  Se145  1  0.92491932  0.25396445  0.05449295  1
  Se  Se146  1  0.92169206  0.26752283  0.56704389  1
  Se  Se147  1  0.90924352  0.55982771  0.05035011  1
  Se  Se148  1  0.91163985  0.58718000  0.57132756  1
  Se  Se149  1  0.91403546  0.91181635  0.05063860  1
  Se  Se150  1  0.92114618  0.92485767  0.55472880  1
  Se  Se151  1  0.05413954  0.27921878  0.44389230  1
  Se  Se152  1  0.07135062  0.26467815  0.94100668  1
  Se  Se153  1  0.08595679  0.58618305  0.45550336  1
  Se  Se154  1  0.07124606  0.58963946  0.93765220  1
  Se  Se155  1  0.08132945  0.92591322  0.44247838  1
  Se  Se156  1  0.08007384  0.91920712  0.93720806  1
  Se  Se157  1  0.41558061  0.24686977  0.44740292  1
  Se  Se158  1  0.42496777  0.25052429  0.94463004  1
  Se  Se159  1  0.42370254  0.57796791  0.44662771  1
  Se  Se160  1  0.40822125  0.58912150  0.93684035  1
  Se  Se161  1  0.40135836  0.91939062  0.44363710  1
  Se  Se162  1  0.42058075  0.91387410  0.94609535  1
  Se  Se163  1  0.74134247  0.25789499  0.44132598  1
  Se  Se164  1  0.75002378  0.25805248  0.92770498  1
  Se  Se165  1  0.75762550  0.58339214  0.45162081  1
  Se  Se166  1  0.75060612  0.57906048  0.93659782  1
  Se  Se167  1  0.73845259  0.92540262  0.44593597  1
  Se  Se168  1  0.75121417  0.91729838  0.94943834  1
  Se  Se169  1  0.24227878  0.08963682  0.44607577  1
  Se  Se170  1  0.26022143  0.07739314  0.93642709  1
  Se  Se171  1  0.25295156  0.41786210  0.44742703  1
  Se  Se172  1  0.25730174  0.40907468  0.93937488  1
  Se  Se173  1  0.26052275  0.74487734  0.44376630  1
  Se  Se174  1  0.25003709  0.74430111  0.93514210  1
  Se  Se175  1  0.57256233  0.08147420  0.45183288  1
  Se  Se176  1  0.58246843  0.09020488  0.94542285  1
  Se  Se177  1  0.58257382  0.41479957  0.45115443  1
  Se  Se178  1  0.59744326  0.42373184  0.92555920  1
  Se  Se179  1  0.59856422  0.73534977  0.44672130  1
  Se  Se180  1  0.57898047  0.75026704  0.94887336  1
  Se  Se181  1  0.91309403  0.08598344  0.44412718  1
  Se  Se182  1  0.92009235  0.08069884  0.93697480  1
  Se  Se183  1  0.89262013  0.43444570  0.45813764  1
  Se  Se184  1  0.91526201  0.41616997  0.93825657  1
  Se  Se185  1  0.93181773  0.74242069  0.44299729  1
  Se  Se186  1  0.91571845  0.75326737  0.94922891  1
  Se  Se187  1  0.24545975  0.25065586  0.30852859  1
  Se  Se188  1  0.25171645  0.25271289  0.80117776  1
  Se  Se189  1  0.26489313  0.59664963  0.30735154  1
  Se  Se190  1  0.25200265  0.58617908  0.79747564  1
  Se  Se191  1  0.25244764  0.91540589  0.29861603  1
  Se  Se192  1  0.25074451  0.91679935  0.79851795  1
  Se  Se193  1  0.56706220  0.24051265  0.30738989  1
  Se  Se194  1  0.57990526  0.24575617  0.80014185  1
  Se  Se195  1  0.58656557  0.57197843  0.31516450  1
  Se  Se196  1  0.56544438  0.57510987  0.80248318  1
  Se  Se197  1  0.57819402  0.91377477  0.31084482  1
  Se  Se198  1  0.58508281  0.92048364  0.80950976  1
  Se  Se199  1  0.90919155  0.23654821  0.31158142  1
  Se  Se200  1  0.92452241  0.25227295  0.79535324  1
  Se  Se201  1  0.92522116  0.57277711  0.31514188  1
  Se  Se202  1  0.90884907  0.59175973  0.79559728  1
  Se  Se203  1  0.91348516  0.91649658  0.29854905  1
  Se  Se204  1  0.91950348  0.92242116  0.80378023  1
  Se  Se205  1  0.08101483  0.07973256  0.30450675  1
  Se  Se206  1  0.08598030  0.08636010  0.80006929  1
  Se  Se207  1  0.09195723  0.42873752  0.31647402  1
  Se  Se208  1  0.08370738  0.42541259  0.80311990  1
  Se  Se209  1  0.09221731  0.75685710  0.31168283  1
  Se  Se210  1  0.07978181  0.75181788  0.79983222  1
  Se  Se211  1  0.40401921  0.07927862  0.30337446  1
  Se  Se212  1  0.41355245  0.07913432  0.80512815  1
  Se  Se213  1  0.41730120  0.41601152  0.30796149  1
  Se  Se214  1  0.41001139  0.40583870  0.80024863  1
  Se  Se215  1  0.42461574  0.74924908  0.29947528  1
  Se  Se216  1  0.41455993  0.75264402  0.80315108  1
  Se  Se217  1  0.74606183  0.08612055  0.31247292  1
  Se  Se218  1  0.75144745  0.08182659  0.80063696  1
  Se  Se219  1  0.76253896  0.42056636  0.30824625  1
  Se  Se220  1  0.73276942  0.40095361  0.79413548  1
  Se  Se221  1  0.76637897  0.75885495  0.30659156  1
  Se  Se222  1  0.74585222  0.75246151  0.81254343  1
  Se  Se223  1  0.24867335  0.08074087  0.19749320  1
  Se  Se224  1  0.25238719  0.08163666  0.69334398  1
  Se  Se225  1  0.25110308  0.41488319  0.20779886  1
  Se  Se226  1  0.25061908  0.41353532  0.69308964  1
  Se  Se227  1  0.25245784  0.74922974  0.19371921  1
  Se  Se228  1  0.25215206  0.74994376  0.69652462  1
  Se  Se229  1  0.57069421  0.09994870  0.19023020  1
  Se  Se230  1  0.58533301  0.07836399  0.69891376  1
  Se  Se231  1  0.58035351  0.42736046  0.18999582  1
  Se  Se232  1  0.57884428  0.40939355  0.69375348  1
  Se  Se233  1  0.58204976  0.75576897  0.18729228  1
  Se  Se234  1  0.58086607  0.75065375  0.70232223  1
  Se  Se235  1  0.91796200  0.07695150  0.19970502  1
  Se  Se236  1  0.92265545  0.08209175  0.69590421  1
  Se  Se237  1  0.91773089  0.41159985  0.19254309  1
  Se  Se238  1  0.91357640  0.43215675  0.70117198  1
  Se  Se239  1  0.91147772  0.74943541  0.18820026  1
  Se  Se240  1  0.90756833  0.75593290  0.70125521  1
  Se  Se241  1  0.09107085  0.24149749  0.18873347  1
  Se  Se242  1  0.08691580  0.25334615  0.69432583  1
  Se  Se243  1  0.09721901  0.56939368  0.19386025  1
  Se  Se244  1  0.08316307  0.58769956  0.69676081  1
  Se  Se245  1  0.08011253  0.91239353  0.19159260  1
  Se  Se246  1  0.08102351  0.91961289  0.69559114  1
  Se  Se247  1  0.40508903  0.26831785  0.19186406  1
  Se  Se248  1  0.41474924  0.24599329  0.69408267  1
  Se  Se249  1  0.42306290  0.58663570  0.19758719  1
  Se  Se250  1  0.41028753  0.58015335  0.69371950  1
  Se  Se251  1  0.41840763  0.92016105  0.19110584  1
  Se  Se252  1  0.41702241  0.92018612  0.69903953  1
  Se  Se253  1  0.75613778  0.24518617  0.19170782  1
  Se  Se254  1  0.75261791  0.24820133  0.69840934  1
  Se  Se255  1  0.76226650  0.58050138  0.19199714  1
  Se  Se256  1  0.72289489  0.59434841  0.70512059  1
  Se  Se257  1  0.75471872  0.90497034  0.19081128  1
  Se  Se258  1  0.74638710  0.91898677  0.70163563  1
