# generated using pymatgen
data_In86Cu29Se144
_symmetry_space_group_name_H-M   'P 1'
_cell_length_a   17.58149832
_cell_length_b   17.57689544
_cell_length_c   23.44540567
_cell_angle_alpha   89.99525752
_cell_angle_beta   90.00346704
_cell_angle_gamma   90.00413598
_symmetry_Int_Tables_number   1
_chemical_formula_structural   In86Cu29Se144
_chemical_formula_sum   'In86 Cu29 Se144'
_cell_volume   7245.29046193
_cell_formula_units_Z   1
loop_
 _symmetry_equiv_pos_site_id
 _symmetry_equiv_pos_as_xyz
  1  'x, y, z'
loop_
 _atom_site_type_symbol
 _atom_site_label
 _atom_site_symmetry_multiplicity
 _atom_site_fract_x
 _atom_site_fract_y
 _atom_site_fract_z
 _atom_site_occupancy
  In  In0  1  0.00030510  0.16804910  0.12130085  1
  In  In1  1  -0.00633665  0.16059623  0.63471848  1
  In  In2  1  -0.01464657  0.49008534  0.11022253  1
  In  In3  1  0.00836086  0.49945189  0.62958274  1
  In  In4  1  0.00845400  0.85067176  0.12616890  1
  In  In5  1  0.00136667  0.83469463  0.62287420  1
  In  In6  1  0.32411361  0.15023529  0.11825342  1
  In  In7  1  0.33759722  0.13404869  0.62668639  1
  In  In8  1  0.32215010  0.50452745  0.11967574  1
  In  In9  1  0.35127739  0.49907774  0.62554822  1
  In  In10  1  0.33446225  0.85157886  0.13285145  1
  In  In11  1  0.32934596  0.83775673  0.62336238  1
  In  In12  1  0.66795899  0.16907543  0.12315969  1
  In  In13  1  0.65660947  0.17342019  0.62814698  1
  In  In14  1  0.67641251  0.49395835  0.13291388  1
  In  In15  1  0.65040708  0.51716788  0.63879247  1
  In  In16  1  0.65406436  0.83915420  0.14531644  1
  In  In17  1  0.64967041  0.80325029  0.60028901  1
  In  In18  1  0.16460373  -0.00168883  0.36958999  1
  In  In19  1  0.16637180  0.00566436  0.86923856  1
  In  In20  1  0.15828938  0.32234650  0.36180091  1
  In  In21  1  0.16761966  0.33100604  0.88468743  1
  In  In22  1  0.18214123  0.67277681  0.37781198  1
  In  In23  1  0.15540028  0.65968801  0.86363111  1
  In  In24  1  0.50649955  -0.00062179  0.38134290  1
  In  In25  1  0.49645341  0.01125964  0.87320431  1
  In  In26  1  0.50817202  0.32342844  0.37873620  1
  In  In27  1  0.50444719  0.31763608  0.87593954  1
  In  In28  1  0.51415893  0.66554363  0.39129690  1
  In  In29  1  0.50241631  0.66894719  0.86158229  1
  In  In30  1  0.82867140  -0.00328990  0.36588679  1
  In  In31  1  0.84973712  0.00179323  0.87893769  1
  In  In32  1  0.83009378  0.32803263  0.36298642  1
  In  In33  1  0.82678468  0.33764311  0.88052022  1
  In  In34  1  0.82371390  0.68449953  0.38572113  1
  In  In35  1  0.83091492  0.65444954  0.86180789  1
  In  In36  1  -0.00495423  0.15723768  0.35616721  1
  In  In37  1  0.01150972  0.14725484  0.89423523  1
  In  In38  1  -0.00076569  0.49198298  0.36961918  1
  In  In39  1  -0.00777802  0.50362404  0.87957463  1
  In  In40  1  -0.00631608  0.84546495  0.38144777  1
  In  In41  1  0.00126901  0.83790225  0.86488104  1
  In  In42  1  0.34171826  0.16220127  0.37247847  1
  In  In43  1  0.33598995  0.16139525  0.87796425  1
  In  In44  1  0.33566896  0.51138896  0.37746867  1
  In  In45  1  0.32493556  0.50186286  0.87365893  1
  In  In46  1  0.33443906  0.84766617  0.39334248  1
  In  In47  1  0.33445838  0.83654256  0.86209740  1
  In  In48  1  0.65591522  0.15701789  0.36179145  1
  In  In49  1  0.65999138  0.17584177  0.88166873  1
  In  In50  1  0.66347857  0.49350648  0.37164900  1
  In  In51  1  0.68254625  0.50389154  0.86505952  1
  In  In52  1  0.66713052  0.83779835  0.38007278  1
  In  In53  1  0.67584631  0.82550870  0.87028418  1
  In  In54  1  0.14156024  0.04682590  0.16793807  1
  In  In55  1  0.18524387  -0.01229220  0.63988987  1
  In  In56  1  0.14599250  0.31146101  0.10914039  1
  In  In57  1  0.15720892  0.32811931  0.62585571  1
  In  In58  1  0.16837844  0.66227976  0.11770414  1
  In  In59  1  0.15765852  0.68003513  0.63449961  1
  In  In60  1  0.48916253  0.00810600  0.13884349  1
  In  In61  1  0.47670250  -0.02127993  0.59802881  1
  In  In62  1  0.51687848  0.32875669  0.12896098  1
  In  In63  1  0.50187682  0.34214778  0.61553909  1
  In  In64  1  0.50191040  0.68314688  0.13064820  1
  In  In65  1  0.49936164  0.66446495  0.62551278  1
  In  In66  1  0.82757690  0.00393579  0.12633090  1
  In  In67  1  0.84261364  -0.01042680  0.62866508  1
  In  In68  1  0.83286888  0.33783345  0.12179084  1
  In  In69  1  0.82614595  0.32333456  0.63309450  1
  In  In70  1  0.82883066  0.65975411  0.12226196  1
  In  In71  1  0.81875704  0.67819468  0.63581423  1
  In  In72  1  0.49800391  0.83568732  0.00983527  1
  In  In73  1  0.33058576  0.33001499  0.24974907  1
  In  In74  1  0.83359106  0.83452468  0.00520888  1
  In  In75  1  0.16936468  0.83783207  -0.00024352  1
  In  In76  1  0.17509601  0.50648596  0.49747024  1
  In  In77  1  0.50240160  0.49590835  0.00438608  1
  In  In78  1  -0.00667330  0.66800738  0.25064381  1
  In  In79  1  0.33854036  0.33236754  0.75387716  1
  In  In80  1  0.34172422  0.67346315  0.25837946  1
  In  In81  1  0.82821784  0.50729710  0.51166411  1
  In  In82  1  0.66510719  -0.00478598  0.74392208  1
  In  In83  1  0.82943415  0.16119061  0.49404535  1
  In  In84  1  0.16960139  0.16318494  0.50276095  1
  In  In85  1  -0.00744918  0.33255237  0.75821188  1
  Cu  Cu86  1  0.67021363  0.33480685  0.00352074  1
  Cu  Cu87  1  0.83302448  0.83616594  0.25627355  1
  Cu  Cu88  1  0.00923235  0.67524529  0.50350907  1
  Cu  Cu89  1  0.33572514  0.32676772  -0.00295639  1
  Cu  Cu90  1  0.50994262  0.49881869  0.74592875  1
  Cu  Cu91  1  0.82708806  0.50290048  0.24695996  1
  Cu  Cu92  1  0.49635111  0.16060544  0.74794084  1
  Cu  Cu93  1  0.83108582  0.82766955  0.74557004  1
  Cu  Cu94  1  -0.00660145  0.32894710  0.49276298  1
  Cu  Cu95  1  0.17265618  0.83613299  0.25642033  1
  Cu  Cu96  1  0.17339869  0.50439859  0.75055218  1
  Cu  Cu97  1  0.82976537  0.16309964  0.75759033  1
  Cu  Cu98  1  0.67538680  0.00482547  0.49178094  1
  Cu  Cu99  1  -0.00284222  0.33336839  -0.00205501  1
  Cu  Cu100  1  0.15578867  0.49168150  0.24229562  1
  Cu  Cu101  1  -0.00330751  0.66371520  -0.01048022  1
  Cu  Cu102  1  0.83668446  0.17659911  0.23852692  1
  Cu  Cu103  1  0.00749506  -0.00618474  0.50119217  1
  Cu  Cu104  1  0.50213443  0.50533676  0.25357116  1
  Cu  Cu105  1  0.66166540  0.33527421  0.49874717  1
  Cu  Cu106  1  0.50069786  0.83440181  0.73693140  1
  Cu  Cu107  1  0.50432955  0.16641252  0.25147034  1
  Cu  Cu108  1  0.66807121  0.66427401  -0.00229502  1
  Cu  Cu109  1  0.33838915  0.67161676  0.50427163  1
  Cu  Cu110  1  0.33138838  0.00308505  0.00249374  1
  Cu  Cu111  1  0.33251887  0.33269707  0.49660122  1
  Cu  Cu112  1  0.32525249  0.66244707  -0.00567928  1
  Cu  Cu113  1  0.16677990  0.83984683  0.74663032  1
  Cu  Cu114  1  0.66679541  0.00925927  0.00184616  1
  Se  Se115  1  0.09404569  0.07747396  0.06730440  1
  Se  Se116  1  0.07696393  0.07819837  0.56430131  1
  Se  Se117  1  0.08508202  0.41936879  0.04780418  1
  Se  Se118  1  0.07716174  0.40982643  0.54940521  1
  Se  Se119  1  0.07013345  0.74471556  0.05528591  1
  Se  Se120  1  0.09362414  0.75846824  0.55420764  1
  Se  Se121  1  0.42436224  0.07911455  0.05429440  1
  Se  Se122  1  0.42927283  0.10054737  0.54716803  1
  Se  Se123  1  0.41080086  0.40483346  0.06326005  1
  Se  Se124  1  0.41543759  0.42012381  0.54588216  1
  Se  Se125  1  0.39741530  0.74293332  0.06015831  1
  Se  Se126  1  0.41939978  0.75458891  0.55901436  1
  Se  Se127  1  0.75359686  0.08840976  0.05385350  1
  Se  Se128  1  0.74691055  0.07843817  0.56418383  1
  Se  Se129  1  0.75051799  0.42501146  0.05287907  1
  Se  Se130  1  0.74265436  0.40581574  0.56318940  1
  Se  Se131  1  0.73392006  0.75200087  0.06263719  1
  Se  Se132  1  0.76280858  0.74232958  0.54734303  1
  Se  Se133  1  0.25198206  0.24343271  0.05098321  1
  Se  Se134  1  0.25782125  0.25693468  0.56225328  1
  Se  Se135  1  0.24142478  0.57807976  0.04493802  1
  Se  Se136  1  0.25662047  0.59134676  0.56571756  1
  Se  Se137  1  0.24886829  0.92947510  0.06391381  1
  Se  Se138  1  0.25407522  0.92822474  0.55564637  1
  Se  Se139  1  0.58338843  0.24941818  0.05099937  1
  Se  Se140  1  0.58070330  0.24861417  0.55148927  1
  Se  Se141  1  0.58689030  0.59206272  0.06330435  1
  Se  Se142  1  0.58050197  0.58030376  0.55675805  1
  Se  Se143  1  0.59152262  0.92629931  0.06373948  1
  Se  Se144  1  0.59553755  0.92184953  0.54865146  1
  Se  Se145  1  0.91531658  0.25269651  0.05478835  1
  Se  Se146  1  0.91981129  0.25105213  0.55820183  1
  Se  Se147  1  0.91064352  0.58813261  0.04786737  1
  Se  Se148  1  0.93220002  0.59144535  0.56187397  1
  Se  Se149  1  0.92670038  0.93023505  0.05433832  1
  Se  Se150  1  0.91686723  0.91453671  0.55145350  1
  Se  Se151  1  0.07327522  0.24521259  0.43709681  1
  Se  Se152  1  0.08666367  0.24793891  0.95292001  1
  Se  Se153  1  0.07648512  0.59057169  0.43745187  1
  Se  Se154  1  0.08763177  0.58221973  0.94302037  1
  Se  Se155  1  0.09264688  0.91567141  0.44533077  1
  Se  Se156  1  0.07536083  0.92217050  0.94044613  1
  Se  Se157  1  0.41485118  0.24866180  0.44350392  1
  Se  Se158  1  0.42029584  0.24305518  0.94701122  1
  Se  Se159  1  0.41625374  0.58364558  0.45073925  1
  Se  Se160  1  0.41882692  0.59066780  0.94040708  1
  Se  Se161  1  0.42778615  0.92351030  0.45653302  1
  Se  Se162  1  0.40958713  0.91943874  0.94259217  1
  Se  Se163  1  0.74095742  0.25511154  0.43738030  1
  Se  Se164  1  0.75074384  0.24860833  0.95006919  1
  Se  Se165  1  0.74021008  0.58652402  0.44431726  1
  Se  Se166  1  0.75175347  0.58655804  0.94159350  1
  Se  Se167  1  0.76215393  0.91956150  0.44521819  1
  Se  Se168  1  0.74077945  0.92281573  0.94174967  1
  Se  Se169  1  0.25748922  0.07598386  0.44155990  1
  Se  Se170  1  0.24786605  0.08034633  0.94407359  1
  Se  Se171  1  0.24967764  0.40509787  0.43278974  1
  Se  Se172  1  0.25625683  0.41628673  0.94712781  1
  Se  Se173  1  0.25054298  0.75265442  0.45343934  1
  Se  Se174  1  0.25290498  0.74822908  0.93389827  1
  Se  Se175  1  0.58926840  0.09277865  0.44682801  1
  Se  Se176  1  0.57902248  0.08416637  0.94608020  1
  Se  Se177  1  0.57974074  0.41896207  0.44486041  1
  Se  Se178  1  0.59062127  0.41298300  0.93908259  1
  Se  Se179  1  0.59075254  0.75825022  0.45440292  1
  Se  Se180  1  0.58465980  0.74598651  0.94228315  1
  Se  Se181  1  0.92895658  0.07569415  0.43942318  1
  Se  Se182  1  0.90232393  0.09144052  0.95528167  1
  Se  Se183  1  0.91032953  0.41331061  0.44120182  1
  Se  Se184  1  0.91317719  0.41898101  0.94780000  1
  Se  Se185  1  0.92198796  0.75293368  0.44935179  1
  Se  Se186  1  0.91643363  0.74971087  0.93533311  1
  Se  Se187  1  0.24245305  0.22945312  0.30064627  1
  Se  Se188  1  0.24376695  0.24615501  0.81050362  1
  Se  Se189  1  0.23823983  0.57276058  0.30131994  1
  Se  Se190  1  0.25778273  0.58967998  0.80090190  1
  Se  Se191  1  0.25943073  0.91321319  0.31034639  1
  Se  Se192  1  0.24997365  0.92378325  0.80012196  1
  Se  Se193  1  0.58606364  0.25795714  0.29838199  1
  Se  Se194  1  0.58181672  0.24207933  0.80042727  1
  Se  Se195  1  0.58103528  0.58715237  0.31030791  1
  Se  Se196  1  0.59080672  0.58416341  0.80073633  1
  Se  Se197  1  0.60803347  0.94033618  0.31400409  1
  Se  Se198  1  0.57394017  0.90685344  0.80955612  1
  Se  Se199  1  0.92183548  0.25616898  0.29530354  1
  Se  Se200  1  0.91179757  0.23816415  0.81951269  1
  Se  Se201  1  0.90224175  0.58130857  0.31346081  1
  Se  Se202  1  0.93388364  0.58834012  0.80156746  1
  Se  Se203  1  0.92378838  0.91967836  0.30152530  1
  Se  Se204  1  0.90790095  0.91542632  0.80054457  1
  Se  Se205  1  0.09177913  0.08172854  0.29609380  1
  Se  Se206  1  0.06606472  0.07725048  0.80781699  1
  Se  Se207  1  0.07469701  0.40978256  0.29779162  1
  Se  Se208  1  0.09393355  0.42169586  0.81055261  1
  Se  Se209  1  0.08907555  0.75264744  0.31161622  1
  Se  Se210  1  0.08329052  0.75378824  0.79818424  1
  Se  Se211  1  0.42596454  0.08008800  0.30614113  1
  Se  Se212  1  0.40975077  0.08097993  0.80090561  1
  Se  Se213  1  0.41884381  0.42336927  0.30993657  1
  Se  Se214  1  0.43056831  0.42439038  0.81272417  1
  Se  Se215  1  0.42231917  0.75556453  0.32662760  1
  Se  Se216  1  0.41851388  0.75270075  0.79597282  1
  Se  Se217  1  0.76121184  0.09487056  0.30061070  1
  Se  Se218  1  0.74680253  0.08014553  0.81440095  1
  Se  Se219  1  0.74644046  0.41598559  0.29998000  1
  Se  Se220  1  0.74400229  0.40024154  0.80260510  1
  Se  Se221  1  0.74823720  0.75326445  0.30713432  1
  Se  Se222  1  0.74682085  0.74322139  0.79728324  1
  Se  Se223  1  0.28171540  0.05796607  0.19784676  1
  Se  Se224  1  0.23650877  0.10087341  0.69910053  1
  Se  Se225  1  0.23998956  0.41386050  0.18456284  1
  Se  Se226  1  0.24598393  0.42019709  0.68893500  1
  Se  Se227  1  0.24280842  0.75170575  0.19213567  1
  Se  Se228  1  0.25346495  0.75464458  0.69744422  1
  Se  Se229  1  0.58936135  0.08582968  0.19588717  1
  Se  Se230  1  0.56825612  0.07629678  0.68419685  1
  Se  Se231  1  0.58297615  0.42043225  0.19943376  1
  Se  Se232  1  0.58392441  0.40620632  0.69444666  1
  Se  Se233  1  0.58115756  0.74455689  0.20899349  1
  Se  Se234  1  0.58807951  0.74809881  0.69194557  1
  Se  Se235  1  0.91675910  0.08471724  0.19175295  1
  Se  Se236  1  0.90933206  0.07926212  0.70174692  1
  Se  Se237  1  0.91365031  0.42376818  0.19267527  1
  Se  Se238  1  0.90944999  0.42163116  0.69316791  1
  Se  Se239  1  0.90952173  0.76146789  0.18735008  1
  Se  Se240  1  0.92239674  0.74953401  0.69394539  1
  Se  Se241  1  0.08354371  0.24776453  0.19414609  1
  Se  Se242  1  0.08755996  0.24217580  0.70027675  1
  Se  Se243  1  0.07948438  0.57910959  0.18558424  1
  Se  Se244  1  0.08498141  0.58368227  0.69906643  1
  Se  Se245  1  0.08528304  0.91663022  0.20486291  1
  Se  Se246  1  0.07715545  0.92024367  0.69550810  1
  Se  Se247  1  0.42094203  0.24192127  0.18842280  1
  Se  Se248  1  0.41958029  0.24496247  0.68595694  1
  Se  Se249  1  0.41848924  0.57699426  0.19026158  1
  Se  Se250  1  0.41996337  0.58266353  0.69980371  1
  Se  Se251  1  0.44718693  0.88818664  0.19558067  1
  Se  Se252  1  0.41730718  0.92305674  0.69026999  1
  Se  Se253  1  0.74677398  0.25828641  0.19087578  1
  Se  Se254  1  0.74532246  0.24112796  0.70179807  1
  Se  Se255  1  0.74572711  0.59287331  0.19847603  1
  Se  Se256  1  0.76270174  0.56992253  0.69590025  1
  Se  Se257  1  0.75261696  0.92069450  0.19972803  1
  Se  Se258  1  0.74515157  0.89917794  0.68268289  1
