# generated using pymatgen
data_In86Cu29Se144
_symmetry_space_group_name_H-M   'P 1'
_cell_length_a   17.58775327
_cell_length_b   17.58628328
_cell_length_c   23.44822284
_cell_angle_alpha   89.98534189
_cell_angle_beta   90.00391825
_cell_angle_gamma   89.97048717
_symmetry_Int_Tables_number   1
_chemical_formula_structural   In86Cu29Se144
_chemical_formula_sum   'In86 Cu29 Se144'
_cell_volume   7252.60940636
_cell_formula_units_Z   1
loop_
 _symmetry_equiv_pos_site_id
 _symmetry_equiv_pos_as_xyz
  1  'x, y, z'
loop_
 _atom_site_type_symbol
 _atom_site_label
 _atom_site_symmetry_multiplicity
 _atom_site_fract_x
 _atom_site_fract_y
 _atom_site_fract_z
 _atom_site_occupancy
  In  In0  1  0.00402851  0.16721521  0.11900954  1
  In  In1  1  0.00748041  0.16821542  0.63025625  1
  In  In2  1  -0.00493731  0.50408566  0.13079323  1
  In  In3  1  0.00148696  0.50261692  0.62785986  1
  In  In4  1  -0.00986537  0.83154357  0.13165673  1
  In  In5  1  -0.01714409  0.82994424  0.62756851  1
  In  In6  1  0.32079059  0.15631864  0.11465668  1
  In  In7  1  0.34988649  0.15730491  0.63701719  1
  In  In8  1  0.35024356  0.50195165  0.12789002  1
  In  In9  1  0.32193757  0.50977959  0.62992469  1
  In  In10  1  0.32623414  0.83521141  0.13594408  1
  In  In11  1  0.34059637  0.82442319  0.63526033  1
  In  In12  1  0.67696794  0.16963332  0.11743121  1
  In  In13  1  0.65012512  0.16649456  0.62395533  1
  In  In14  1  0.64494532  0.49810373  0.12509142  1
  In  In15  1  0.68198525  0.50370521  0.62544053  1
  In  In16  1  0.68669712  0.83138348  0.12369519  1
  In  In17  1  0.66292094  0.83977099  0.62997432  1
  In  In18  1  0.16526918  -0.00190326  0.36645530  1
  In  In19  1  0.17684636  -0.00565735  0.87383960  1
  In  In20  1  0.16850202  0.34514851  0.37545089  1
  In  In21  1  0.16266184  0.32456365  0.87208254  1
  In  In22  1  0.15960427  0.65814678  0.37660950  1
  In  In23  1  0.16226827  0.66974637  0.86702290  1
  In  In24  1  0.50203159  0.00846461  0.38094355  1
  In  In25  1  0.50421512  0.00140293  0.87171846  1
  In  In26  1  0.49169467  0.31859760  0.37295802  1
  In  In27  1  0.49435951  0.34003734  0.88105631  1
  In  In28  1  0.50864448  0.68157353  0.37669172  1
  In  In29  1  0.49458554  0.66531670  0.86979004  1
  In  In30  1  0.83267457  -0.02222589  0.36890199  1
  In  In31  1  0.83391211  0.00315214  0.88065921  1
  In  In32  1  0.83451771  0.33522784  0.36007078  1
  In  In33  1  0.83621668  0.31753383  0.87730259  1
  In  In34  1  0.83679758  0.67161851  0.37198269  1
  In  In35  1  0.85276535  0.68766396  0.86304795  1
  In  In36  1  -0.00036278  0.16494358  0.36286489  1
  In  In37  1  -0.00892633  0.17017234  0.88349998  1
  In  In38  1  0.00531040  0.50860381  0.36694539  1
  In  In39  1  0.00752523  0.50294248  0.87356117  1
  In  In40  1  -0.01040151  0.82589260  0.36403684  1
  In  In41  1  -0.00333268  0.83047413  0.87983652  1
  In  In42  1  0.34582505  0.16319100  0.37478083  1
  In  In43  1  0.33459747  0.16752685  0.87586198  1
  In  In44  1  0.31935795  0.49225146  0.37899792  1
  In  In45  1  0.34213133  0.51069336  0.87042153  1
  In  In46  1  0.34118104  0.84280482  0.37060812  1
  In  In47  1  0.31948873  0.83184549  0.85596986  1
  In  In48  1  0.65127832  0.16126836  0.36976442  1
  In  In49  1  0.67526273  0.15505192  0.88416232  1
  In  In50  1  0.67762892  0.50342577  0.36948744  1
  In  In51  1  0.65321104  0.50158017  0.87566214  1
  In  In52  1  0.66774200  0.83521907  0.39042449  1
  In  In53  1  0.68363774  0.84446948  0.85737557  1
  In  In54  1  0.15663509  0.00456468  0.12982367  1
  In  In55  1  0.17213064  0.00989586  0.62936609  1
  In  In56  1  0.16726916  0.31882070  0.12003068  1
  In  In57  1  0.16026831  0.34537609  0.63190662  1
  In  In58  1  0.16674063  0.67085409  0.13282849  1
  In  In59  1  0.17613964  0.66249076  0.63310474  1
  In  In60  1  0.48454111  -0.00104599  0.12241323  1
  In  In61  1  0.50433269  -0.00254445  0.62704600  1
  In  In62  1  0.50770465  0.33664253  0.11959554  1
  In  In63  1  0.50114463  0.31841622  0.62506823  1
  In  In64  1  0.49882090  0.65407801  0.12504076  1
  In  In65  1  0.48853125  0.68027086  0.63037158  1
  In  In66  1  0.84813051  0.00119356  0.11198891  1
  In  In67  1  0.82748033  -0.02199426  0.62638149  1
  In  In68  1  0.84024952  0.32330452  0.13048329  1
  In  In69  1  0.83791463  0.34203687  0.62867161  1
  In  In70  1  0.84190555  0.68117944  0.11907020  1
  In  In71  1  0.81476610  0.69253214  0.65309948  1
  In  In72  1  0.66790690  0.33291886  0.74974561  1
  In  In73  1  0.82746331  0.15854291  0.50020584  1
  In  In74  1  0.16750481  0.83168680  0.50802030  1
  In  In75  1  0.84120384  0.50560382  0.49688693  1
  In  In76  1  0.50293723  0.83513970  -0.00471993  1
  In  In77  1  0.17068771  0.16817304  0.50670078  1
  In  In78  1  0.33195731  0.33181762  0.24904835  1
  In  In79  1  0.49631282  0.50153444  0.49893359  1
  In  In80  1  0.66995147  0.00142591  0.24788758  1
  In  In81  1  0.16041331  0.83772152  -0.00431839  1
  In  In82  1  0.00390921  -0.00239147  0.75559449  1
  In  In83  1  0.82542440  0.50399996  0.00493834  1
  In  In84  1  0.17075110  0.50356038  -0.00804327  1
  In  In85  1  0.66818737  0.66515879  0.24972393  1
  Cu  Cu86  1  0.16393183  0.49944726  0.25067114  1
  Cu  Cu87  1  0.83533744  0.16194468  0.75662276  1
  Cu  Cu88  1  0.32970575  0.33183699  0.50113423  1
  Cu  Cu89  1  0.33947893  0.32968609  0.00088039  1
  Cu  Cu90  1  0.00491965  0.33546198  0.50162823  1
  Cu  Cu91  1  0.66540275  0.67677372  0.51195377  1
  Cu  Cu92  1  0.34514028  0.00137472  0.50141924  1
  Cu  Cu93  1  0.50000964  0.83319425  0.25021513  1
  Cu  Cu94  1  -0.00082594  0.33353719  0.00188523  1
  Cu  Cu95  1  0.66613986  -0.00193149  -0.00518003  1
  Cu  Cu96  1  0.84185563  0.50027347  0.75330630  1
  Cu  Cu97  1  0.17171753  0.17597827  0.75092103  1
  Cu  Cu98  1  0.49671090  0.50229602  0.74890049  1
  Cu  Cu99  1  0.33293584  0.00188395  -0.00492099  1
  Cu  Cu100  1  0.16952737  0.49564413  0.75325561  1
  Cu  Cu101  1  0.50004158  0.16577887  0.75433415  1
  Cu  Cu102  1  -0.00712357  -0.01163201  0.49568861  1
  Cu  Cu103  1  0.66623885  0.66647624  -0.00506990  1
  Cu  Cu104  1  0.33011011  0.66997740  0.50595111  1
  Cu  Cu105  1  0.34006733  0.66592911  -0.00189369  1
  Cu  Cu106  1  0.83670201  0.16686023  0.23993091  1
  Cu  Cu107  1  0.16828545  0.82370634  0.25406820  1
  Cu  Cu108  1  0.49500618  0.16483697  0.24905100  1
  Cu  Cu109  1  0.82812262  0.49656055  0.24378287  1
  Cu  Cu110  1  0.16537794  0.16344273  0.24233536  1
  Cu  Cu111  1  0.66226362  0.32694753  0.49285550  1
  Cu  Cu112  1  0.50139136  0.83446544  0.74994454  1
  Cu  Cu113  1  -0.00806082  0.66366935  0.49850553  1
  Cu  Cu114  1  0.66284372  0.32919127  -0.00116684  1
  Se  Se115  1  0.09303090  0.08710915  0.05388870  1
  Se  Se116  1  0.07132242  0.07155275  0.55509263  1
  Se  Se117  1  0.08054868  0.41733907  0.05767546  1
  Se  Se118  1  0.08243334  0.42073533  0.55607039  1
  Se  Se119  1  0.08096344  0.74524356  0.06010796  1
  Se  Se120  1  0.07386400  0.73988966  0.56172612  1
  Se  Se121  1  0.41716934  0.08398121  0.04793313  1
  Se  Se122  1  0.42298868  0.08641754  0.55756145  1
  Se  Se123  1  0.41816637  0.41734617  0.05323627  1
  Se  Se124  1  0.41103787  0.41185558  0.56253787  1
  Se  Se125  1  0.41180284  0.75151121  0.06026829  1
  Se  Se126  1  0.41428468  0.75613699  0.55333437  1
  Se  Se127  1  0.75100448  0.07850386  0.05070299  1
  Se  Se128  1  0.74118661  0.07427728  0.56414239  1
  Se  Se129  1  0.74075207  0.40805244  0.06334382  1
  Se  Se130  1  0.74535508  0.40659672  0.55088237  1
  Se  Se131  1  0.75098086  0.74832039  0.04691107  1
  Se  Se132  1  0.75388678  0.75392309  0.56416901  1
  Se  Se133  1  0.24802110  0.24745588  0.04552390  1
  Se  Se134  1  0.25813983  0.25391941  0.56968625  1
  Se  Se135  1  0.25724314  0.58907577  0.05917613  1
  Se  Se136  1  0.24497211  0.58441316  0.55334607  1
  Se  Se137  1  0.25650251  0.92022839  0.05780542  1
  Se  Se138  1  0.26061982  0.92613076  0.56117989  1
  Se  Se139  1  0.58126537  0.24422014  0.05281929  1
  Se  Se140  1  0.57935240  0.24737582  0.54772963  1
  Se  Se141  1  0.58214842  0.58607872  0.04888130  1
  Se  Se142  1  0.58679119  0.58687303  0.56361505  1
  Se  Se143  1  0.59129490  0.92098092  0.06202157  1
  Se  Se144  1  0.57453175  0.90732228  0.55716839  1
  Se  Se145  1  0.91427570  0.24985443  0.05285544  1
  Se  Se146  1  0.92208310  0.25425590  0.55784599  1
  Se  Se147  1  0.92811264  0.59059800  0.05329265  1
  Se  Se148  1  0.91087455  0.59576694  0.56747318  1
  Se  Se149  1  0.91293102  0.89685912  0.05119168  1
  Se  Se150  1  0.91029361  0.90837033  0.55052622  1
  Se  Se151  1  0.07928407  0.25066631  0.44087431  1
  Se  Se152  1  0.08289050  0.25195222  0.94744444  1
  Se  Se153  1  0.07699418  0.57901624  0.44841867  1
  Se  Se154  1  0.07560112  0.59979138  0.94485754  1
  Se  Se155  1  0.08184974  0.91490053  0.43912504  1
  Se  Se156  1  0.07157563  0.93456480  0.94227163  1
  Se  Se157  1  0.41355130  0.24776749  0.45014512  1
  Se  Se158  1  0.42134011  0.24550413  0.94658346  1
  Se  Se159  1  0.40759715  0.59282040  0.43964709  1
  Se  Se160  1  0.42347141  0.58273936  0.94639778  1
  Se  Se161  1  0.42183800  0.91594288  0.44505274  1
  Se  Se162  1  0.40413982  0.91435208  0.93429207  1
  Se  Se163  1  0.74946801  0.25426696  0.43427639  1
  Se  Se164  1  0.75152427  0.24766395  0.95025573  1
  Se  Se165  1  0.74013028  0.59780153  0.44568909  1
  Se  Se166  1  0.74883371  0.58950110  0.93366667  1
  Se  Se167  1  0.74750361  0.92941225  0.44915477  1
  Se  Se168  1  0.74756019  0.91255396  0.94297533  1
  Se  Se169  1  0.25498507  0.07538927  0.44301675  1
  Se  Se170  1  0.24780361  0.08464690  0.94351830  1
  Se  Se171  1  0.24284385  0.41643108  0.45475064  1
  Se  Se172  1  0.26174275  0.41048527  0.93738353  1
  Se  Se173  1  0.25343872  0.74839852  0.44001092  1
  Se  Se174  1  0.25845686  0.74606351  0.94029407  1
  Se  Se175  1  0.58991022  0.08392055  0.44874003  1
  Se  Se176  1  0.57769399  0.08097747  0.94765318  1
  Se  Se177  1  0.58732398  0.41454762  0.43576489  1
  Se  Se178  1  0.58236518  0.41843006  0.94962725  1
  Se  Se179  1  0.57946642  0.75408747  0.45606845  1
  Se  Se180  1  0.59153998  0.75016340  0.93259246  1
  Se  Se181  1  0.92272206  0.07824171  0.43719373  1
  Se  Se182  1  0.90762618  0.08976372  0.95017708  1
  Se  Se183  1  0.92280016  0.40797878  0.43745189  1
  Se  Se184  1  0.91944802  0.41527295  0.94246553  1
  Se  Se185  1  0.91578531  0.75156448  0.44377054  1
  Se  Se186  1  0.91036857  0.75565738  0.95002583  1
  Se  Se187  1  0.24217950  0.23981850  0.31068382  1
  Se  Se188  1  0.25786527  0.25537847  0.80491544  1
  Se  Se189  1  0.24683619  0.57838480  0.30777036  1
  Se  Se190  1  0.24980403  0.58508655  0.80412440  1
  Se  Se191  1  0.25051891  0.91486349  0.30159078  1
  Se  Se192  1  0.24467626  0.92461612  0.79276938  1
  Se  Se193  1  0.57903228  0.25004106  0.29946030  1
  Se  Se194  1  0.58356403  0.24534199  0.81470458  1
  Se  Se195  1  0.57459215  0.57793477  0.30905020  1
  Se  Se196  1  0.58143245  0.58373165  0.80136712  1
  Se  Se197  1  0.58295206  0.91065990  0.31024269  1
  Se  Se198  1  0.58391721  0.92156093  0.79984896  1
  Se  Se199  1  0.91947410  0.25053680  0.29574230  1
  Se  Se200  1  0.92083381  0.24831716  0.80305098  1
  Se  Se201  1  0.90595941  0.57905270  0.30364053  1
  Se  Se202  1  0.92589605  0.58467608  0.80441010  1
  Se  Se203  1  0.93424769  0.93171124  0.29955926  1
  Se  Se204  1  0.90658808  0.91012656  0.80788726  1
  Se  Se205  1  0.08321791  0.07998886  0.29786105  1
  Se  Se206  1  0.08973152  0.09579156  0.81157088  1
  Se  Se207  1  0.08156370  0.41332234  0.30252424  1
  Se  Se208  1  0.08348269  0.41433248  0.80617314  1
  Se  Se209  1  0.08183848  0.74119177  0.30542766  1
  Se  Se210  1  0.09417890  0.77349257  0.80999867  1
  Se  Se211  1  0.41814735  0.07705233  0.30348862  1
  Se  Se212  1  0.41519958  0.08206733  0.80615665  1
  Se  Se213  1  0.41901044  0.42224844  0.31064517  1
  Se  Se214  1  0.41918937  0.41744144  0.80486312  1
  Se  Se215  1  0.41926063  0.74976465  0.30528822  1
  Se  Se216  1  0.41553972  0.74888015  0.79942112  1
  Se  Se217  1  0.76114308  0.09175208  0.30888932  1
  Se  Se218  1  0.74978207  0.07995495  0.80697012  1
  Se  Se219  1  0.74298358  0.41506743  0.29638331  1
  Se  Se220  1  0.75855451  0.42025188  0.81323441  1
  Se  Se221  1  0.74955384  0.76328224  0.30878771  1
  Se  Se222  1  0.73905947  0.73136013  0.80175996  1
  Se  Se223  1  0.25346729  0.07973905  0.19462527  1
  Se  Se224  1  0.25216114  0.08631098  0.70147290  1
  Se  Se225  1  0.24219544  0.42139600  0.18649795  1
  Se  Se226  1  0.25513373  0.41495904  0.69937346  1
  Se  Se227  1  0.25635087  0.74171054  0.20349760  1
  Se  Se228  1  0.24349694  0.75731349  0.69928234  1
  Se  Se229  1  0.57664376  0.08743365  0.18681727  1
  Se  Se230  1  0.58295828  0.08398999  0.69933465  1
  Se  Se231  1  0.57141475  0.41800252  0.19781103  1
  Se  Se232  1  0.57861062  0.42390408  0.68735366  1
  Se  Se233  1  0.58084218  0.75894429  0.18675196  1
  Se  Se234  1  0.58358990  0.74819209  0.69735246  1
  Se  Se235  1  0.91929028  0.08340340  0.18753206  1
  Se  Se236  1  0.91095261  0.08386833  0.68985712  1
  Se  Se237  1  0.91787651  0.41394397  0.19635272  1
  Se  Se238  1  0.92209193  0.41586978  0.69853273  1
  Se  Se239  1  0.91617913  0.74161566  0.20079831  1
  Se  Se240  1  0.93147068  0.74255722  0.70658037  1
  Se  Se241  1  0.08215792  0.25076993  0.19365063  1
  Se  Se242  1  0.08223036  0.25420863  0.69874898  1
  Se  Se243  1  0.08179227  0.58450650  0.19725329  1
  Se  Se244  1  0.08754152  0.57978609  0.69765339  1
  Se  Se245  1  0.08992303  0.90419305  0.19356114  1
  Se  Se246  1  0.08601268  0.91358512  0.68558850  1
  Se  Se247  1  0.41491950  0.24126781  0.18488796  1
  Se  Se248  1  0.41969355  0.25481476  0.70357411  1
  Se  Se249  1  0.41421250  0.59051420  0.20007843  1
  Se  Se250  1  0.41339552  0.58647151  0.69534644  1
  Se  Se251  1  0.41585493  0.91853638  0.19913958  1
  Se  Se252  1  0.41756276  0.91992505  0.69739149  1
  Se  Se253  1  0.74425750  0.24954306  0.19601827  1
  Se  Se254  1  0.75806766  0.24011649  0.68978078  1
  Se  Se255  1  0.75317953  0.57870904  0.18134910  1
  Se  Se256  1  0.74930817  0.57822474  0.70451358  1
  Se  Se257  1  0.76660370  0.91597468  0.19263779  1
  Se  Se258  1  0.74937787  0.91176736  0.70321039  1
