# generated using pymatgen
data_In86Cu29Se144
_symmetry_space_group_name_H-M   'P 1'
_cell_length_a   17.58804668
_cell_length_b   17.58374883
_cell_length_c   23.44328780
_cell_angle_alpha   90.01758467
_cell_angle_beta   89.99435739
_cell_angle_gamma   89.99556708
_symmetry_Int_Tables_number   1
_chemical_formula_structural   In86Cu29Se144
_chemical_formula_sum   'In86 Cu29 Se144'
_cell_volume   7250.15976037
_cell_formula_units_Z   1
loop_
 _symmetry_equiv_pos_site_id
 _symmetry_equiv_pos_as_xyz
  1  'x, y, z'
loop_
 _atom_site_type_symbol
 _atom_site_label
 _atom_site_symmetry_multiplicity
 _atom_site_fract_x
 _atom_site_fract_y
 _atom_site_fract_z
 _atom_site_occupancy
  In  In0  1  -0.00921030  0.15612497  0.12115374  1
  In  In1  1  0.00091961  0.16231691  0.62613795  1
  In  In2  1  0.00947635  0.49242977  0.12506282  1
  In  In3  1  0.00146079  0.48432850  0.62939471  1
  In  In4  1  0.01754414  0.84097054  0.12828992  1
  In  In5  1  0.01450912  0.85028011  0.61681010  1
  In  In6  1  0.30998693  0.13593362  0.09362900  1
  In  In7  1  0.30709778  0.15974799  0.61706000  1
  In  In8  1  0.33599012  0.49841485  0.10786550  1
  In  In9  1  0.33285975  0.48893247  0.61099096  1
  In  In10  1  0.32405320  0.85196359  0.12902822  1
  In  In11  1  0.34637846  0.85051919  0.61086667  1
  In  In12  1  0.67781135  0.17539088  0.12134643  1
  In  In13  1  0.66484415  0.14945317  0.62377377  1
  In  In14  1  0.64993077  0.50117396  0.13089671  1
  In  In15  1  0.66248112  0.51077133  0.62568998  1
  In  In16  1  0.65594518  0.82435000  0.13251570  1
  In  In17  1  0.66416285  0.83325130  0.61985193  1
  In  In18  1  0.17081990  0.00382220  0.37520751  1
  In  In19  1  0.16635080  0.00500353  0.87696198  1
  In  In20  1  0.17375350  0.32898156  0.38469302  1
  In  In21  1  0.16906379  0.33484177  0.87891117  1
  In  In22  1  0.16696680  0.67031547  0.38226719  1
  In  In23  1  0.18432519  0.66131609  0.89037431  1
  In  In24  1  0.48141286  -0.00027430  0.37699710  1
  In  In25  1  0.50724844  0.00372370  0.86996268  1
  In  In26  1  0.51047515  0.33102347  0.37447403  1
  In  In27  1  0.49146504  0.33438017  0.88993124  1
  In  In28  1  0.50053261  0.66633463  0.37632520  1
  In  In29  1  0.49730150  0.65890691  0.87382773  1
  In  In30  1  0.84466884  -0.00409036  0.38165407  1
  In  In31  1  0.84380299  0.01314824  0.86568151  1
  In  In32  1  0.82380461  0.33154589  0.37467160  1
  In  In33  1  0.83600853  0.31485431  0.87491312  1
  In  In34  1  0.83177074  0.67875946  0.37437465  1
  In  In35  1  0.82726564  0.68053165  0.86925235  1
  In  In36  1  0.01340084  0.15788550  0.38093466  1
  In  In37  1  0.00323923  0.16618034  0.87438527  1
  In  In38  1  0.00912625  0.50607161  0.37554508  1
  In  In39  1  0.01884966  0.49668519  0.87104477  1
  In  In40  1  -0.00331194  0.83804480  0.38075138  1
  In  In41  1  0.00546216  0.84859255  0.86626529  1
  In  In42  1  0.32640712  0.14947446  0.37214884  1
  In  In43  1  0.34428535  0.15060612  0.89348527  1
  In  In44  1  0.33020693  0.50133886  0.38331645  1
  In  In45  1  0.33811001  0.49645021  0.89215492  1
  In  In46  1  0.31221830  0.86518045  0.39844866  1
  In  In47  1  0.31924238  0.84024005  0.88127250  1
  In  In48  1  0.66761102  0.17880216  0.37163197  1
  In  In49  1  0.67591098  0.16392521  0.88114549  1
  In  In50  1  0.65595143  0.49477664  0.37079560  1
  In  In51  1  0.65099714  0.50301202  0.87329402  1
  In  In52  1  0.67633942  0.82847301  0.37920127  1
  In  In53  1  0.66687648  0.83659654  0.86114389  1
  In  In54  1  0.16088723  -0.00103424  0.12487153  1
  In  In55  1  0.16580759  -0.00430652  0.62955314  1
  In  In56  1  0.17592104  0.32718353  0.10885716  1
  In  In57  1  0.16171412  0.31906612  0.61475439  1
  In  In58  1  0.17966995  0.67495976  0.11306433  1
  In  In59  1  0.17254077  0.67359285  0.62100833  1
  In  In60  1  0.48702846  -0.00504998  0.12363038  1
  In  In61  1  0.50799543  -0.00179698  0.63074025  1
  In  In62  1  0.49789407  0.33068174  0.11950813  1
  In  In63  1  0.48232712  0.33567606  0.62010063  1
  In  In64  1  0.50793830  0.66433090  0.12721514  1
  In  In65  1  0.50081330  0.66951407  0.62087641  1
  In  In66  1  0.84103897  0.02255775  0.12766970  1
  In  In67  1  0.83410757  -0.00063267  0.61997648  1
  In  In68  1  0.82841823  0.30949025  0.12956272  1
  In  In69  1  0.85164917  0.33010324  0.62845262  1
  In  In70  1  0.82375452  0.65776808  0.12969083  1
  In  In71  1  0.81699931  0.66654295  0.62644501  1
  In  In72  1  0.32923839  0.32504634  0.75464290  1
  In  In73  1  -0.00319890  0.32861874  0.24640304  1
  In  In74  1  0.83736543  0.84097623  -0.00668183  1
  In  In75  1  -0.00268680  0.67164815  0.25747717  1
  In  In76  1  0.66567274  0.32946985  0.75691528  1
  In  In77  1  0.49293165  0.82885502  0.00256974  1
  In  In78  1  0.33493543  0.67049557  0.75641832  1
  In  In79  1  0.49513800  0.16609814  0.49773988  1
  In  In80  1  0.66964207  -0.00227341  0.25211195  1
  In  In81  1  0.34007531  0.32664654  0.23649528  1
  In  In82  1  0.83540716  0.49754294  0.50428491  1
  In  In83  1  -0.00168942  0.67377975  0.75086445  1
  In  In84  1  0.33728141  0.67811746  0.24704520  1
  In  In85  1  0.83692678  0.49657346  0.00577331  1
  Cu  Cu86  1  0.66660211  0.33200513  0.00079613  1
  Cu  Cu87  1  0.82663338  0.83539948  0.74124196  1
  Cu  Cu88  1  0.16755471  0.16130409  0.24515150  1
  Cu  Cu89  1  0.33667698  0.66800969  0.50027671  1
  Cu  Cu90  1  0.83342333  0.49860484  0.74633622  1
  Cu  Cu91  1  0.00540643  0.00387447  -0.00410020  1
  Cu  Cu92  1  0.00257038  0.32882683  -0.00078132  1
  Cu  Cu93  1  0.49435469  0.16260308  0.75386614  1
  Cu  Cu94  1  0.01059956  0.67102516  -0.00043248  1
  Cu  Cu95  1  0.66695703  0.33356668  0.49748193  1
  Cu  Cu96  1  0.00441679  0.00507034  0.50189783  1
  Cu  Cu97  1  0.66806537  -0.00351686  0.49954006  1
  Cu  Cu98  1  0.50168981  0.49483849  0.25049527  1
  Cu  Cu99  1  0.49365254  0.83133506  0.25348865  1
  Cu  Cu100  1  0.49878646  0.50414192  0.74981811  1
  Cu  Cu101  1  0.66380242  0.66673078  0.50006645  1
  Cu  Cu102  1  0.16544937  0.49302681  0.75019451  1
  Cu  Cu103  1  0.16768043  0.83787943  0.75168622  1
  Cu  Cu104  1  0.66543969  0.66470285  0.00068147  1
  Cu  Cu105  1  0.83245625  0.83440392  0.25502298  1
  Cu  Cu106  1  0.00453821  0.32640890  0.50244742  1
  Cu  Cu107  1  0.16078253  0.16153301  0.75098300  1
  Cu  Cu108  1  0.66493244  0.00691702  -0.00241785  1
  Cu  Cu109  1  0.16814571  0.50316223  0.24698711  1
  Cu  Cu110  1  0.83476177  0.16018362  0.74906987  1
  Cu  Cu111  1  0.00078207  0.66646108  0.49909086  1
  Cu  Cu112  1  0.50058719  0.83720368  0.74102672  1
  Cu  Cu113  1  0.49719755  0.16279308  0.24631381  1
  Cu  Cu114  1  0.81691591  0.49541563  0.24980320  1
  Se  Se115  1  0.08433910  0.08758462  0.05314249  1
  Se  Se116  1  0.08908307  0.08387060  0.55847728  1
  Se  Se117  1  0.08409376  0.41515745  0.05088617  1
  Se  Se118  1  0.08324087  0.41679082  0.55377701  1
  Se  Se119  1  0.08719677  0.75901550  0.05291496  1
  Se  Se120  1  0.08336727  0.74982845  0.55365991  1
  Se  Se121  1  0.42873451  0.07836821  0.04588969  1
  Se  Se122  1  0.41179344  0.07788773  0.56224280  1
  Se  Se123  1  0.43606251  0.42732109  0.04999538  1
  Se  Se124  1  0.42824218  0.42295510  0.54358378  1
  Se  Se125  1  0.40716779  0.74624304  0.06993554  1
  Se  Se126  1  0.42177787  0.75218506  0.55081909  1
  Se  Se127  1  0.75259536  0.08405383  0.05229258  1
  Se  Se128  1  0.75101528  0.08359788  0.54958348  1
  Se  Se129  1  0.74466066  0.41036240  0.06531737  1
  Se  Se130  1  0.74507486  0.40741651  0.56539587  1
  Se  Se131  1  0.74694242  0.74844180  0.05615374  1
  Se  Se132  1  0.74985174  0.74949016  0.55099802  1
  Se  Se133  1  0.27883167  0.26597526  0.04605706  1
  Se  Se134  1  0.27907833  0.27729644  0.55671936  1
  Se  Se135  1  0.23843395  0.57343578  0.04896951  1
  Se  Se136  1  0.25122927  0.58592117  0.55404166  1
  Se  Se137  1  0.24948918  0.92545413  0.05383391  1
  Se  Se138  1  0.22868315  0.89998275  0.55881231  1
  Se  Se139  1  0.58500705  0.24587511  0.05321073  1
  Se  Se140  1  0.58767199  0.25387287  0.56121004  1
  Se  Se141  1  0.58219790  0.58241853  0.05297650  1
  Se  Se142  1  0.58060052  0.58157743  0.55172019  1
  Se  Se143  1  0.59410707  0.91853362  0.05757652  1
  Se  Se144  1  0.58020058  0.91926530  0.55340647  1
  Se  Se145  1  0.91671386  0.24974006  0.05349616  1
  Se  Se146  1  0.91779619  0.24532785  0.55417569  1
  Se  Se147  1  0.92833353  0.59493898  0.06078516  1
  Se  Se148  1  0.92439557  0.58857959  0.56498960  1
  Se  Se149  1  0.92344336  0.92587967  0.05894744  1
  Se  Se150  1  0.91780203  0.91773379  0.55005323  1
  Se  Se151  1  0.09101330  0.24438820  0.45051361  1
  Se  Se152  1  0.08571764  0.24708072  0.94461625  1
  Se  Se153  1  0.08601240  0.58248227  0.44915544  1
  Se  Se154  1  0.08492431  0.58062620  0.94645119  1
  Se  Se155  1  0.08369394  0.92151512  0.44451063  1
  Se  Se156  1  0.08373170  0.91476786  0.94416679  1
  Se  Se157  1  0.40855680  0.25258870  0.43303901  1
  Se  Se158  1  0.39881263  0.26162876  0.95453782  1
  Se  Se159  1  0.41888211  0.58411183  0.44594207  1
  Se  Se160  1  0.41620659  0.59465820  0.94937617  1
  Se  Se161  1  0.42367248  0.91942166  0.45709100  1
  Se  Se162  1  0.41506419  0.92541881  0.94173642  1
  Se  Se163  1  0.75032147  0.24834836  0.44844555  1
  Se  Se164  1  0.75394010  0.24903641  0.95139542  1
  Se  Se165  1  0.74681054  0.58450375  0.44075185  1
  Se  Se166  1  0.75032211  0.58800255  0.94101032  1
  Se  Se167  1  0.75476068  0.91498190  0.44675748  1
  Se  Se168  1  0.74300629  0.92682974  0.93486457  1
  Se  Se169  1  0.24594025  0.08680663  0.44914468  1
  Se  Se170  1  0.24193936  0.08236153  0.95278153  1
  Se  Se171  1  0.23607687  0.43037237  0.44716995  1
  Se  Se172  1  0.24188417  0.42058343  0.95009149  1
  Se  Se173  1  0.24899660  0.75127454  0.45137147  1
  Se  Se174  1  0.25956658  0.75078875  0.95498475  1
  Se  Se175  1  0.58974620  0.07813720  0.43688930  1
  Se  Se176  1  0.58027807  0.08768345  0.94416497  1
  Se  Se177  1  0.58231968  0.41682632  0.44754511  1
  Se  Se178  1  0.58605926  0.41832452  0.94832638  1
  Se  Se179  1  0.58442476  0.75076428  0.44414974  1
  Se  Se180  1  0.59262664  0.74973373  0.93896239  1
  Se  Se181  1  0.91890693  0.08753799  0.44931798  1
  Se  Se182  1  0.91680494  0.08512180  0.94466388  1
  Se  Se183  1  0.92638292  0.40951513  0.44093795  1
  Se  Se184  1  0.92346157  0.41198866  0.93885549  1
  Se  Se185  1  0.91571620  0.74865596  0.44739934  1
  Se  Se186  1  0.92883050  0.74540285  0.93744000  1
  Se  Se187  1  0.24491936  0.24786460  0.30316254  1
  Se  Se188  1  0.24540914  0.23237697  0.81508672  1
  Se  Se189  1  0.24684168  0.58287010  0.30689890  1
  Se  Se190  1  0.24796885  0.57061894  0.81058096  1
  Se  Se191  1  0.25773627  0.92296458  0.30753985  1
  Se  Se192  1  0.24968411  0.92178612  0.80588641  1
  Se  Se193  1  0.57867360  0.24742960  0.29907410  1
  Se  Se194  1  0.56986286  0.24558540  0.81575769  1
  Se  Se195  1  0.57894199  0.58402664  0.30357477  1
  Se  Se196  1  0.58329150  0.58945195  0.79928591  1
  Se  Se197  1  0.57674673  0.91172322  0.31307940  1
  Se  Se198  1  0.58322132  0.92120926  0.79667779  1
  Se  Se199  1  0.91722462  0.24366465  0.31476332  1
  Se  Se200  1  0.91845764  0.24512544  0.80102111  1
  Se  Se201  1  0.90383470  0.57129759  0.30882993  1
  Se  Se202  1  0.91167192  0.57776699  0.81150840  1
  Se  Se203  1  0.91816773  0.91541488  0.30567796  1
  Se  Se204  1  0.90976153  0.91393456  0.79901843  1
  Se  Se205  1  0.08587786  0.08306292  0.30270185  1
  Se  Se206  1  0.07788016  0.07687368  0.80448678  1
  Se  Se207  1  0.09140987  0.41850000  0.30541572  1
  Se  Se208  1  0.08574716  0.40479479  0.80088718  1
  Se  Se209  1  0.09271790  0.76052198  0.31047635  1
  Se  Se210  1  0.09914992  0.74850325  0.81304638  1
  Se  Se211  1  0.41335237  0.08026104  0.29925593  1
  Se  Se212  1  0.40993087  0.08230509  0.80827252  1
  Se  Se213  1  0.41538443  0.41854718  0.30844848  1
  Se  Se214  1  0.42070848  0.42308833  0.81046727  1
  Se  Se215  1  0.41111579  0.76301561  0.31966029  1
  Se  Se216  1  0.42512736  0.76551117  0.81194463  1
  Se  Se217  1  0.75770900  0.08518767  0.31301690  1
  Se  Se218  1  0.74405265  0.08451797  0.80250379  1
  Se  Se219  1  0.74032388  0.40951238  0.30489392  1
  Se  Se220  1  0.75734066  0.42281086  0.81466163  1
  Se  Se221  1  0.74606498  0.74795050  0.30045736  1
  Se  Se222  1  0.74576816  0.74829875  0.79360868  1
  Se  Se223  1  0.25333395  0.08501140  0.18786327  1
  Se  Se224  1  0.24855847  0.08120353  0.69877507  1
  Se  Se225  1  0.24522745  0.42374623  0.18525844  1
  Se  Se226  1  0.24734456  0.41689007  0.68950680  1
  Se  Se227  1  0.23575354  0.76249351  0.19515144  1
  Se  Se228  1  0.25117250  0.76001061  0.69237650  1
  Se  Se229  1  0.58099997  0.08220265  0.18730333  1
  Se  Se230  1  0.58390808  0.08479709  0.70183075  1
  Se  Se231  1  0.57828344  0.40583606  0.19663835  1
  Se  Se232  1  0.57513755  0.41594325  0.69244702  1
  Se  Se233  1  0.57801913  0.74527313  0.20472910  1
  Se  Se234  1  0.58244197  0.74956303  0.69129671  1
  Se  Se235  1  0.91910124  0.09160476  0.20362970  1
  Se  Se236  1  0.91623382  0.07832270  0.69291941  1
  Se  Se237  1  0.90426066  0.42408016  0.18908533  1
  Se  Se238  1  0.92110939  0.41183388  0.70457304  1
  Se  Se239  1  0.90956543  0.75566248  0.18880471  1
  Se  Se240  1  0.91354711  0.75779387  0.68351368  1
  Se  Se241  1  0.09374162  0.24763115  0.18465284  1
  Se  Se242  1  0.08597181  0.24838595  0.69347152  1
  Se  Se243  1  0.08828125  0.58760505  0.19086288  1
  Se  Se244  1  0.09015814  0.58070394  0.69285620  1
  Se  Se245  1  0.07531875  0.93122183  0.20087194  1
  Se  Se246  1  0.07861707  0.91856266  0.70177538  1
  Se  Se247  1  0.41643305  0.22775400  0.17747127  1
  Se  Se248  1  0.41646824  0.23743954  0.68991220  1
  Se  Se249  1  0.41728646  0.57254387  0.19161341  1
  Se  Se250  1  0.41328482  0.57662508  0.68896651  1
  Se  Se251  1  0.41487636  0.91860092  0.20127844  1
  Se  Se252  1  0.41185670  0.92088702  0.69472429  1
  Se  Se253  1  0.74846751  0.24105724  0.20465224  1
  Se  Se254  1  0.75302043  0.24398475  0.69049425  1
  Se  Se255  1  0.73737967  0.58354247  0.19825092  1
  Se  Se256  1  0.74583553  0.58185464  0.70012361  1
  Se  Se257  1  0.75852418  0.91045058  0.18621170  1
  Se  Se258  1  0.74513109  0.91989216  0.68799432  1
