# generated using pymatgen
data_In86Cu29Se144
_symmetry_space_group_name_H-M   'P 1'
_cell_length_a   17.57796412
_cell_length_b   17.57839912
_cell_length_c   23.42712539
_cell_angle_alpha   90.01037038
_cell_angle_beta   89.96836830
_cell_angle_gamma   89.98600201
_symmetry_Int_Tables_number   1
_chemical_formula_structural   In86Cu29Se144
_chemical_formula_sum   'In86 Cu29 Se144'
_cell_volume   7238.80387349
_cell_formula_units_Z   1
loop_
 _symmetry_equiv_pos_site_id
 _symmetry_equiv_pos_as_xyz
  1  'x, y, z'
loop_
 _atom_site_type_symbol
 _atom_site_label
 _atom_site_symmetry_multiplicity
 _atom_site_fract_x
 _atom_site_fract_y
 _atom_site_fract_z
 _atom_site_occupancy
  In  In0  1  -0.00717214  0.15318965  0.10632637  1
  In  In1  1  0.00377164  0.16837795  0.62696531  1
  In  In2  1  0.01090085  0.50275185  0.12309285  1
  In  In3  1  -0.01052023  0.49258611  0.62845009  1
  In  In4  1  0.00191528  0.83243498  0.11378818  1
  In  In5  1  0.00168568  0.84117045  0.62067647  1
  In  In6  1  0.31598552  0.14734996  0.09525437  1
  In  In7  1  0.34375286  0.15715108  0.63982315  1
  In  In8  1  0.32585532  0.50627498  0.11880384  1
  In  In9  1  0.34046936  0.48945431  0.63143137  1
  In  In10  1  0.34248167  0.85006115  0.10263503  1
  In  In11  1  0.37069170  0.81018296  0.66101541  1
  In  In12  1  0.67115632  0.16299265  0.12510222  1
  In  In13  1  0.66429456  0.15747516  0.61641921  1
  In  In14  1  0.66109921  0.50164108  0.13632160  1
  In  In15  1  0.66898445  0.51930090  0.62885739  1
  In  In16  1  0.65376729  0.82287850  0.12310019  1
  In  In17  1  0.65630772  0.82470563  0.61718425  1
  In  In18  1  0.16676371  -0.00073950  0.35897331  1
  In  In19  1  0.18606550  -0.03427457  0.92633719  1
  In  In20  1  0.16842831  0.33012117  0.36985169  1
  In  In21  1  0.17322268  0.33682795  0.87892121  1
  In  In22  1  0.16347790  0.68272138  0.36962675  1
  In  In23  1  0.16837768  0.65483190  0.88325932  1
  In  In24  1  0.49525357  0.00245489  0.37802907  1
  In  In25  1  0.49397403  -0.00207644  0.88382513  1
  In  In26  1  0.50925959  0.32401632  0.38333110  1
  In  In27  1  0.46891243  0.32726691  0.87959857  1
  In  In28  1  0.50445726  0.66351475  0.38246232  1
  In  In29  1  0.50194066  0.68341600  0.86212845  1
  In  In30  1  0.83960167  -0.00981284  0.37525892  1
  In  In31  1  0.84759718  -0.00799434  0.89189727  1
  In  In32  1  0.81983691  0.33798307  0.37459382  1
  In  In33  1  0.83835794  0.31343558  0.87358417  1
  In  In34  1  0.84161880  0.68580629  0.36579171  1
  In  In35  1  0.83442294  0.68075048  0.87309021  1
  In  In36  1  0.00456437  0.14995945  0.36770198  1
  In  In37  1  0.00228749  0.16603569  0.88218152  1
  In  In38  1  -0.01314208  0.51261686  0.37304170  1
  In  In39  1  0.02735050  0.49754696  0.88006175  1
  In  In40  1  -0.01131797  0.82514971  0.35935008  1
  In  In41  1  0.01517015  0.81855136  0.91164101  1
  In  In42  1  0.34201858  0.16425771  0.37400296  1
  In  In43  1  0.32705773  0.15866135  0.88577021  1
  In  In44  1  0.34030161  0.51585016  0.37862683  1
  In  In45  1  0.32376726  0.49653665  0.86589954  1
  In  In46  1  0.33100946  0.84542093  0.37407855  1
  In  In47  1  0.34121327  0.83382971  0.87509516  1
  In  In48  1  0.65981787  0.17544576  0.37792231  1
  In  In49  1  0.67429857  0.15789743  0.88194192  1
  In  In50  1  0.66217426  0.49332585  0.37252404  1
  In  In51  1  0.65174196  0.50591693  0.87078612  1
  In  In52  1  0.66789773  0.82982717  0.37509829  1
  In  In53  1  0.66606318  0.83448117  0.87809481  1
  In  In54  1  0.16425005  -0.00263811  0.11162809  1
  In  In55  1  0.17435995  0.00557363  0.63011429  1
  In  In56  1  0.16749699  0.32599532  0.10622766  1
  In  In57  1  0.16640236  0.32873087  0.63885070  1
  In  In58  1  0.15548825  0.66841380  0.10934902  1
  In  In59  1  0.17563642  0.68429085  0.63020105  1
  In  In60  1  0.48505308  -0.01017969  0.11391103  1
  In  In61  1  0.49286309  -0.00202191  0.62107872  1
  In  In62  1  0.50619629  0.32578579  0.12730668  1
  In  In63  1  0.49386446  0.32250229  0.62427848  1
  In  In64  1  0.49970428  0.68111296  0.12997038  1
  In  In65  1  0.50488267  0.66643447  0.62291302  1
  In  In66  1  0.84727558  0.00281979  0.11572662  1
  In  In67  1  0.82767146  -0.00786344  0.61344222  1
  In  In68  1  0.82700468  0.32179368  0.12750368  1
  In  In69  1  0.84370500  0.32739960  0.62955955  1
  In  In70  1  0.82285152  0.67565754  0.13019612  1
  In  In71  1  0.82471871  0.66628023  0.62419035  1
  In  In72  1  0.16970875  0.16537175  0.50607789  1
  In  In73  1  0.66137586  -0.00434766  0.75647145  1
  In  In74  1  0.00378447  0.66323383  0.75587549  1
  In  In75  1  0.16988031  0.50151408  0.49396937  1
  In  In76  1  0.33599240  0.32887528  0.24428556  1
  In  In77  1  0.66711237  -0.00388101  0.25303352  1
  In  In78  1  0.83278457  0.50412480  0.00591002  1
  In  In79  1  0.32777019  0.67410605  0.24282245  1
  In  In80  1  -0.00310834  0.33197952  0.23849321  1
  In  In81  1  0.66452073  0.33137912  0.75025590  1
  In  In82  1  0.16833525  0.83991337  0.50262692  1
  In  In83  1  0.00386454  0.00226537  0.76827408  1
  In  In84  1  0.82743359  0.50242797  0.50251940  1
  In  In85  1  0.49453992  0.49960633  -0.00535996  1
  Cu  Cu86  1  0.83405084  0.16513058  0.24397562  1
  Cu  Cu87  1  0.34366998  0.33168648  0.50517819  1
  Cu  Cu88  1  0.33603648  -0.00056076  0.50454311  1
  Cu  Cu89  1  0.50273039  0.49591838  0.25426146  1
  Cu  Cu90  1  0.16948672  0.84479689  0.76639887  1
  Cu  Cu91  1  0.49748438  0.50952773  0.74920578  1
  Cu  Cu92  1  0.49514753  0.15870696  0.25134992  1
  Cu  Cu93  1  0.16663806  0.83897609  0.23721774  1
  Cu  Cu94  1  0.82818132  0.51153523  0.25205600  1
  Cu  Cu95  1  0.84340178  0.15850482  0.75131012  1
  Cu  Cu96  1  0.66894037  0.00308429  0.49295154  1
  Cu  Cu97  1  0.67072546  -0.00808026  0.00531812  1
  Cu  Cu98  1  0.33108735  0.66592458  -0.00290667  1
  Cu  Cu99  1  0.83718519  0.84192614  0.24409667  1
  Cu  Cu100  1  0.49452831  0.16740739  0.75961045  1
  Cu  Cu101  1  0.66504208  0.33302812  0.50056415  1
  Cu  Cu102  1  0.66086675  0.67158339  -0.00074970  1
  Cu  Cu103  1  0.17215842  0.16997755  0.76188878  1
  Cu  Cu104  1  0.15768170  0.50368339  0.24269639  1
  Cu  Cu105  1  0.34304162  0.66863833  0.50859996  1
  Cu  Cu106  1  0.83743290  0.49588814  0.75048276  1
  Cu  Cu107  1  0.17009578  0.49773599  0.75308945  1
  Cu  Cu108  1  -0.00121501  0.32794274  0.50554787  1
  Cu  Cu109  1  0.66898387  0.67144791  0.49870153  1
  Cu  Cu110  1  0.66306705  0.32522221  -0.00013876  1
  Cu  Cu111  1  -0.00366325  0.33916657  -0.00017435  1
  Cu  Cu112  1  -0.00827659  -0.00705851  0.49048399  1
  Cu  Cu113  1  0.83183048  0.83369312  0.75438380  1
  Cu  Cu114  1  0.17040089  0.15302470  0.23226932  1
  Se  Se115  1  0.10782877  0.10733121  0.04701218  1
  Se  Se116  1  0.07366070  0.06741313  0.55576206  1
  Se  Se117  1  0.08350627  0.42171466  0.04930195  1
  Se  Se118  1  0.08358201  0.40934769  0.55973614  1
  Se  Se119  1  0.09281652  0.76539842  0.04070871  1
  Se  Se120  1  0.07785992  0.74099177  0.55650279  1
  Se  Se121  1  0.43410717  0.09414828  0.04428293  1
  Se  Se122  1  0.41421774  0.09099990  0.55565046  1
  Se  Se123  1  0.41346401  0.41047620  0.06031964  1
  Se  Se124  1  0.42363860  0.41886441  0.55643630  1
  Se  Se125  1  0.41850804  0.74296824  0.05086410  1
  Se  Se126  1  0.41728481  0.75922355  0.56271865  1
  Se  Se127  1  0.75162727  0.08153809  0.05459301  1
  Se  Se128  1  0.75420363  0.08506928  0.54729974  1
  Se  Se129  1  0.73645997  0.41191371  0.06005835  1
  Se  Se130  1  0.74294129  0.40934117  0.56659229  1
  Se  Se131  1  0.74636083  0.75129575  0.05348916  1
  Se  Se132  1  0.75437931  0.75273837  0.55207501  1
  Se  Se133  1  0.27526641  0.27209740  0.04606747  1
  Se  Se134  1  0.25876428  0.25552539  0.56546192  1
  Se  Se135  1  0.24531022  0.58194616  0.04701077  1
  Se  Se136  1  0.25443851  0.58891999  0.56205647  1
  Se  Se137  1  0.24628460  0.92073216  0.03778074  1
  Se  Se138  1  0.26107825  0.91796364  0.56672441  1
  Se  Se139  1  0.58449004  0.24309761  0.05644262  1
  Se  Se140  1  0.58224517  0.24840426  0.55443679  1
  Se  Se141  1  0.58461549  0.58551670  0.05862343  1
  Se  Se142  1  0.58806607  0.58481551  0.55148448  1
  Se  Se143  1  0.58038775  0.91002368  0.05254646  1
  Se  Se144  1  0.58756229  0.92619191  0.55478661  1
  Se  Se145  1  0.91274429  0.25617854  0.05307634  1
  Se  Se146  1  0.91624514  0.24273696  0.55610781  1
  Se  Se147  1  0.92036241  0.59456679  0.06373331  1
  Se  Se148  1  0.92547393  0.59000200  0.55806281  1
  Se  Se149  1  0.92883807  0.92507829  0.04409636  1
  Se  Se150  1  0.91424669  0.90874608  0.54787750  1
  Se  Se151  1  0.07902882  0.25309363  0.44096011  1
  Se  Se152  1  0.08190052  0.25924076  0.94583951  1
  Se  Se153  1  0.07851399  0.59465593  0.43974138  1
  Se  Se154  1  0.06373096  0.60135241  0.95039956  1
  Se  Se155  1  0.08127025  0.92005554  0.43252447  1
  Se  Se156  1  0.04236124  0.95214580  0.95238296  1
  Se  Se157  1  0.41688519  0.24420176  0.44727530  1
  Se  Se158  1  0.42830205  0.22665402  0.95199493  1
  Se  Se159  1  0.42224319  0.58199617  0.45455681  1
  Se  Se160  1  0.41301198  0.59238093  0.93208605  1
  Se  Se161  1  0.41563429  0.91561458  0.44794601  1
  Se  Se162  1  0.41139179  0.91556225  0.95157632  1
  Se  Se163  1  0.75040098  0.25185765  0.44721909  1
  Se  Se164  1  0.75302573  0.24732649  0.94875271  1
  Se  Se165  1  0.74844382  0.59233072  0.43545202  1
  Se  Se166  1  0.73888819  0.58665395  0.94097948  1
  Se  Se167  1  0.75046813  0.91487882  0.44266955  1
  Se  Se168  1  0.75236857  0.90874777  0.94937019  1
  Se  Se169  1  0.25149764  0.07308778  0.44113878  1
  Se  Se170  1  0.22695779  0.10226162  0.95764623  1
  Se  Se171  1  0.26362736  0.40472966  0.43932289  1
  Se  Se172  1  0.24688331  0.43160499  0.94465605  1
  Se  Se173  1  0.26011585  0.74268484  0.44496419  1
  Se  Se174  1  0.25169411  0.74949820  0.94119081  1
  Se  Se175  1  0.58089279  0.08591220  0.44378183  1
  Se  Se176  1  0.59161747  0.07311428  0.94668938  1
  Se  Se177  1  0.58317788  0.41910690  0.44856082  1
  Se  Se178  1  0.58547511  0.40311042  0.93729546  1
  Se  Se179  1  0.58236551  0.75514208  0.44779906  1
  Se  Se180  1  0.57693014  0.75105963  0.94359955  1
  Se  Se181  1  0.91563075  0.08610478  0.44092110  1
  Se  Se182  1  0.90092812  0.10484289  0.94822286  1
  Se  Se183  1  0.92329174  0.41045670  0.44364766  1
  Se  Se184  1  0.91583660  0.41612081  0.93757378  1
  Se  Se185  1  0.92460716  0.75236769  0.44137702  1
  Se  Se186  1  0.90599632  0.74260993  0.95518005  1
  Se  Se187  1  0.23911199  0.23465903  0.30056434  1
  Se  Se188  1  0.25895235  0.25173756  0.81302383  1
  Se  Se189  1  0.24076070  0.57738160  0.30567739  1
  Se  Se190  1  0.24656613  0.59113259  0.80154719  1
  Se  Se191  1  0.25237443  0.91390228  0.29537596  1
  Se  Se192  1  0.24093691  0.92733786  0.82694298  1
  Se  Se193  1  0.57614078  0.24673095  0.30274889  1
  Se  Se194  1  0.58025639  0.24531428  0.81720359  1
  Se  Se195  1  0.58058140  0.58326473  0.30802374  1
  Se  Se196  1  0.58471541  0.59231286  0.79802363  1
  Se  Se197  1  0.57209296  0.90862483  0.30844755  1
  Se  Se198  1  0.56723025  0.90589336  0.80876974  1
  Se  Se199  1  0.91232069  0.24749447  0.30771326  1
  Se  Se200  1  0.92620228  0.24326486  0.80221680  1
  Se  Se201  1  0.91870933  0.59365324  0.29779507  1
  Se  Se202  1  0.91474146  0.57244695  0.81628060  1
  Se  Se203  1  0.92104398  0.92656099  0.29572037  1
  Se  Se204  1  0.91749534  0.89998705  0.81790850  1
  Se  Se205  1  0.08214758  0.07966173  0.29031084  1
  Se  Se206  1  0.10156312  0.08457203  0.82320136  1
  Se  Se207  1  0.08240838  0.42304466  0.30683714  1
  Se  Se208  1  0.08697978  0.41157952  0.80319146  1
  Se  Se209  1  0.08610616  0.75378241  0.29343587  1
  Se  Se210  1  0.08331870  0.76021428  0.81846414  1
  Se  Se211  1  0.41045488  0.07558693  0.30284569  1
  Se  Se212  1  0.41473844  0.08265142  0.81393484  1
  Se  Se213  1  0.41774329  0.41877296  0.31284367  1
  Se  Se214  1  0.41974746  0.42040659  0.80233898  1
  Se  Se215  1  0.41633725  0.74982889  0.31230253  1
  Se  Se216  1  0.40728415  0.75337177  0.79550092  1
  Se  Se217  1  0.75582571  0.09081265  0.31045350  1
  Se  Se218  1  0.76508353  0.07740633  0.81108582  1
  Se  Se219  1  0.74898312  0.41903514  0.30018500  1
  Se  Se220  1  0.75535129  0.41939985  0.81319176  1
  Se  Se221  1  0.75138850  0.76046901  0.29825455  1
  Se  Se222  1  0.74409467  0.75145492  0.80409139  1
  Se  Se223  1  0.25692455  0.07421500  0.18047321  1
  Se  Se224  1  0.24911542  0.08346963  0.70470522  1
  Se  Se225  1  0.23907534  0.41938622  0.18841111  1
  Se  Se226  1  0.25404272  0.41282877  0.70098805  1
  Se  Se227  1  0.24542353  0.75880759  0.17551705  1
  Se  Se228  1  0.24532305  0.75949459  0.70790706  1
  Se  Se229  1  0.57490662  0.07911479  0.18945213  1
  Se  Se230  1  0.57786377  0.09283023  0.69636941  1
  Se  Se231  1  0.58147161  0.40952755  0.19982453  1
  Se  Se232  1  0.57871249  0.42531594  0.69025298  1
  Se  Se233  1  0.58755668  0.74539424  0.20222332  1
  Se  Se234  1  0.58416536  0.75050072  0.69305962  1
  Se  Se235  1  0.92006464  0.08725019  0.18986049  1
  Se  Se236  1  0.91568426  0.07305858  0.68960333  1
  Se  Se237  1  0.90364841  0.42972874  0.18738854  1
  Se  Se238  1  0.92075099  0.40821600  0.70284202  1
  Se  Se239  1  0.91877816  0.75767016  0.18905167  1
  Se  Se240  1  0.91672888  0.75642023  0.69308469  1
  Se  Se241  1  0.08853936  0.24249049  0.18108363  1
  Se  Se242  1  0.08353853  0.24070252  0.70248525  1
  Se  Se243  1  0.08292971  0.59438361  0.19123126  1
  Se  Se244  1  0.09157406  0.57676706  0.68813293  1
  Se  Se245  1  0.08202594  0.91984791  0.18345852  1
  Se  Se246  1  0.08891684  0.91289936  0.69771452  1
  Se  Se247  1  0.41521473  0.23190173  0.18532915  1
  Se  Se248  1  0.41676875  0.25465589  0.70412927  1
  Se  Se249  1  0.42164131  0.57310286  0.19201981  1
  Se  Se250  1  0.41429892  0.58844268  0.69218843  1
  Se  Se251  1  0.41427462  0.90606877  0.18796983  1
  Se  Se252  1  0.40477540  0.94237851  0.69862977  1
  Se  Se253  1  0.74325871  0.24881906  0.20012908  1
  Se  Se254  1  0.75491082  0.23419084  0.69378230  1
  Se  Se255  1  0.74149188  0.59175663  0.19945735  1
  Se  Se256  1  0.75711196  0.58603949  0.70230519  1
  Se  Se257  1  0.75441019  0.91712997  0.18252877  1
  Se  Se258  1  0.75326784  0.91090761  0.69134247  1
