# generated using pymatgen
data_In86Cu29Se144
_symmetry_space_group_name_H-M   'P 1'
_cell_length_a   17.56607292
_cell_length_b   17.56225656
_cell_length_c   23.41655072
_cell_angle_alpha   89.98751151
_cell_angle_beta   89.99916656
_cell_angle_gamma   90.01395338
_symmetry_Int_Tables_number   1
_chemical_formula_structural   In86Cu29Se144
_chemical_formula_sum   'In86 Cu29 Se144'
_cell_volume   7224.00268673
_cell_formula_units_Z   1
loop_
 _symmetry_equiv_pos_site_id
 _symmetry_equiv_pos_as_xyz
  1  'x, y, z'
loop_
 _atom_site_type_symbol
 _atom_site_label
 _atom_site_symmetry_multiplicity
 _atom_site_fract_x
 _atom_site_fract_y
 _atom_site_fract_z
 _atom_site_occupancy
  In  In0  1  -0.00104005  0.18126130  0.12900182  1
  In  In1  1  -0.00987225  0.15200154  0.61504654  1
  In  In2  1  -0.00985824  0.49712118  0.11657628  1
  In  In3  1  0.00604558  0.51251164  0.62906644  1
  In  In4  1  -0.01400978  0.81270085  0.10973554  1
  In  In5  1  -0.00704898  0.82574555  0.62408298  1
  In  In6  1  0.34377456  0.16587662  0.13060704  1
  In  In7  1  0.32707968  0.18159781  0.61316384  1
  In  In8  1  0.33655698  0.50238976  0.12849628  1
  In  In9  1  0.34446159  0.50934040  0.61613625  1
  In  In10  1  0.32910052  0.81847510  0.12258281  1
  In  In11  1  0.32952775  0.82209783  0.61244285  1
  In  In12  1  0.67857338  0.15964152  0.13700139  1
  In  In13  1  0.67030913  0.14773781  0.61531047  1
  In  In14  1  0.66043866  0.50531011  0.12553778  1
  In  In15  1  0.66962618  0.51461605  0.60478233  1
  In  In16  1  0.66248910  0.82864291  0.12488222  1
  In  In17  1  0.65948753  0.81692624  0.59549173  1
  In  In18  1  0.19006812  -0.01146862  0.39177925  1
  In  In19  1  0.15133469  -0.00365457  0.86898467  1
  In  In20  1  0.15841342  0.32955461  0.36558249  1
  In  In21  1  0.18151158  0.34349233  0.87616210  1
  In  In22  1  0.17852093  0.67133307  0.37373322  1
  In  In23  1  0.17204620  0.66533876  0.87569681  1
  In  In24  1  0.50362224  -0.02051198  0.38180329  1
  In  In25  1  0.49467373  -0.01766361  0.87021782  1
  In  In26  1  0.51542574  0.34881765  0.36255246  1
  In  In27  1  0.51102885  0.34061905  0.87618438  1
  In  In28  1  0.50186165  0.66342425  0.38187135  1
  In  In29  1  0.49223703  0.67172123  0.88660248  1
  In  In30  1  0.81686138  -0.00009176  0.38305322  1
  In  In31  1  0.83919408  -0.00655154  0.88255673  1
  In  In32  1  0.83266956  0.33827740  0.37143092  1
  In  In33  1  0.82930990  0.34151567  0.88739715  1
  In  In34  1  0.81356220  0.68425223  0.39303986  1
  In  In35  1  0.83649292  0.66581710  0.88675926  1
  In  In36  1  -0.00488107  0.16980057  0.37466161  1
  In  In37  1  -0.01010276  0.15735882  0.87788907  1
  In  In38  1  -0.00788009  0.48876803  0.36732055  1
  In  In39  1  -0.01442998  0.52418510  0.89454101  1
  In  In40  1  -0.00206833  0.83697117  0.37767801  1
  In  In41  1  0.02424806  0.80615641  0.90325462  1
  In  In42  1  0.32229791  0.16442507  0.37694894  1
  In  In43  1  0.33357072  0.16972645  0.87784972  1
  In  In44  1  0.34812725  0.51868260  0.36477420  1
  In  In45  1  0.31758933  0.51331764  0.88762183  1
  In  In46  1  0.36328483  0.80585602  0.40883792  1
  In  In47  1  0.35434212  0.81025505  0.88065205  1
  In  In48  1  0.67562955  0.17713261  0.36462101  1
  In  In49  1  0.67389556  0.17891733  0.88228122  1
  In  In50  1  0.67040734  0.50735331  0.37751581  1
  In  In51  1  0.65778887  0.52247569  0.90362104  1
  In  In52  1  0.65734570  0.82615357  0.37503166  1
  In  In53  1  0.66079141  0.82245917  0.88931161  1
  In  In54  1  0.17053815  -0.01822000  0.12787114  1
  In  In55  1  0.16069093  -0.01406318  0.60921152  1
  In  In56  1  0.15862066  0.34152496  0.13594144  1
  In  In57  1  0.17877060  0.33504234  0.61682041  1
  In  In58  1  0.17054649  0.67524866  0.11869414  1
  In  In59  1  0.15985777  0.67004503  0.63065293  1
  In  In60  1  0.51202325  -0.00015988  0.13028900  1
  In  In61  1  0.49922161  -0.02805909  0.61004789  1
  In  In62  1  0.49223881  0.34471148  0.13968693  1
  In  In63  1  0.49168706  0.34339329  0.61725883  1
  In  In64  1  0.50235424  0.66311624  0.12301165  1
  In  In65  1  0.49715299  0.66395999  0.61201888  1
  In  In66  1  0.81817079  -0.01165577  0.12337433  1
  In  In67  1  0.80878564  -0.01414672  0.60023140  1
  In  In68  1  0.83832599  0.33573093  0.13091957  1
  In  In69  1  0.83306152  0.32994530  0.61789792  1
  In  In70  1  0.81156051  0.64966263  0.09806393  1
  In  In71  1  0.84060115  0.67157591  0.61748439  1
  In  In72  1  0.50077819  0.16788900  0.49273676  1
  In  In73  1  0.66482357  0.66710235  0.74686897  1
  In  In74  1  -0.01100878  0.65881170  0.23895264  1
  In  In75  1  -0.00625954  -0.00870234  0.74478844  1
  In  In76  1  0.00200716  0.34129409  0.75569607  1
  In  In77  1  0.16279426  0.17025070  -0.00341539  1
  In  In78  1  -0.00137466  0.00002870  0.25781687  1
  In  In79  1  0.33374707  0.34835669  0.74138010  1
  In  In80  1  0.16505108  0.50154801  0.49696623  1
  In  In81  1  0.32629451  -0.01419125  0.73230193  1
  In  In82  1  0.66613444  0.34356870  0.75174656  1
  In  In83  1  0.50727868  0.16525619  0.00742935  1
  In  In84  1  0.33610162  -0.00343336  0.25831034  1
  In  In85  1  0.67069730  -0.01395304  0.74745290  1
  Cu  Cu86  1  0.16528841  0.51732619  0.75752113  1
  Cu  Cu87  1  -0.00293884  0.32790242  0.49174188  1
  Cu  Cu88  1  0.83697023  0.82617492  0.74883355  1
  Cu  Cu89  1  0.67049496  0.33413008  0.00982085  1
  Cu  Cu90  1  -0.00268488  0.00742757  0.00305225  1
  Cu  Cu91  1  -0.00162182  0.66336276  0.49963477  1
  Cu  Cu92  1  0.49797629  0.15182496  0.74707678  1
  Cu  Cu93  1  0.50240897  0.16801165  0.25148858  1
  Cu  Cu94  1  0.81344545  0.82784373  0.25055262  1
  Cu  Cu95  1  0.17503860  0.50059548  0.25068154  1
  Cu  Cu96  1  0.16605603  0.16619337  0.25591329  1
  Cu  Cu97  1  0.16341634  0.83061183  0.25085634  1
  Cu  Cu98  1  0.49766884  0.82339708  0.25593061  1
  Cu  Cu99  1  0.83078646  0.16269316  0.74668660  1
  Cu  Cu100  1  0.17796873  0.82483740  0.75491015  1
  Cu  Cu101  1  0.50392383  0.51116875  0.25172501  1
  Cu  Cu102  1  -0.00317036  0.33480820  0.00615174  1
  Cu  Cu103  1  0.65978315  0.00015391  0.00695662  1
  Cu  Cu104  1  0.16360452  0.17540937  0.73675218  1
  Cu  Cu105  1  0.33593846  0.34035597  0.01240296  1
  Cu  Cu106  1  0.83301283  0.50528834  0.75942636  1
  Cu  Cu107  1  0.83720446  0.16880002  0.25329411  1
  Cu  Cu108  1  0.33637762  0.66167427  0.00335978  1
  Cu  Cu109  1  0.33088064  -0.01845931  -0.00086760  1
  Cu  Cu110  1  0.00537959  0.00113828  0.49612677  1
  Cu  Cu111  1  0.66739288  0.33485827  0.48983329  1
  Cu  Cu112  1  0.82832014  0.50652921  0.24786450  1
  Cu  Cu113  1  0.33086597  0.33946131  0.48835850  1
  Cu  Cu114  1  0.49791547  0.50688345  0.74651312  1
  Se  Se115  1  0.08203702  0.08003690  0.06579749  1
  Se  Se116  1  0.08843468  0.08707462  0.54919499  1
  Se  Se117  1  0.08591303  0.41403323  0.05682799  1
  Se  Se118  1  0.07265730  0.40927289  0.55696098  1
  Se  Se119  1  0.08925231  0.75291344  0.04667983  1
  Se  Se120  1  0.07971967  0.74585264  0.55635374  1
  Se  Se121  1  0.40772811  0.06973509  0.05713501  1
  Se  Se122  1  0.41621227  0.08336395  0.56102743  1
  Se  Se123  1  0.42556029  0.42177393  0.05955329  1
  Se  Se124  1  0.41313043  0.42022703  0.54411973  1
  Se  Se125  1  0.42024676  0.74871866  0.05307532  1
  Se  Se126  1  0.44137060  0.77233502  0.54757875  1
  Se  Se127  1  0.74583428  0.08417587  0.05596018  1
  Se  Se128  1  0.76677480  0.10176819  0.54124386  1
  Se  Se129  1  0.75198748  0.41811331  0.06356734  1
  Se  Se130  1  0.74946124  0.41266803  0.55119322  1
  Se  Se131  1  0.76502918  0.77574710  0.05470003  1
  Se  Se132  1  0.74612563  0.72525450  0.54243535  1
  Se  Se133  1  0.25441173  0.25098343  0.06349200  1
  Se  Se134  1  0.24612600  0.25589955  0.53890500  1
  Se  Se135  1  0.25189700  0.58078543  0.05772215  1
  Se  Se136  1  0.25096429  0.59504870  0.55559422  1
  Se  Se137  1  0.24541478  0.90385147  0.05413948  1
  Se  Se138  1  0.26169612  0.92087985  0.54818429  1
  Se  Se139  1  0.58867680  0.25547261  0.07141560  1
  Se  Se140  1  0.59066749  0.25750597  0.55764087  1
  Se  Se141  1  0.59375787  0.59443832  0.05126225  1
  Se  Se142  1  0.56816413  0.57493401  0.54152589  1
  Se  Se143  1  0.57621522  0.91369804  0.05546345  1
  Se  Se144  1  0.62408187  0.94962627  0.55541163  1
  Se  Se145  1  0.91300027  0.24953465  0.05595299  1
  Se  Se146  1  0.91558011  0.24656890  0.55076397  1
  Se  Se147  1  0.94542847  0.61541460  0.06094800  1
  Se  Se148  1  0.91976345  0.57634833  0.55437963  1
  Se  Se149  1  0.91709909  0.92354439  0.05713244  1
  Se  Se150  1  0.92408447  0.91806862  0.55396425  1
  Se  Se151  1  0.08582099  0.24846348  0.44156045  1
  Se  Se152  1  0.07323896  0.26207355  0.93552433  1
  Se  Se153  1  0.07357339  0.58705829  0.43395722  1
  Se  Se154  1  0.10804621  0.56661175  0.94343597  1
  Se  Se155  1  0.08640983  0.91216637  0.44657229  1
  Se  Se156  1  0.08550973  0.92593719  0.95126509  1
  Se  Se157  1  0.41781412  0.26264152  0.43117137  1
  Se  Se158  1  0.41328659  0.25926532  0.94826286  1
  Se  Se159  1  0.40846093  0.58876365  0.44864672  1
  Se  Se160  1  0.42041070  0.57493689  0.95202477  1
  Se  Se161  1  0.38970521  0.94285193  0.44420064  1
  Se  Se162  1  0.42447611  0.90674836  0.94860527  1
  Se  Se163  1  0.75289177  0.25133593  0.44092471  1
  Se  Se164  1  0.75414021  0.25130174  0.95633484  1
  Se  Se165  1  0.76046650  0.57234511  0.45158807  1
  Se  Se166  1  0.77088726  0.57451783  0.95927170  1
  Se  Se167  1  0.75623955  0.89268864  0.44179020  1
  Se  Se168  1  0.73993047  0.92250698  0.94533825  1
  Se  Se169  1  0.25166193  0.09180709  0.45534325  1
  Se  Se170  1  0.25504423  0.07151450  0.94140512  1
  Se  Se171  1  0.25114893  0.42079535  0.42822736  1
  Se  Se172  1  0.24895282  0.41726352  0.95616229  1
  Se  Se173  1  0.23607697  0.75721195  0.45008919  1
  Se  Se174  1  0.25554961  0.74680179  0.94740501  1
  Se  Se175  1  0.59225342  0.08294064  0.43316466  1
  Se  Se176  1  0.58511529  0.07571972  0.93580662  1
  Se  Se177  1  0.58193758  0.42165470  0.44400600  1
  Se  Se178  1  0.58267982  0.41362774  0.95472488  1
  Se  Se179  1  0.55200385  0.77601544  0.44697532  1
  Se  Se180  1  0.60077758  0.71937286  0.95337281  1
  Se  Se181  1  0.91897283  0.07746226  0.44033167  1
  Se  Se182  1  0.90810176  0.08759998  0.95250766  1
  Se  Se183  1  0.91504744  0.41714473  0.44493145  1
  Se  Se184  1  0.91391338  0.42213238  0.95502049  1
  Se  Se185  1  0.91994992  0.75440990  0.44929162  1
  Se  Se186  1  0.89552065  0.77454650  0.94759457  1
  Se  Se187  1  0.25462278  0.25096841  0.30305165  1
  Se  Se188  1  0.24744063  0.24614813  0.80073575  1
  Se  Se189  1  0.25268158  0.59250428  0.29894197  1
  Se  Se190  1  0.26252860  0.59109808  0.80371459  1
  Se  Se191  1  0.24941517  0.90040281  0.31205390  1
  Se  Se192  1  0.25117358  0.91237951  0.81410150  1
  Se  Se193  1  0.58936392  0.25584885  0.29658533  1
  Se  Se194  1  0.57557840  0.23826624  0.80508481  1
  Se  Se195  1  0.58675939  0.59043710  0.30833650  1
  Se  Se196  1  0.58254624  0.57571255  0.81211095  1
  Se  Se197  1  0.58096378  0.91299208  0.30224733  1
  Se  Se198  1  0.58129127  0.89466686  0.80603213  1
  Se  Se199  1  0.92015710  0.25460483  0.30363151  1
  Se  Se200  1  0.90517960  0.24574931  0.80899169  1
  Se  Se201  1  0.90280399  0.58712332  0.31339653  1
  Se  Se202  1  0.91627114  0.59042400  0.81030655  1
  Se  Se203  1  0.90109137  0.90599801  0.30681370  1
  Se  Se204  1  0.91470424  0.90408471  0.81235745  1
  Se  Se205  1  0.09773658  0.07850174  0.31808953  1
  Se  Se206  1  0.08315644  0.09689143  0.79830792  1
  Se  Se207  1  0.08259934  0.41911593  0.29711661  1
  Se  Se208  1  0.08958853  0.43124720  0.81610009  1
  Se  Se209  1  0.07772292  0.74865990  0.30542605  1
  Se  Se210  1  0.08615966  0.75313466  0.81099896  1
  Se  Se211  1  0.42759175  0.08902702  0.31560563  1
  Se  Se212  1  0.41078341  0.07941426  0.80497715  1
  Se  Se213  1  0.41768349  0.42145139  0.29907430  1
  Se  Se214  1  0.42114535  0.42728821  0.81062193  1
  Se  Se215  1  0.41304534  0.74892092  0.31421167  1
  Se  Se216  1  0.43202919  0.74442523  0.80311211  1
  Se  Se217  1  0.75369597  0.08057191  0.30232370  1
  Se  Se218  1  0.75106859  0.08608511  0.81055392  1
  Se  Se219  1  0.74788803  0.42243757  0.30495012  1
  Se  Se220  1  0.74691574  0.43206551  0.81980954  1
  Se  Se221  1  0.73944495  0.73902379  0.30655672  1
  Se  Se222  1  0.75315790  0.75253205  0.81123600  1
  Se  Se223  1  0.24204780  0.08484876  0.19347962  1
  Se  Se224  1  0.24080417  0.09061182  0.67974810  1
  Se  Se225  1  0.25674973  0.41445384  0.19772936  1
  Se  Se226  1  0.23676878  0.43950010  0.68753170  1
  Se  Se227  1  0.24738674  0.74707331  0.19797460  1
  Se  Se228  1  0.25641752  0.74868419  0.69239661  1
  Se  Se229  1  0.58628096  0.08123656  0.20249570  1
  Se  Se230  1  0.57592057  0.07461353  0.68645503  1
  Se  Se231  1  0.58672805  0.42318537  0.20119779  1
  Se  Se232  1  0.57951392  0.42941235  0.68538845  1
  Se  Se233  1  0.58114751  0.74720658  0.19569042  1
  Se  Se234  1  0.58314904  0.75526631  0.68118571  1
  Se  Se235  1  0.91212799  0.08514870  0.19024601  1
  Se  Se236  1  0.89841016  0.07568572  0.68538312  1
  Se  Se237  1  0.91863291  0.42542748  0.19778163  1
  Se  Se238  1  0.90598445  0.42339989  0.69419014  1
  Se  Se239  1  0.89614394  0.75361077  0.18793959  1
  Se  Se240  1  0.91925566  0.74106135  0.69687152  1
  Se  Se241  1  0.08271437  0.25017971  0.20353557  1
  Se  Se242  1  0.07935353  0.25521688  0.68164179  1
  Se  Se243  1  0.09232118  0.57572772  0.18699676  1
  Se  Se244  1  0.07610692  0.59408260  0.70428387  1
  Se  Se245  1  0.07562400  0.90318792  0.19217615  1
  Se  Se246  1  0.09621077  0.90443101  0.69323449  1
  Se  Se247  1  0.41364045  0.25038247  0.20332132  1
  Se  Se248  1  0.42372239  0.24403876  0.69012450  1
  Se  Se249  1  0.41737756  0.58908440  0.19635298  1
  Se  Se250  1  0.41830398  0.59021259  0.69022842  1
  Se  Se251  1  0.42044603  0.90752465  0.19222394  1
  Se  Se252  1  0.42874880  0.89498530  0.68966637  1
  Se  Se253  1  0.75355913  0.25431056  0.20041067  1
  Se  Se254  1  0.74622176  0.24336292  0.69003665  1
  Se  Se255  1  0.75266391  0.58987613  0.18885661  1
  Se  Se256  1  0.75523921  0.57509505  0.68877467  1
  Se  Se257  1  0.73586943  0.91869180  0.19850664  1
  Se  Se258  1  0.75515866  0.89631920  0.68337002  1
