# generated using pymatgen
data_In86Cu29Se144
_symmetry_space_group_name_H-M   'P 1'
_cell_length_a   17.58578227
_cell_length_b   17.58920092
_cell_length_c   23.45177255
_cell_angle_alpha   89.98347945
_cell_angle_beta   89.99463453
_cell_angle_gamma   90.00897593
_symmetry_Int_Tables_number   1
_chemical_formula_structural   In86Cu29Se144
_chemical_formula_sum   'In86 Cu29 Se144'
_cell_volume   7254.09852291
_cell_formula_units_Z   1
loop_
 _symmetry_equiv_pos_site_id
 _symmetry_equiv_pos_as_xyz
  1  'x, y, z'
loop_
 _atom_site_type_symbol
 _atom_site_label
 _atom_site_symmetry_multiplicity
 _atom_site_fract_x
 _atom_site_fract_y
 _atom_site_fract_z
 _atom_site_occupancy
  In  In0  1  0.00032380  0.17215001  0.12345545  1
  In  In1  1  -0.01038467  0.18355274  0.62916215  1
  In  In2  1  0.00960285  0.49268955  0.12888511  1
  In  In3  1  -0.01405323  0.50194516  0.62495976  1
  In  In4  1  -0.02022278  0.83098470  0.12670280  1
  In  In5  1  -0.00675727  0.84253294  0.62459746  1
  In  In6  1  0.34274100  0.16129785  0.13233993  1
  In  In7  1  0.35280354  0.17426858  0.62324275  1
  In  In8  1  0.33759359  0.49487699  0.12330699  1
  In  In9  1  0.33729326  0.50405373  0.63188660  1
  In  In10  1  0.35879865  0.81935870  0.14707517  1
  In  In11  1  0.35157738  0.81605887  0.62430690  1
  In  In12  1  0.67659263  0.17386566  0.12144385  1
  In  In13  1  0.67987368  0.19480437  0.60684942  1
  In  In14  1  0.65613649  0.50918604  0.12816422  1
  In  In15  1  0.67202026  0.49370851  0.63931209  1
  In  In16  1  0.66904267  0.80677775  0.12879691  1
  In  In17  1  0.65502878  0.82441969  0.60993511  1
  In  In18  1  0.16978049  -0.01010029  0.37331114  1
  In  In19  1  0.16982696  -0.00755140  0.87637568  1
  In  In20  1  0.16782691  0.33638974  0.36670138  1
  In  In21  1  0.17987623  0.34666004  0.87043783  1
  In  In22  1  0.16954011  0.67227248  0.36552554  1
  In  In23  1  0.16873344  0.64667056  0.88164483  1
  In  In24  1  0.49975868  0.00703102  0.37854185  1
  In  In25  1  0.51105013  0.00337946  0.87922483  1
  In  In26  1  0.50084567  0.33556387  0.37191558  1
  In  In27  1  0.49991039  0.33615216  0.87688757  1
  In  In28  1  0.49941761  0.66796488  0.36807473  1
  In  In29  1  0.49634050  0.65117657  0.85962240  1
  In  In30  1  0.81007409  0.01178356  0.39114757  1
  In  In31  1  0.83562243  0.00323666  0.88660950  1
  In  In32  1  0.82759375  0.33486481  0.37088107  1
  In  In33  1  0.82121342  0.32474741  0.86973231  1
  In  In34  1  0.82898016  0.66470634  0.37270581  1
  In  In35  1  0.82736455  0.67558398  0.87649092  1
  In  In36  1  -0.01908227  0.16885901  0.37231332  1
  In  In37  1  -0.01757459  0.17304247  0.87839485  1
  In  In38  1  -0.00795394  0.49253000  0.36654897  1
  In  In39  1  0.01483382  0.49812654  0.88063765  1
  In  In40  1  -0.00854441  0.82236390  0.36876802  1
  In  In41  1  -0.00666446  0.82657535  0.88076377  1
  In  In42  1  0.34217919  0.17752866  0.36887707  1
  In  In43  1  0.33373360  0.18443475  0.87903686  1
  In  In44  1  0.33765777  0.50119041  0.36700032  1
  In  In45  1  0.33962486  0.49667112  0.87583685  1
  In  In46  1  0.34077691  0.83373921  0.36428778  1
  In  In47  1  0.35339247  0.82119957  0.87542757  1
  In  In48  1  0.65077594  0.18365795  0.38946629  1
  In  In49  1  0.65878994  0.17343128  0.88532040  1
  In  In50  1  0.66797425  0.50274466  0.36992823  1
  In  In51  1  0.65773032  0.49127594  0.86662046  1
  In  In52  1  0.66840948  0.82720829  0.38021364  1
  In  In53  1  0.67678144  0.83263556  0.87216462  1
  In  In54  1  0.17623155  0.00828729  0.12608227  1
  In  In55  1  0.16712398  -0.00429199  0.62461663  1
  In  In56  1  0.16052662  0.33943008  0.12872271  1
  In  In57  1  0.16471558  0.33888175  0.63180129  1
  In  In58  1  0.17979410  0.65278889  0.12937704  1
  In  In59  1  0.17775307  0.67251521  0.62511817  1
  In  In60  1  0.48798648  -0.00433295  0.12696733  1
  In  In61  1  0.52266421  0.01460531  0.60277375  1
  In  In62  1  0.50252936  0.33364499  0.12508638  1
  In  In63  1  0.51223536  0.33687133  0.64445357  1
  In  In64  1  0.51695738  0.65209959  0.13814638  1
  In  In65  1  0.49713248  0.66935193  0.62613599  1
  In  In66  1  0.83694074  -0.00423864  0.11615477  1
  In  In67  1  0.81188182  -0.00087203  0.60936605  1
  In  In68  1  0.83949792  0.33118974  0.13059910  1
  In  In69  1  0.83174111  0.33801159  0.62780739  1
  In  In70  1  0.82030429  0.67566580  0.13141512  1
  In  In71  1  0.82206834  0.64797609  0.61180710  1
  In  In72  1  -0.00113621  -0.00260552  0.25276815  1
  In  In73  1  0.16677116  0.83193835  0.49636879  1
  In  In74  1  0.15984488  0.16481574  0.50415085  1
  In  In75  1  0.51097030  0.82784425  0.00373370  1
  In  In76  1  0.16241416  0.83579466  0.00452353  1
  In  In77  1  0.66695758  0.00420815  0.74349935  1
  In  In78  1  0.82802881  0.50305442  -0.00050093  1
  In  In79  1  0.34191479  0.00458668  0.73585394  1
  In  In80  1  0.00231866  0.66303830  0.75589411  1
  In  In81  1  0.50631515  0.49551660  0.49629134  1
  In  In82  1  0.66217835  -0.00195868  0.25545583  1
  In  In83  1  -0.00305584  0.00842653  0.75162942  1
  In  In84  1  0.16610672  0.50335191  0.50572172  1
  In  In85  1  0.16508421  0.17285465  0.00783456  1
  Cu  Cu86  1  0.16725849  0.83209259  0.24917842  1
  Cu  Cu87  1  0.34292898  0.33996900  -0.00002477  1
  Cu  Cu88  1  0.17197848  0.49876980  0.75385676  1
  Cu  Cu89  1  0.83282964  0.50372733  0.24827940  1
  Cu  Cu90  1  0.83015147  0.17678375  0.25105927  1
  Cu  Cu91  1  0.33312246  0.00211369  0.00840892  1
  Cu  Cu92  1  -0.00109122  0.33285789  0.00378684  1
  Cu  Cu93  1  0.33614519  0.65804184  -0.00013588  1
  Cu  Cu94  1  0.83295484  0.82451856  0.74713597  1
  Cu  Cu95  1  0.18013789  0.82844753  0.75381032  1
  Cu  Cu96  1  0.83466679  0.49419283  0.75029906  1
  Cu  Cu97  1  0.66634766  0.33122370  -0.00118664  1
  Cu  Cu98  1  0.82607552  0.16942576  0.74868118  1
  Cu  Cu99  1  -0.01473328  0.33023832  0.49613326  1
  Cu  Cu100  1  0.82768730  0.83086815  0.25426916  1
  Cu  Cu101  1  0.50395642  0.82573877  0.74110856  1
  Cu  Cu102  1  0.16809345  0.50146451  0.24769158  1
  Cu  Cu103  1  0.66832451  0.66068008  0.49532828  1
  Cu  Cu104  1  0.16932751  0.16938787  0.24663963  1
  Cu  Cu105  1  -0.00467201  0.66447851  0.49334972  1
  Cu  Cu106  1  0.50347036  0.16985610  0.25227977  1
  Cu  Cu107  1  0.16355480  0.17649377  0.75160062  1
  Cu  Cu108  1  -0.01497721  -0.00058685  0.50046739  1
  Cu  Cu109  1  0.49729520  0.49417605  0.24937113  1
  Cu  Cu110  1  0.50173237  0.17270662  0.75352353  1
  Cu  Cu111  1  0.33732558  0.00034837  0.49635259  1
  Cu  Cu112  1  0.66924791  0.00311706  0.00218970  1
  Cu  Cu113  1  -0.00361888  0.66569698  0.00290503  1
  Cu  Cu114  1  0.34139639  0.33282662  0.49720729  1
  Se  Se115  1  0.07556199  0.07206098  0.05787343  1
  Se  Se116  1  0.06681115  0.07402395  0.56376831  1
  Se  Se117  1  0.08550609  0.41664739  0.05191911  1
  Se  Se118  1  0.07085986  0.40647169  0.55608846  1
  Se  Se119  1  0.07880347  0.74199555  0.06554121  1
  Se  Se120  1  0.07340533  0.74194900  0.55836246  1
  Se  Se121  1  0.42017426  0.08677476  0.05534329  1
  Se  Se122  1  0.41635707  0.08855790  0.54828937  1
  Se  Se123  1  0.42777678  0.42192020  0.05345006  1
  Se  Se124  1  0.41453797  0.41265661  0.56156311  1
  Se  Se125  1  0.41277193  0.74290868  0.05909319  1
  Se  Se126  1  0.43152535  0.75181837  0.54790190  1
  Se  Se127  1  0.75483377  0.08593349  0.05371792  1
  Se  Se128  1  0.72921045  0.08308232  0.54616754  1
  Se  Se129  1  0.74363211  0.41156574  0.06203608  1
  Se  Se130  1  0.74696631  0.42179877  0.56280414  1
  Se  Se131  1  0.75329241  0.74986314  0.05077064  1
  Se  Se132  1  0.75210214  0.74619705  0.54849629  1
  Se  Se133  1  0.26234960  0.25970829  0.06231704  1
  Se  Se134  1  0.25406423  0.25871658  0.55791486  1
  Se  Se135  1  0.25179179  0.57593511  0.05247124  1
  Se  Se136  1  0.26435471  0.59413340  0.55460323  1
  Se  Se137  1  0.26183023  0.91251975  0.06565370  1
  Se  Se138  1  0.26062459  0.91941686  0.55889864  1
  Se  Se139  1  0.58414593  0.24919853  0.05527425  1
  Se  Se140  1  0.56323392  0.25770734  0.56063486  1
  Se  Se141  1  0.58970081  0.59542201  0.05410807  1
  Se  Se142  1  0.59204018  0.58321799  0.56089745  1
  Se  Se143  1  0.59484682  0.92193166  0.06592261  1
  Se  Se144  1  0.58028405  0.90999950  0.54127685  1
  Se  Se145  1  0.91437157  0.25061886  0.05493085  1
  Se  Se146  1  0.90606563  0.24913986  0.55405385  1
  Se  Se147  1  0.91753628  0.58585820  0.06529603  1
  Se  Se148  1  0.91658839  0.57566130  0.54538032  1
  Se  Se149  1  0.91748199  0.91168634  0.04959721  1
  Se  Se150  1  0.90685383  0.91174255  0.55296431  1
  Se  Se151  1  0.07656891  0.25630977  0.43965688  1
  Se  Se152  1  0.08263703  0.25906445  0.93910455  1
  Se  Se153  1  0.08153655  0.58744203  0.43675622  1
  Se  Se154  1  0.08377634  0.58034778  0.95668554  1
  Se  Se155  1  0.06884688  0.92280022  0.44124209  1
  Se  Se156  1  0.07145852  0.92643123  0.94398711  1
  Se  Se157  1  0.42302313  0.24984395  0.44399096  1
  Se  Se158  1  0.42294608  0.24956775  0.95053945  1
  Se  Se159  1  0.41146493  0.58515368  0.44137479  1
  Se  Se160  1  0.42198465  0.58463733  0.94196148  1
  Se  Se161  1  0.41278197  0.91574031  0.43928201  1
  Se  Se162  1  0.41330934  0.92264506  0.94598907  1
  Se  Se163  1  0.76484101  0.24083537  0.44227866  1
  Se  Se164  1  0.75473348  0.24760131  0.94996647  1
  Se  Se165  1  0.75169973  0.57769120  0.44278436  1
  Se  Se166  1  0.73746491  0.58578978  0.93672980  1
  Se  Se167  1  0.75323929  0.90413938  0.44977362  1
  Se  Se168  1  0.74623305  0.91665108  0.94624575  1
  Se  Se169  1  0.25180716  0.08075572  0.44052242  1
  Se  Se170  1  0.25472785  0.07923470  0.94451550  1
  Se  Se171  1  0.25524419  0.41260013  0.44251162  1
  Se  Se172  1  0.25304546  0.41957518  0.94869689  1
  Se  Se173  1  0.25793994  0.74428706  0.43949884  1
  Se  Se174  1  0.25660201  0.74564256  0.94356958  1
  Se  Se175  1  0.59396739  0.07281969  0.44700853  1
  Se  Se176  1  0.58052079  0.08512273  0.95364899  1
  Se  Se177  1  0.59906663  0.40446026  0.44191778  1
  Se  Se178  1  0.58563969  0.41671029  0.94592875  1
  Se  Se179  1  0.58086513  0.74019056  0.44345522  1
  Se  Se180  1  0.58266163  0.74354911  0.92937671  1
  Se  Se181  1  0.91044419  0.09015032  0.44866026  1
  Se  Se182  1  0.92139578  0.08424563  0.95062261  1
  Se  Se183  1  0.91150394  0.41930235  0.44101221  1
  Se  Se184  1  0.91815398  0.41004939  0.94002360  1
  Se  Se185  1  0.91169589  0.74979855  0.44334913  1
  Se  Se186  1  0.91224002  0.74690117  0.95034422  1
  Se  Se187  1  0.25218229  0.25276095  0.30129114  1
  Se  Se188  1  0.25341160  0.25359665  0.80296431  1
  Se  Se189  1  0.25145152  0.58365222  0.30147294  1
  Se  Se190  1  0.25371015  0.58287193  0.80683358  1
  Se  Se191  1  0.24983843  0.91736719  0.30020220  1
  Se  Se192  1  0.26076099  0.91463656  0.80753694  1
  Se  Se193  1  0.58763839  0.25284160  0.30431745  1
  Se  Se194  1  0.58718319  0.25146282  0.80892029  1
  Se  Se195  1  0.58054734  0.58026528  0.30153444  1
  Se  Se196  1  0.58172232  0.57088894  0.79156537  1
  Se  Se197  1  0.57390486  0.90642797  0.31200289  1
  Se  Se198  1  0.57634528  0.91043602  0.80387113  1
  Se  Se199  1  0.91906696  0.25928592  0.29951248  1
  Se  Se200  1  0.91386287  0.25063844  0.80047668  1
  Se  Se201  1  0.91620290  0.58673807  0.30255878  1
  Se  Se202  1  0.91084385  0.57303129  0.81553176  1
  Se  Se203  1  0.89950676  0.92043313  0.31386855  1
  Se  Se204  1  0.90888205  0.90911294  0.80725712  1
  Se  Se205  1  0.08942402  0.09222608  0.31127798  1
  Se  Se206  1  0.09228828  0.09271606  0.81336489  1
  Se  Se207  1  0.08352462  0.41714312  0.29976802  1
  Se  Se208  1  0.08283479  0.41734930  0.80361694  1
  Se  Se209  1  0.07943722  0.75045654  0.29915356  1
  Se  Se210  1  0.09583227  0.75529599  0.81467708  1
  Se  Se211  1  0.42037069  0.08541574  0.30475048  1
  Se  Se212  1  0.42187005  0.08745064  0.81025738  1
  Se  Se213  1  0.41345964  0.40996858  0.30144893  1
  Se  Se214  1  0.40491393  0.40097260  0.80786324  1
  Se  Se215  1  0.40499065  0.73499130  0.29917925  1
  Se  Se216  1  0.41829475  0.74668789  0.79551349  1
  Se  Se217  1  0.74979366  0.09595213  0.30937231  1
  Se  Se218  1  0.75325692  0.08697305  0.81210511  1
  Se  Se219  1  0.74874169  0.41887651  0.30012346  1
  Se  Se220  1  0.74728493  0.41153623  0.80037213  1
  Se  Se221  1  0.74250371  0.74650956  0.30435183  1
  Se  Se222  1  0.74653368  0.74493641  0.79937991  1
  Se  Se223  1  0.25423786  0.08213293  0.20045888  1
  Se  Se224  1  0.24021548  0.09788673  0.68720085  1
  Se  Se225  1  0.25102455  0.41660358  0.19420312  1
  Se  Se226  1  0.25311519  0.41723549  0.69682326  1
  Se  Se227  1  0.25026240  0.74614507  0.19797967  1
  Se  Se228  1  0.25990862  0.74908813  0.69649348  1
  Se  Se229  1  0.58087305  0.08935930  0.18936445  1
  Se  Se230  1  0.57933745  0.09803765  0.68772815  1
  Se  Se231  1  0.58504524  0.41560313  0.19567611  1
  Se  Se232  1  0.56562804  0.44543626  0.70787344  1
  Se  Se233  1  0.55766907  0.77226760  0.19376181  1
  Se  Se234  1  0.59340639  0.74599416  0.69122764  1
  Se  Se235  1  0.90748608  0.08871948  0.19367431  1
  Se  Se236  1  0.89942963  0.08404003  0.68720934  1
  Se  Se237  1  0.91864639  0.41908580  0.19712422  1
  Se  Se238  1  0.92152870  0.41389325  0.69844767  1
  Se  Se239  1  0.91241811  0.74773247  0.20205259  1
  Se  Se240  1  0.91535045  0.74604824  0.68856422  1
  Se  Se241  1  0.08165149  0.24884693  0.19489360  1
  Se  Se242  1  0.07837556  0.25595312  0.69775582  1
  Se  Se243  1  0.08251226  0.58534191  0.19660562  1
  Se  Se244  1  0.09238962  0.57771508  0.68995078  1
  Se  Se245  1  0.08728230  0.91140227  0.18750488  1
  Se  Se246  1  0.09228876  0.90733084  0.69897074  1
  Se  Se247  1  0.41985869  0.25269331  0.19702710  1
  Se  Se248  1  0.41411975  0.25470525  0.70262399  1
  Se  Se249  1  0.41462061  0.57902990  0.19581438  1
  Se  Se250  1  0.41667848  0.59009990  0.69671818  1
  Se  Se251  1  0.41245143  0.93004146  0.20588875  1
  Se  Se252  1  0.43823403  0.91862204  0.68042362  1
  Se  Se253  1  0.74524652  0.25728535  0.19716835  1
  Se  Se254  1  0.74449964  0.25379412  0.69516302  1
  Se  Se255  1  0.74426196  0.58549047  0.19809114  1
  Se  Se256  1  0.75833227  0.58647673  0.69943231  1
  Se  Se257  1  0.75360715  0.91279316  0.19045531  1
  Se  Se258  1  0.75290885  0.90585282  0.68788023  1
