# generated using pymatgen
data_In86Cu29Se144
_symmetry_space_group_name_H-M   'P 1'
_cell_length_a   17.56810786
_cell_length_b   17.56933887
_cell_length_c   23.42481387
_cell_angle_alpha   90.00927809
_cell_angle_beta   89.99051785
_cell_angle_gamma   89.96875015
_symmetry_Int_Tables_number   1
_chemical_formula_structural   In86Cu29Se144
_chemical_formula_sum   'In86 Cu29 Se144'
_cell_volume   7230.30272323
_cell_formula_units_Z   1
loop_
 _symmetry_equiv_pos_site_id
 _symmetry_equiv_pos_as_xyz
  1  'x, y, z'
loop_
 _atom_site_type_symbol
 _atom_site_label
 _atom_site_symmetry_multiplicity
 _atom_site_fract_x
 _atom_site_fract_y
 _atom_site_fract_z
 _atom_site_occupancy
  In  In0  1  0.00817303  0.17495828  0.11096501  1
  In  In1  1  -0.01032106  0.15718937  0.63006968  1
  In  In2  1  -0.00378027  0.50208233  0.12577415  1
  In  In3  1  0.01179812  0.51032880  0.62034807  1
  In  In4  1  0.02348542  0.82431640  0.11920873  1
  In  In5  1  0.01405240  0.82727241  0.63261832  1
  In  In6  1  0.34615806  0.18679255  0.10188849  1
  In  In7  1  0.32609704  0.17651145  0.63071658  1
  In  In8  1  0.33767692  0.49478666  0.12533611  1
  In  In9  1  0.32993405  0.49480863  0.62241332  1
  In  In10  1  0.31885783  0.83344301  0.12291848  1
  In  In11  1  0.33774659  0.84579119  0.61249610  1
  In  In12  1  0.66381982  0.16477705  0.12300377  1
  In  In13  1  0.68534196  0.17344976  0.62495117  1
  In  In14  1  0.66541398  0.51612192  0.13760177  1
  In  In15  1  0.65590695  0.48914945  0.61879016  1
  In  In16  1  0.66105330  0.83143131  0.13345809  1
  In  In17  1  0.65462252  0.84103750  0.61827189  1
  In  In18  1  0.18421774  -0.00231302  0.39408726  1
  In  In19  1  0.16714349  0.00085557  0.86881055  1
  In  In20  1  0.17561889  0.32573027  0.37874964  1
  In  In21  1  0.19121836  0.32238696  0.89363637  1
  In  In22  1  0.17956611  0.65304891  0.37955969  1
  In  In23  1  0.16546995  0.66796629  0.88975825  1
  In  In24  1  0.49561391  -0.02059673  0.37504905  1
  In  In25  1  0.50251993  0.01676704  0.87285555  1
  In  In26  1  0.49512160  0.36196964  0.37194447  1
  In  In27  1  0.49171615  0.33059587  0.87886171  1
  In  In28  1  0.49779002  0.66065790  0.37095024  1
  In  In29  1  0.47191941  0.65973028  0.88600049  1
  In  In30  1  0.83277211  0.01229958  0.37737116  1
  In  In31  1  0.85079338  0.00589729  0.86422964  1
  In  In32  1  0.83747728  0.32728629  0.38609177  1
  In  In33  1  0.81438648  0.33287955  0.86937474  1
  In  In34  1  0.81985549  0.65887352  0.37192385  1
  In  In35  1  0.84258152  0.65342726  0.87272628  1
  In  In36  1  0.00732998  0.16286887  0.38600528  1
  In  In37  1  0.00770566  0.16059936  0.87528777  1
  In  In38  1  0.00469731  0.49276143  0.38508298  1
  In  In39  1  0.01098303  0.51148525  0.86855282  1
  In  In40  1  0.00623611  0.84485838  0.38020028  1
  In  In41  1  0.01106501  0.83363783  0.86651938  1
  In  In42  1  0.32165361  0.16516767  0.37658686  1
  In  In43  1  0.33819847  0.16869157  0.87379229  1
  In  In44  1  0.33621855  0.49934944  0.36620019  1
  In  In45  1  0.34533692  0.48534008  0.89932488  1
  In  In46  1  0.34542691  0.82382968  0.38811559  1
  In  In47  1  0.30786630  0.82936660  0.87685527  1
  In  In48  1  0.67736063  0.17128396  0.37330836  1
  In  In49  1  0.65246499  0.17976582  0.88068269  1
  In  In50  1  0.66276253  0.50686469  0.38092573  1
  In  In51  1  0.66720356  0.48601091  0.87527036  1
  In  In52  1  0.65321391  0.81783768  0.36554398  1
  In  In53  1  0.66308320  0.83718449  0.87433374  1
  In  In54  1  0.17433442  0.00173562  0.11554422  1
  In  In55  1  0.16917997  0.00130002  0.62786090  1
  In  In56  1  0.19004142  0.35903569  0.09742084  1
  In  In57  1  0.17628012  0.34440544  0.62333614  1
  In  In58  1  0.18396350  0.67121305  0.10620065  1
  In  In59  1  0.16519511  0.66324327  0.62095793  1
  In  In60  1  0.50014223  0.01271668  0.12652508  1
  In  In61  1  0.50045350  -0.00589352  0.62080938  1
  In  In62  1  0.49382774  0.33156328  0.12296519  1
  In  In63  1  0.48925940  0.34036153  0.63054313  1
  In  In64  1  0.49968304  0.65366703  0.13449145  1
  In  In65  1  0.49068923  0.66283558  0.61478509  1
  In  In66  1  0.82544776  0.00004406  0.12463628  1
  In  In67  1  0.83834497  0.01578202  0.62648916  1
  In  In68  1  0.84364995  0.33272933  0.12214308  1
  In  In69  1  0.82313010  0.32271368  0.62349527  1
  In  In70  1  0.82012787  0.65846786  0.12804718  1
  In  In71  1  0.85037623  0.67021431  0.62378508  1
  In  In72  1  0.66756647  0.00725292  0.74167730  1
  In  In73  1  0.84015426  0.84096291  -0.00889134  1
  In  In74  1  0.66352114  0.33739140  0.25703263  1
  In  In75  1  0.00473906  0.33271198  0.24257442  1
  In  In76  1  0.00046558  0.33252389  0.75160404  1
  In  In77  1  0.32304613  0.66219853  0.75555128  1
  In  In78  1  0.83389407  0.49845095  0.00432658  1
  In  In79  1  0.66910955  0.66045301  0.75279460  1
  In  In80  1  0.49587430  0.16666170  0.50162713  1
  In  In81  1  0.83137134  0.83146455  0.49857878  1
  In  In82  1  -0.00292034  0.66667331  0.24841917  1
  In  In83  1  0.49475113  0.83637181  0.00717718  1
  In  In84  1  0.00273707  0.00556240  0.25825072  1
  In  In85  1  0.33322465  -0.00211389  0.25092973  1
  Cu  Cu86  1  0.33047484  -0.00150233  -0.00700567  1
  Cu  Cu87  1  -0.01154914  0.32865072  -0.00982416  1
  Cu  Cu88  1  0.17162802  0.49669943  0.75172739  1
  Cu  Cu89  1  0.49566393  0.17460721  0.75236466  1
  Cu  Cu90  1  0.49844455  0.49384134  0.75658736  1
  Cu  Cu91  1  0.16861099  0.83496670  0.75012994  1
  Cu  Cu92  1  0.82571552  0.83150211  0.24597750  1
  Cu  Cu93  1  0.33730182  0.34448741  0.49855788  1
  Cu  Cu94  1  0.66210406  -0.00301864  0.49939420  1
  Cu  Cu95  1  0.16905636  0.82681004  0.25020797  1
  Cu  Cu96  1  0.84260546  0.83218018  0.74645066  1
  Cu  Cu97  1  0.49170667  0.83304733  0.74229886  1
  Cu  Cu98  1  0.00202584  0.66289721  0.49997155  1
  Cu  Cu99  1  0.83605696  0.16368234  0.25124183  1
  Cu  Cu100  1  0.66048244  0.66810582  0.00720577  1
  Cu  Cu101  1  0.33202570  0.66685569  0.49757862  1
  Cu  Cu102  1  0.67035969  0.33266121  0.49811885  1
  Cu  Cu103  1  0.67005555  0.01626671  -0.00078993  1
  Cu  Cu104  1  0.65910292  0.33293609  0.00154434  1
  Cu  Cu105  1  0.17324594  0.49882649  0.24453017  1
  Cu  Cu106  1  0.00330590  -0.00336825  -0.00899805  1
  Cu  Cu107  1  0.50011318  0.82472628  0.25159694  1
  Cu  Cu108  1  0.83679371  0.49744724  0.74760851  1
  Cu  Cu109  1  0.66111793  0.66248607  0.49408682  1
  Cu  Cu110  1  0.49779237  0.16925741  0.24373033  1
  Cu  Cu111  1  0.00293353  0.00227967  0.50545064  1
  Cu  Cu112  1  0.00265568  0.33347663  0.50886894  1
  Cu  Cu113  1  0.17649390  0.16995485  0.24898083  1
  Cu  Cu114  1  0.16895137  0.16782722  0.75430652  1
  Se  Se115  1  0.08404987  0.07853179  0.04913388  1
  Se  Se116  1  0.08208329  0.08678051  0.56125725  1
  Se  Se117  1  0.05924199  0.40541734  0.05761900  1
  Se  Se118  1  0.09002820  0.42118221  0.55350130  1
  Se  Se119  1  0.09336856  0.75086652  0.04216850  1
  Se  Se120  1  0.08171449  0.74893938  0.55356382  1
  Se  Se121  1  0.41628859  0.07617418  0.04948861  1
  Se  Se122  1  0.40472904  0.08063476  0.56130885  1
  Se  Se123  1  0.40912125  0.40743521  0.05287234  1
  Se  Se124  1  0.42332218  0.42358199  0.55304536  1
  Se  Se125  1  0.41176313  0.74153418  0.06479193  1
  Se  Se126  1  0.41704592  0.75343123  0.54796835  1
  Se  Se127  1  0.75734744  0.09149900  0.05462547  1
  Se  Se128  1  0.74683915  0.07820237  0.55266018  1
  Se  Se129  1  0.73808788  0.41282163  0.06467282  1
  Se  Se130  1  0.75227039  0.41562980  0.55439958  1
  Se  Se131  1  0.74658401  0.75395780  0.05567138  1
  Se  Se132  1  0.73988027  0.74063922  0.55954213  1
  Se  Se133  1  0.22631031  0.23224768  0.04970031  1
  Se  Se134  1  0.25723775  0.25976205  0.55405447  1
  Se  Se135  1  0.23099178  0.54991241  0.05494472  1
  Se  Se136  1  0.25239576  0.58253165  0.55447119  1
  Se  Se137  1  0.24875406  0.91290358  0.04569554  1
  Se  Se138  1  0.23181365  0.90889811  0.55460695  1
  Se  Se139  1  0.57967810  0.24721455  0.05650487  1
  Se  Se140  1  0.58738397  0.25616169  0.56124352  1
  Se  Se141  1  0.58355095  0.58053275  0.05932844  1
  Se  Se142  1  0.58001486  0.58058852  0.55200978  1
  Se  Se143  1  0.59558744  0.92790187  0.05786665  1
  Se  Se144  1  0.57296909  0.91281725  0.54430944  1
  Se  Se145  1  0.90839448  0.24585680  0.04748701  1
  Se  Se146  1  0.91811970  0.24771630  0.55897215  1
  Se  Se147  1  0.92094112  0.59942944  0.05729026  1
  Se  Se148  1  0.91630953  0.58073730  0.55148016  1
  Se  Se149  1  0.92909253  0.92187360  0.06110261  1
  Se  Se150  1  0.92071552  0.91715952  0.56248432  1
  Se  Se151  1  0.08528716  0.25430566  0.44933493  1
  Se  Se152  1  0.08187250  0.24869788  0.94493334  1
  Se  Se153  1  0.08829404  0.58006462  0.44832957  1
  Se  Se154  1  0.07164814  0.58548222  0.95004012  1
  Se  Se155  1  0.08634968  0.91796368  0.45337375  1
  Se  Se156  1  0.08833778  0.91388681  0.93974578  1
  Se  Se157  1  0.41474421  0.26074858  0.43766734  1
  Se  Se158  1  0.40491932  0.25561371  0.94876462  1
  Se  Se159  1  0.41194149  0.58227192  0.44115203  1
  Se  Se160  1  0.42596762  0.57253092  0.96527595  1
  Se  Se161  1  0.39416014  0.93882355  0.44636739  1
  Se  Se162  1  0.41444413  0.91887971  0.93414986  1
  Se  Se163  1  0.75309299  0.24195164  0.45191021  1
  Se  Se164  1  0.74662064  0.25382826  0.94807044  1
  Se  Se165  1  0.75429108  0.58012544  0.45112623  1
  Se  Se166  1  0.74054918  0.59015336  0.94342922  1
  Se  Se167  1  0.74074878  0.91712713  0.43577890  1
  Se  Se168  1  0.74377249  0.93345785  0.93635786  1
  Se  Se169  1  0.24301586  0.10317670  0.45561321  1
  Se  Se170  1  0.24986206  0.08252281  0.93838257  1
  Se  Se171  1  0.25256507  0.42175880  0.44038173  1
  Se  Se172  1  0.22631764  0.43952115  0.95655709  1
  Se  Se173  1  0.24411371  0.75050588  0.44806070  1
  Se  Se174  1  0.27879622  0.72420142  0.94790993  1
  Se  Se175  1  0.58585482  0.07963707  0.43697357  1
  Se  Se176  1  0.57586292  0.09140777  0.95022873  1
  Se  Se177  1  0.58459731  0.41741849  0.44918853  1
  Se  Se178  1  0.57983149  0.41647321  0.94576828  1
  Se  Se179  1  0.57697602  0.74742124  0.44335525  1
  Se  Se180  1  0.58447827  0.74596244  0.94183952  1
  Se  Se181  1  0.91730007  0.08223505  0.45084746  1
  Se  Se182  1  0.91662811  0.08255126  0.94419477  1
  Se  Se183  1  0.91828628  0.41347810  0.45274022  1
  Se  Se184  1  0.91495172  0.41561213  0.93172078  1
  Se  Se185  1  0.92203493  0.74151453  0.43684253  1
  Se  Se186  1  0.92591680  0.74319356  0.93755126  1
  Se  Se187  1  0.25758848  0.25482845  0.30215849  1
  Se  Se188  1  0.25103888  0.25340601  0.80640090  1
  Se  Se189  1  0.25194630  0.58617060  0.29809190  1
  Se  Se190  1  0.24706315  0.56995105  0.82082278  1
  Se  Se191  1  0.24546164  0.90865742  0.31274387  1
  Se  Se192  1  0.25466218  0.91917202  0.79996688  1
  Se  Se193  1  0.57023668  0.24519268  0.31384646  1
  Se  Se194  1  0.57924358  0.25800471  0.80473545  1
  Se  Se195  1  0.58348763  0.57681165  0.30574004  1
  Se  Se196  1  0.57071018  0.58230520  0.81606399  1
  Se  Se197  1  0.58216822  0.91538484  0.29961852  1
  Se  Se198  1  0.57608128  0.91257802  0.80161562  1
  Se  Se199  1  0.91965423  0.24185778  0.31012912  1
  Se  Se200  1  0.91011244  0.24441052  0.81120559  1
  Se  Se201  1  0.91751985  0.57322486  0.31220313  1
  Se  Se202  1  0.92165469  0.58237310  0.79636745  1
  Se  Se203  1  0.90571616  0.90833624  0.30858423  1
  Se  Se204  1  0.92570955  0.91583947  0.79854685  1
  Se  Se205  1  0.10265901  0.08905220  0.31369226  1
  Se  Se206  1  0.08149372  0.08206951  0.79949428  1
  Se  Se207  1  0.09172826  0.42137826  0.30650288  1
  Se  Se208  1  0.09715217  0.41155846  0.81391251  1
  Se  Se209  1  0.08673655  0.75313125  0.31245870  1
  Se  Se210  1  0.09747331  0.74268509  0.80645108  1
  Se  Se211  1  0.42382081  0.08894036  0.31075653  1
  Se  Se212  1  0.41531226  0.08361767  0.80005568  1
  Se  Se213  1  0.40868742  0.41276383  0.29364010  1
  Se  Se214  1  0.40889123  0.41973033  0.81198848  1
  Se  Se215  1  0.41146217  0.74990139  0.30654113  1
  Se  Se216  1  0.41882856  0.75716405  0.80963056  1
  Se  Se217  1  0.74928385  0.08205695  0.30185442  1
  Se  Se218  1  0.74450139  0.09039176  0.81321622  1
  Se  Se219  1  0.75957805  0.41810061  0.31725997  1
  Se  Se220  1  0.74500324  0.41946840  0.79566140  1
  Se  Se221  1  0.74819703  0.74479977  0.30006114  1
  Se  Se222  1  0.76053063  0.75796006  0.80980370  1
  Se  Se223  1  0.25333890  0.08951215  0.18588828  1
  Se  Se224  1  0.25117526  0.08492831  0.69809529  1
  Se  Se225  1  0.24853504  0.40798687  0.19126100  1
  Se  Se226  1  0.25792623  0.41588220  0.69963194  1
  Se  Se227  1  0.24610636  0.74415780  0.19238580  1
  Se  Se228  1  0.25002382  0.75679453  0.68789754  1
  Se  Se229  1  0.58679176  0.08514865  0.19815111  1
  Se  Se230  1  0.57345852  0.09872314  0.68531320  1
  Se  Se231  1  0.57428870  0.42148298  0.19402020  1
  Se  Se232  1  0.58151805  0.41687652  0.69812289  1
  Se  Se233  1  0.58477567  0.74178090  0.19886517  1
  Se  Se234  1  0.57699383  0.74982890  0.69041319  1
  Se  Se235  1  0.92015601  0.09076267  0.18890266  1
  Se  Se236  1  0.90984670  0.08544932  0.70539530  1
  Se  Se237  1  0.90395798  0.42798145  0.19740065  1
  Se  Se238  1  0.91744866  0.42113497  0.68486493  1
  Se  Se239  1  0.91334544  0.76207548  0.18453229  1
  Se  Se240  1  0.92691086  0.74426963  0.69933488  1
  Se  Se241  1  0.09598918  0.24400518  0.18589776  1
  Se  Se242  1  0.09232920  0.24730025  0.68918222  1
  Se  Se243  1  0.09242724  0.58282847  0.18774275  1
  Se  Se244  1  0.09169420  0.58202999  0.69740580  1
  Se  Se245  1  0.09311927  0.91643363  0.19473936  1
  Se  Se246  1  0.08452512  0.92103964  0.69960167  1
  Se  Se247  1  0.41085537  0.24654066  0.19108169  1
  Se  Se248  1  0.40996065  0.25748536  0.70028265  1
  Se  Se249  1  0.40219300  0.58550917  0.19854366  1
  Se  Se250  1  0.42276411  0.57929436  0.69554944  1
  Se  Se251  1  0.42361689  0.90716253  0.18837395  1
  Se  Se252  1  0.41292396  0.92024830  0.69143407  1
  Se  Se253  1  0.75738392  0.24964300  0.19412808  1
  Se  Se254  1  0.75114430  0.25092338  0.70303145  1
  Se  Se255  1  0.75626495  0.58335680  0.20735805  1
  Se  Se256  1  0.75634503  0.57849490  0.68554737  1
  Se  Se257  1  0.74575876  0.92078697  0.19602100  1
  Se  Se258  1  0.75669362  0.90628605  0.68698696  1
