# generated using pymatgen
data_In86Cu29Se144
_symmetry_space_group_name_H-M   'P 1'
_cell_length_a   17.58326712
_cell_length_b   17.58163351
_cell_length_c   23.44818277
_cell_angle_alpha   89.97733814
_cell_angle_beta   89.99699175
_cell_angle_gamma   89.98187136
_symmetry_Int_Tables_number   1
_chemical_formula_structural   In86Cu29Se144
_chemical_formula_sum   'In86 Cu29 Se144'
_cell_volume   7248.83027277
_cell_formula_units_Z   1
loop_
 _symmetry_equiv_pos_site_id
 _symmetry_equiv_pos_as_xyz
  1  'x, y, z'
loop_
 _atom_site_type_symbol
 _atom_site_label
 _atom_site_symmetry_multiplicity
 _atom_site_fract_x
 _atom_site_fract_y
 _atom_site_fract_z
 _atom_site_occupancy
  In  In0  1  -0.00393797  0.16091354  0.13464320  1
  In  In1  1  0.00113821  0.16655841  0.62066126  1
  In  In2  1  -0.00398777  0.49239942  0.12433395  1
  In  In3  1  0.00194594  0.48289822  0.62422210  1
  In  In4  1  -0.00170310  0.83368034  0.12506281  1
  In  In5  1  -0.00413053  0.85688817  0.62802449  1
  In  In6  1  0.33257241  0.17139549  0.11420482  1
  In  In7  1  0.34929184  0.17395776  0.61561356  1
  In  In8  1  0.34121387  0.50955185  0.12213025  1
  In  In9  1  0.31458460  0.49701842  0.62141395  1
  In  In10  1  0.31265101  0.83109954  0.12105919  1
  In  In11  1  0.33224888  0.83639905  0.62781823  1
  In  In12  1  0.67009997  0.19047109  0.12412816  1
  In  In13  1  0.66415778  0.15903966  0.62124087  1
  In  In14  1  0.65944526  0.48949097  0.11604789  1
  In  In15  1  0.67515564  0.50608764  0.63335083  1
  In  In16  1  0.67405396  0.82031900  0.12142589  1
  In  In17  1  0.67670783  0.83009861  0.63479523  1
  In  In18  1  0.15822056  0.01617716  0.38030933  1
  In  In19  1  0.15603420  0.01077611  0.87995973  1
  In  In20  1  0.16318738  0.33549862  0.37822124  1
  In  In21  1  0.16196083  0.33210924  0.87615248  1
  In  In22  1  0.15367245  0.65399840  0.36574912  1
  In  In23  1  0.17546796  0.66463749  0.88943233  1
  In  In24  1  0.50493277  0.00440967  0.38095378  1
  In  In25  1  0.52010838  0.00331369  0.86813845  1
  In  In26  1  0.49609263  0.32222546  0.37249279  1
  In  In27  1  0.49183728  0.34042089  0.87881106  1
  In  In28  1  0.49889679  0.67413152  0.36552422  1
  In  In29  1  0.49958186  0.65995090  0.87518646  1
  In  In30  1  0.84125718  -0.00723344  0.38149575  1
  In  In31  1  0.82860710  0.00189738  0.86685042  1
  In  In32  1  0.82250061  0.32221340  0.35374689  1
  In  In33  1  0.85198499  0.32822015  0.87417820  1
  In  In34  1  0.84581093  0.66205124  0.37400016  1
  In  In35  1  0.82714524  0.67228955  0.88522586  1
  In  In36  1  -0.00103603  0.17191765  0.37193944  1
  In  In37  1  -0.00070009  0.17854551  0.86395842  1
  In  In38  1  0.00037689  0.50332253  0.36515914  1
  In  In39  1  0.01189609  0.49152905  0.88755039  1
  In  In40  1  -0.00915308  0.82237473  0.36899500  1
  In  In41  1  -0.01006376  0.84345789  0.88508434  1
  In  In42  1  0.33250693  0.16770264  0.38927152  1
  In  In43  1  0.32414328  0.17630080  0.87698590  1
  In  In44  1  0.31966505  0.49138893  0.36812191  1
  In  In45  1  0.33878549  0.49468538  0.88347056  1
  In  In46  1  0.33435519  0.82730439  0.37168170  1
  In  In47  1  0.33445701  0.82382612  0.87850909  1
  In  In48  1  0.66364678  0.17345320  0.38219441  1
  In  In49  1  0.66698382  0.15429889  0.86847316  1
  In  In50  1  0.68679867  0.49385887  0.36868927  1
  In  In51  1  0.65914294  0.50776893  0.88189773  1
  In  In52  1  0.66541490  0.84314682  0.37870392  1
  In  In53  1  0.67987286  0.84898998  0.86496224  1
  In  In54  1  0.15501663  -0.00509773  0.11755710  1
  In  In55  1  0.15182264  0.00551229  0.62709949  1
  In  In56  1  0.15449320  0.32467486  0.11810565  1
  In  In57  1  0.16659456  0.32853530  0.62430212  1
  In  In58  1  0.16132966  0.66417421  0.12528505  1
  In  In59  1  0.17382790  0.66087810  0.62180036  1
  In  In60  1  0.48908353  0.00351779  0.11747404  1
  In  In61  1  0.50160732  0.02093166  0.63504754  1
  In  In62  1  0.51009487  0.34607666  0.11480848  1
  In  In63  1  0.50080954  0.30635938  0.63200607  1
  In  In64  1  0.50031645  0.64069289  0.12694782  1
  In  In65  1  0.50511445  0.67779012  0.63063892  1
  In  In66  1  0.85075134  0.00685377  0.12617410  1
  In  In67  1  0.83766624  0.00519563  0.62172367  1
  In  In68  1  0.81781274  0.34179034  0.14578815  1
  In  In69  1  0.85105499  0.33611085  0.62501270  1
  In  In70  1  0.84449934  0.67453220  0.11663482  1
  In  In71  1  0.82125186  0.66456988  0.62866803  1
  In  In72  1  0.66515520  0.00347470  0.25456039  1
  In  In73  1  0.32389267  -0.00010647  0.26067909  1
  In  In74  1  0.34095857  0.66089203  0.75970219  1
  In  In75  1  0.16186115  0.83499442  0.50869590  1
  In  In76  1  0.84258046  0.49419138  0.49347320  1
  In  In77  1  0.49675947  0.84540291  0.50797957  1
  In  In78  1  0.33712529  0.00457323  0.74678092  1
  In  In79  1  0.33406468  0.33623579  0.24791602  1
  In  In80  1  0.50214839  0.83265537  -0.00511586  1
  In  In81  1  0.83505337  0.16911317  0.00067276  1
  In  In82  1  0.00032303  0.66798607  0.76007010  1
  In  In83  1  0.67100607  0.65871442  0.24536245  1
  In  In84  1  0.49729903  0.49431102  0.49512020  1
  In  In85  1  0.67141696  0.33056830  0.74998188  1
  Cu  Cu86  1  0.33060682  0.00958174  -0.00434686  1
  Cu  Cu87  1  -0.00311114  0.00575567  0.50011357  1
  Cu  Cu88  1  0.16304571  0.17389284  0.74987292  1
  Cu  Cu89  1  0.00412589  0.66526313  0.00510019  1
  Cu  Cu90  1  0.16677820  0.83486498  0.75596302  1
  Cu  Cu91  1  0.33280109  0.66845358  0.00445163  1
  Cu  Cu92  1  0.83493760  0.83539327  0.24985755  1
  Cu  Cu93  1  0.67290058  0.66401480  0.00100574  1
  Cu  Cu94  1  0.83800383  0.83940579  0.75261905  1
  Cu  Cu95  1  0.66373889  0.33381396  -0.00144200  1
  Cu  Cu96  1  0.16031109  0.48850539  0.75171509  1
  Cu  Cu97  1  0.00828679  0.32817656  0.49713532  1
  Cu  Cu98  1  0.67168351  0.32810356  0.50026498  1
  Cu  Cu99  1  0.16647706  0.16105711  0.24927127  1
  Cu  Cu100  1  0.32422318  0.33600852  -0.00053475  1
  Cu  Cu101  1  0.49605143  0.49674830  0.75565603  1
  Cu  Cu102  1  0.67240785  0.00434427  0.50130180  1
  Cu  Cu103  1  0.67429411  0.00026062  -0.00633776  1
  Cu  Cu104  1  0.16703130  0.50397409  0.24461604  1
  Cu  Cu105  1  -0.00091873  0.66539886  0.49451726  1
  Cu  Cu106  1  0.66656374  0.67431253  0.50704518  1
  Cu  Cu107  1  0.33277495  0.33253522  0.50113855  1
  Cu  Cu108  1  0.50699015  0.17350882  0.24959918  1
  Cu  Cu109  1  0.00254389  0.00120586  0.00153617  1
  Cu  Cu110  1  0.83449960  0.50185951  0.75305718  1
  Cu  Cu111  1  0.48501238  0.82620903  0.24508088  1
  Cu  Cu112  1  0.32450174  0.65990761  0.49504354  1
  Cu  Cu113  1  -0.00192604  0.33156249  0.00264729  1
  Cu  Cu114  1  0.15359271  0.82920492  0.24396472  1
  Se  Se115  1  0.07695331  0.09118250  0.05639801  1
  Se  Se116  1  0.08624544  0.08639138  0.54877066  1
  Se  Se117  1  0.08349195  0.41865441  0.05092024  1
  Se  Se118  1  0.08775249  0.41448039  0.55160695  1
  Se  Se119  1  0.08474233  0.75381614  0.05637519  1
  Se  Se120  1  0.06889736  0.74258985  0.56589899  1
  Se  Se121  1  0.41873061  0.09002701  0.04640688  1
  Se  Se122  1  0.41836218  0.07288026  0.55476637  1
  Se  Se123  1  0.41133241  0.41766077  0.05225669  1
  Se  Se124  1  0.41459851  0.40969514  0.56333876  1
  Se  Se125  1  0.41770375  0.74739117  0.06381326  1
  Se  Se126  1  0.40434161  0.73922290  0.55630066  1
  Se  Se127  1  0.74362753  0.07961974  0.06279360  1
  Se  Se128  1  0.75668869  0.08949085  0.55162213  1
  Se  Se129  1  0.75343054  0.40449511  0.05706071  1
  Se  Se130  1  0.74581700  0.41429392  0.55948531  1
  Se  Se131  1  0.75678265  0.75346205  0.04656202  1
  Se  Se132  1  0.75395306  0.75420750  0.55687553  1
  Se  Se133  1  0.24196835  0.24769412  0.04870888  1
  Se  Se134  1  0.25053373  0.24784316  0.55416433  1
  Se  Se135  1  0.24877980  0.58425335  0.05595231  1
  Se  Se136  1  0.24011816  0.57695498  0.54612939  1
  Se  Se137  1  0.25029062  0.92435987  0.05003652  1
  Se  Se138  1  0.25535720  0.92764739  0.56170507  1
  Se  Se139  1  0.57939640  0.24740833  0.04843201  1
  Se  Se140  1  0.58486922  0.24817318  0.55263119  1
  Se  Se141  1  0.58328868  0.58066055  0.04784846  1
  Se  Se142  1  0.58662961  0.58559201  0.55894564  1
  Se  Se143  1  0.59325458  0.92205274  0.05779663  1
  Se  Se144  1  0.59439426  0.92613247  0.56599802  1
  Se  Se145  1  0.91688124  0.25691639  0.06614546  1
  Se  Se146  1  0.91894870  0.25154784  0.55055219  1
  Se  Se147  1  0.91812250  0.57842281  0.05271290  1
  Se  Se148  1  0.92222424  0.58676992  0.56160830  1
  Se  Se149  1  0.91699250  0.91830727  0.05366125  1
  Se  Se150  1  0.91441335  0.91687545  0.54887447  1
  Se  Se151  1  0.09079115  0.24184361  0.44465353  1
  Se  Se152  1  0.07564940  0.24810176  0.94345537  1
  Se  Se153  1  0.07858628  0.57870927  0.44300816  1
  Se  Se154  1  0.08919910  0.58177729  0.95350683  1
  Se  Se155  1  0.07319523  0.91630268  0.44121531  1
  Se  Se156  1  0.08690997  0.91684653  0.94890977  1
  Se  Se157  1  0.42279848  0.25132893  0.45155731  1
  Se  Se158  1  0.41079628  0.25460970  0.94661530  1
  Se  Se159  1  0.41083881  0.58871811  0.43510874  1
  Se  Se160  1  0.41635619  0.58770242  0.94834021  1
  Se  Se161  1  0.40351407  0.92362519  0.44125624  1
  Se  Se162  1  0.41374898  0.92829918  0.93727265  1
  Se  Se163  1  0.75942582  0.25615798  0.44151825  1
  Se  Se164  1  0.74339396  0.25517879  0.93673061  1
  Se  Se165  1  0.74350714  0.59190294  0.44488754  1
  Se  Se166  1  0.75465214  0.57581340  0.95017793  1
  Se  Se167  1  0.75046045  0.91480635  0.44933828  1
  Se  Se168  1  0.75906619  0.91784917  0.94332053  1
  Se  Se169  1  0.25308093  0.07594993  0.44904773  1
  Se  Se170  1  0.24317732  0.09185809  0.94581431  1
  Se  Se171  1  0.25105862  0.41567526  0.44656021  1
  Se  Se172  1  0.24187519  0.41940970  0.94524987  1
  Se  Se173  1  0.24385954  0.74554093  0.43989602  1
  Se  Se174  1  0.25187208  0.75740438  0.95491455  1
  Se  Se175  1  0.58396912  0.08560437  0.45014005  1
  Se  Se176  1  0.58705099  0.08399261  0.94641379  1
  Se  Se177  1  0.59593889  0.40991692  0.43784137  1
  Se  Se178  1  0.57871849  0.41895546  0.94734515  1
  Se  Se179  1  0.58202296  0.74750453  0.44555894  1
  Se  Se180  1  0.59631490  0.74639644  0.93668266  1
  Se  Se181  1  0.91725865  0.08932200  0.44336348  1
  Se  Se182  1  0.92320256  0.08064342  0.93868634  1
  Se  Se183  1  0.92622820  0.40276470  0.43357815  1
  Se  Se184  1  0.91414872  0.41541137  0.95004132  1
  Se  Se185  1  0.91308203  0.75023826  0.44731090  1
  Se  Se186  1  0.91994336  0.74784696  0.95062673  1
  Se  Se187  1  0.25007344  0.24019470  0.30873935  1
  Se  Se188  1  0.24664813  0.25569929  0.80342949  1
  Se  Se189  1  0.25103257  0.58442261  0.29974290  1
  Se  Se190  1  0.23964421  0.57359464  0.81038749  1
  Se  Se191  1  0.22893122  0.90558552  0.31278835  1
  Se  Se192  1  0.25007831  0.91543988  0.81296556  1
  Se  Se193  1  0.59000835  0.25297662  0.30462251  1
  Se  Se194  1  0.57604468  0.25002056  0.81071845  1
  Se  Se195  1  0.58143719  0.57393704  0.30963288  1
  Se  Se196  1  0.58169975  0.58124362  0.80382110  1
  Se  Se197  1  0.56600871  0.90604405  0.30534612  1
  Se  Se198  1  0.58680585  0.91639746  0.79707034  1
  Se  Se199  1  0.94063176  0.27088523  0.30133343  1
  Se  Se200  1  0.89974613  0.23908871  0.79634597  1
  Se  Se201  1  0.90128140  0.57151495  0.30067221  1
  Se  Se202  1  0.91339863  0.57603688  0.81885235  1
  Se  Se203  1  0.91742588  0.91812526  0.30393026  1
  Se  Se204  1  0.92402164  0.92034663  0.80496849  1
  Se  Se205  1  0.07936854  0.08248141  0.30260516  1
  Se  Se206  1  0.08333098  0.08618081  0.80240851  1
  Se  Se207  1  0.09294378  0.41902531  0.30387448  1
  Se  Se208  1  0.07352366  0.41174251  0.80640062  1
  Se  Se209  1  0.07438524  0.74254653  0.29987200  1
  Se  Se210  1  0.09317156  0.75482903  0.81950744  1
  Se  Se211  1  0.42448995  0.09405509  0.30937880  1
  Se  Se212  1  0.41977315  0.09118100  0.81294817  1
  Se  Se213  1  0.42758236  0.42423734  0.30666319  1
  Se  Se214  1  0.40866564  0.41655095  0.80506989  1
  Se  Se215  1  0.40383609  0.74234170  0.29778145  1
  Se  Se216  1  0.43175961  0.76208171  0.80603005  1
  Se  Se217  1  0.75457628  0.08601502  0.31686972  1
  Se  Se218  1  0.75814972  0.09171974  0.79776499  1
  Se  Se219  1  0.75575231  0.42212704  0.29008542  1
  Se  Se220  1  0.75393778  0.42233685  0.81460455  1
  Se  Se221  1  0.75026224  0.75757513  0.30929936  1
  Se  Se222  1  0.75986354  0.75101470  0.80603207  1
  Se  Se223  1  0.24840733  0.08588331  0.18768640  1
  Se  Se224  1  0.24348401  0.09268950  0.68960858  1
  Se  Se225  1  0.24272495  0.41900876  0.18424794  1
  Se  Se226  1  0.24773300  0.41299141  0.69613519  1
  Se  Se227  1  0.24428823  0.74873275  0.19600942  1
  Se  Se228  1  0.24467979  0.75186154  0.69784750  1
  Se  Se229  1  0.57672018  0.08720440  0.18729620  1
  Se  Se230  1  0.58660824  0.09675049  0.70268024  1
  Se  Se231  1  0.58773891  0.41147187  0.19287419  1
  Se  Se232  1  0.57488879  0.42025522  0.68979613  1
  Se  Se233  1  0.57374980  0.75222352  0.18891439  1
  Se  Se234  1  0.59344259  0.74427290  0.69979410  1
  Se  Se235  1  0.90927446  0.08648263  0.20507473  1
  Se  Se236  1  0.94263734  0.06277639  0.68623360  1
  Se  Se237  1  0.93704778  0.39496678  0.19616439  1
  Se  Se238  1  0.91867205  0.41906572  0.70159446  1
  Se  Se239  1  0.91565982  0.75058479  0.19540701  1
  Se  Se240  1  0.91565334  0.75425073  0.69246927  1
  Se  Se241  1  0.08633121  0.24719103  0.19673048  1
  Se  Se242  1  0.07756603  0.25311684  0.69321585  1
  Se  Se243  1  0.07674378  0.58139048  0.19249774  1
  Se  Se244  1  0.08738104  0.57903417  0.69370464  1
  Se  Se245  1  0.07757921  0.92204696  0.19440240  1
  Se  Se246  1  0.08582861  0.91830936  0.70238358  1
  Se  Se247  1  0.42292897  0.24621347  0.18705121  1
  Se  Se248  1  0.40686685  0.24525035  0.70136149  1
  Se  Se249  1  0.41519442  0.57850955  0.20179057  1
  Se  Se250  1  0.41951263  0.57378769  0.68710478  1
  Se  Se251  1  0.41088386  0.91558556  0.18997069  1
  Se  Se252  1  0.42933083  0.90792240  0.69270033  1
  Se  Se253  1  0.75875208  0.23120715  0.20387918  1
  Se  Se254  1  0.75871489  0.24777268  0.68470553  1
  Se  Se255  1  0.75527371  0.57924593  0.17724846  1
  Se  Se256  1  0.74890908  0.58812542  0.70657319  1
  Se  Se257  1  0.75089608  0.91185350  0.19070086  1
  Se  Se258  1  0.75841271  0.92253311  0.69536433  1
