# generated using pymatgen
data_In86Cu29Se144
_symmetry_space_group_name_H-M   'P 1'
_cell_length_a   17.55851726
_cell_length_b   17.55771638
_cell_length_c   23.41626673
_cell_angle_alpha   90.01577449
_cell_angle_beta   89.99993318
_cell_angle_gamma   89.99449604
_symmetry_Int_Tables_number   1
_chemical_formula_structural   In86Cu29Se144
_chemical_formula_sum   'In86 Cu29 Se144'
_cell_volume   7218.94123205
_cell_formula_units_Z   1
loop_
 _symmetry_equiv_pos_site_id
 _symmetry_equiv_pos_as_xyz
  1  'x, y, z'
loop_
 _atom_site_type_symbol
 _atom_site_label
 _atom_site_symmetry_multiplicity
 _atom_site_fract_x
 _atom_site_fract_y
 _atom_site_fract_z
 _atom_site_occupancy
  In  In0  1  -0.01195131  0.17901806  0.14015602  1
  In  In1  1  0.00183854  0.17342765  0.61459094  1
  In  In2  1  0.00259680  0.49175619  0.10560849  1
  In  In3  1  0.00088536  0.50184236  0.62188902  1
  In  In4  1  0.01130030  0.83253564  0.11336916  1
  In  In5  1  -0.00964114  0.83121142  0.63214405  1
  In  In6  1  0.33002318  0.17584257  0.13534245  1
  In  In7  1  0.35297543  0.19099480  0.60927536  1
  In  In8  1  0.33879107  0.50300885  0.12623654  1
  In  In9  1  0.32916609  0.49756131  0.63178420  1
  In  In10  1  0.32099656  0.81631436  0.11389827  1
  In  In11  1  0.33080001  0.81006665  0.63303648  1
  In  In12  1  0.68258184  0.16279050  0.12532641  1
  In  In13  1  0.66812516  0.18139201  0.61865782  1
  In  In14  1  0.67648039  0.50622126  0.11741038  1
  In  In15  1  0.66477232  0.49406290  0.62628116  1
  In  In16  1  0.66527566  0.84380904  0.09982340  1
  In  In17  1  0.66079673  0.82887067  0.63201951  1
  In  In18  1  0.16494056  0.01983710  0.36537903  1
  In  In19  1  0.15754376  -0.00462846  0.88032748  1
  In  In20  1  0.16870024  0.33306922  0.36841015  1
  In  In21  1  0.17289513  0.33903181  0.87373580  1
  In  In22  1  0.17133066  0.65005024  0.37455784  1
  In  In23  1  0.16607962  0.66371057  0.87535642  1
  In  In24  1  0.51323439  0.00314247  0.37458819  1
  In  In25  1  0.49077162  -0.00125269  0.87799508  1
  In  In26  1  0.49060829  0.34659112  0.38909474  1
  In  In27  1  0.51738577  0.34253426  0.85738718  1
  In  In28  1  0.48623567  0.65554058  0.37153498  1
  In  In29  1  0.49691854  0.66115627  0.87229323  1
  In  In30  1  0.85220812  0.01531907  0.36251074  1
  In  In31  1  0.83106602  -0.01023224  0.88725740  1
  In  In32  1  0.84463327  0.33128555  0.38220103  1
  In  In33  1  0.82744347  0.34987696  0.88652064  1
  In  In34  1  0.82530630  0.66357564  0.37279503  1
  In  In35  1  0.83101042  0.66418740  0.87399997  1
  In  In36  1  0.00028264  0.17057779  0.36871531  1
  In  In37  1  -0.00351607  0.15622572  0.87410618  1
  In  In38  1  0.02044915  0.49095408  0.38340536  1
  In  In39  1  -0.02284793  0.52262262  0.90106140  1
  In  In40  1  -0.01121152  0.84253181  0.36904402  1
  In  In41  1  0.01997489  0.79218329  0.91023911  1
  In  In42  1  0.30856898  0.18726588  0.38532939  1
  In  In43  1  0.34040324  0.17551577  0.86677269  1
  In  In44  1  0.33304893  0.49790556  0.37318512  1
  In  In45  1  0.33077853  0.50116447  0.87549845  1
  In  In46  1  0.34341461  0.82007821  0.36974929  1
  In  In47  1  0.33755033  0.82833931  0.87754318  1
  In  In48  1  0.66391793  0.18452485  0.39550097  1
  In  In49  1  0.66591880  0.18382906  0.86852521  1
  In  In50  1  0.67699542  0.47775670  0.40049873  1
  In  In51  1  0.66069490  0.49630584  0.87171350  1
  In  In52  1  0.66533839  0.83487846  0.37573672  1
  In  In53  1  0.68115234  0.81736210  0.88634124  1
  In  In54  1  0.16521651  -0.01119305  0.12376840  1
  In  In55  1  0.15866617  0.00366673  0.62327028  1
  In  In56  1  0.15490009  0.34294669  0.14053868  1
  In  In57  1  0.17506136  0.34616660  0.61981529  1
  In  In58  1  0.16852805  0.67194707  0.11373470  1
  In  In59  1  0.18267957  0.65148938  0.64673727  1
  In  In60  1  0.51155083  -0.00105946  0.11790817  1
  In  In61  1  0.48925806  0.00675517  0.62450770  1
  In  In62  1  0.48865042  0.33407581  0.12794069  1
  In  In63  1  0.49374047  0.33123523  0.62714608  1
  In  In64  1  0.49240761  0.65476022  0.11307125  1
  In  In65  1  0.51116969  0.65017786  0.64053619  1
  In  In66  1  0.84298586  0.02070597  0.10756790  1
  In  In67  1  0.82917858  0.00713630  0.62524606  1
  In  In68  1  0.85763546  0.34539662  0.10608912  1
  In  In69  1  0.82201713  0.32940246  0.61507574  1
  In  In70  1  0.84694893  0.66095453  0.10303403  1
  In  In71  1  0.84014754  0.65434826  0.64038714  1
  In  In72  1  0.50409453  0.16782297  0.00316179  1
  In  In73  1  0.65902969  0.66057347  0.24652148  1
  In  In74  1  0.50117327  0.83533014  0.49966487  1
  In  In75  1  0.16315181  0.16974810  0.00063928  1
  In  In76  1  0.66738011  -0.00265193  0.74890994  1
  In  In77  1  -0.00009893  -0.00943711  0.75644102  1
  In  In78  1  0.33083685  -0.00049428  0.24653098  1
  In  In79  1  0.16542668  0.83273843  0.50712996  1
  In  In80  1  0.66915002  0.00104032  0.24919771  1
  In  In81  1  0.01020594  0.66424924  0.24380267  1
  In  In82  1  0.00108007  0.34189163  0.75502682  1
  In  In83  1  0.83237713  0.83492287  0.49712128  1
  In  In84  1  0.33208203  0.00166451  0.75534238  1
  In  In85  1  0.66700412  0.33674597  0.25843328  1
  Cu  Cu86  1  0.84884473  0.49848176  0.24539121  1
  Cu  Cu87  1  0.83564587  0.83930066  0.23653154  1
  Cu  Cu88  1  0.50408144  0.82729569  0.75719650  1
  Cu  Cu89  1  0.49219833  0.49857339  0.75015922  1
  Cu  Cu90  1  0.83342643  0.17611251  0.24880510  1
  Cu  Cu91  1  0.33076920  0.00920492  0.50043664  1
  Cu  Cu92  1  0.66919494  0.33669203  -0.00444223  1
  Cu  Cu93  1  0.66781026  0.65833151  0.50897369  1
  Cu  Cu94  1  0.65962791  0.65586293  -0.00759424  1
  Cu  Cu95  1  0.32446804  0.33919590  0.50047252  1
  Cu  Cu96  1  0.16074261  0.50569401  0.75518380  1
  Cu  Cu97  1  0.84156718  0.82259170  0.76330787  1
  Cu  Cu98  1  0.32780689  -0.00265525  0.00017394  1
  Cu  Cu99  1  0.17633204  0.49898593  0.24893401  1
  Cu  Cu100  1  -0.00365185  0.00042392  0.00175665  1
  Cu  Cu101  1  0.48987767  0.17031466  0.25618152  1
  Cu  Cu102  1  0.67290713  0.01555058  0.50109554  1
  Cu  Cu103  1  0.83124423  0.17200469  0.74698181  1
  Cu  Cu104  1  0.49900197  0.50189001  0.25182323  1
  Cu  Cu105  1  0.33590022  0.65285906  0.50384981  1
  Cu  Cu106  1  0.00192732  0.01389092  0.49204829  1
  Cu  Cu107  1  0.33775842  0.34305053  -0.00164406  1
  Cu  Cu108  1  0.82654497  0.49748122  0.75526386  1
  Cu  Cu109  1  -0.00069017  0.33652758  0.49581261  1
  Cu  Cu110  1  0.16678419  0.82900145  0.24212747  1
  Cu  Cu111  1  0.00356549  0.66094520  0.50669073  1
  Cu  Cu112  1  0.49024201  0.81973049  0.23577977  1
  Cu  Cu113  1  0.17852226  0.17337579  0.74241917  1
  Cu  Cu114  1  0.33574744  0.66288895  -0.00469267  1
  Se  Se115  1  0.07552927  0.08129306  0.06341994  1
  Se  Se116  1  0.08865484  0.08885068  0.55015543  1
  Se  Se117  1  0.09381823  0.39994665  0.05176498  1
  Se  Se118  1  0.08191650  0.41870998  0.55287863  1
  Se  Se119  1  0.07081732  0.73363578  0.04504779  1
  Se  Se120  1  0.07906036  0.74275372  0.56862698  1
  Se  Se121  1  0.40408539  0.08117267  0.06161827  1
  Se  Se122  1  0.42319133  0.08802694  0.54766717  1
  Se  Se123  1  0.42331316  0.42144686  0.05469120  1
  Se  Se124  1  0.40754896  0.41678925  0.55949976  1
  Se  Se125  1  0.41880031  0.74976817  0.04794338  1
  Se  Se126  1  0.41932594  0.73700949  0.55951781  1
  Se  Se127  1  0.72706485  0.06805451  0.05000987  1
  Se  Se128  1  0.75826785  0.09425723  0.55524828  1
  Se  Se129  1  0.75459863  0.41978794  0.04895355  1
  Se  Se130  1  0.76030140  0.43395409  0.55450794  1
  Se  Se131  1  0.74270668  0.73765616  0.04893007  1
  Se  Se132  1  0.74770585  0.74612383  0.56300298  1
  Se  Se133  1  0.26048589  0.25678326  0.05672219  1
  Se  Se134  1  0.24183521  0.25034092  0.55092442  1
  Se  Se135  1  0.25568167  0.58150515  0.05468423  1
  Se  Se136  1  0.24555340  0.58218400  0.56179550  1
  Se  Se137  1  0.24379169  0.91166890  0.05077728  1
  Se  Se138  1  0.26528767  0.91960801  0.56457198  1
  Se  Se139  1  0.59445338  0.26005885  0.06369369  1
  Se  Se140  1  0.57885308  0.25801969  0.55347588  1
  Se  Se141  1  0.58010573  0.57130984  0.04932150  1
  Se  Se142  1  0.57747978  0.57961150  0.55811887  1
  Se  Se143  1  0.56781189  0.91715687  0.03845044  1
  Se  Se144  1  0.59592524  0.92713198  0.55911095  1
  Se  Se145  1  0.90836912  0.22688292  0.05486578  1
  Se  Se146  1  0.91549208  0.25326343  0.54914574  1
  Se  Se147  1  0.92493829  0.57640937  0.03586609  1
  Se  Se148  1  0.91079009  0.58551784  0.55750527  1
  Se  Se149  1  0.91432522  0.91271912  0.05375639  1
  Se  Se150  1  0.92726426  0.92857080  0.55580419  1
  Se  Se151  1  0.08094471  0.25447734  0.43834752  1
  Se  Se152  1  0.07533665  0.25432490  0.93606529  1
  Se  Se153  1  0.09195013  0.58374001  0.45260142  1
  Se  Se154  1  0.09284515  0.58168022  0.95078462  1
  Se  Se155  1  0.07991851  0.92169860  0.43938314  1
  Se  Se156  1  0.08344001  0.91568478  0.95367180  1
  Se  Se157  1  0.40902751  0.25175132  0.44992383  1
  Se  Se158  1  0.41753679  0.25861856  0.94089969  1
  Se  Se159  1  0.41923319  0.57333977  0.44737880  1
  Se  Se160  1  0.41953302  0.57773971  0.94467818  1
  Se  Se161  1  0.40685716  0.92481778  0.43824948  1
  Se  Se162  1  0.41328949  0.91611853  0.94808740  1
  Se  Se163  1  0.75088481  0.26939750  0.45379221  1
  Se  Se164  1  0.75015045  0.24820834  0.94505171  1
  Se  Se165  1  0.75551871  0.58544842  0.45001137  1
  Se  Se166  1  0.74726316  0.57584303  0.94019729  1
  Se  Se167  1  0.74801177  0.93267251  0.43589758  1
  Se  Se168  1  0.73760398  0.91965655  0.95286131  1
  Se  Se169  1  0.24096388  0.08347473  0.44723544  1
  Se  Se170  1  0.25920256  0.08305419  0.93724844  1
  Se  Se171  1  0.24457941  0.41910972  0.44054350  1
  Se  Se172  1  0.24779711  0.42044587  0.94709216  1
  Se  Se173  1  0.25912127  0.74234606  0.44586521  1
  Se  Se174  1  0.25116740  0.74837417  0.94492785  1
  Se  Se175  1  0.57763681  0.08818312  0.45050740  1
  Se  Se176  1  0.58810041  0.08500154  0.93481641  1
  Se  Se177  1  0.58288446  0.40541324  0.46297719  1
  Se  Se178  1  0.57891973  0.41240850  0.94260484  1
  Se  Se179  1  0.59023217  0.73761992  0.44178517  1
  Se  Se180  1  0.57707592  0.74478660  0.94345281  1
  Se  Se181  1  0.91254193  0.09440161  0.44299691  1
  Se  Se182  1  0.91434297  0.08365603  0.94753718  1
  Se  Se183  1  0.91812740  0.42798458  0.44752208  1
  Se  Se184  1  0.92852332  0.40352563  0.95426930  1
  Se  Se185  1  0.92753456  0.74046602  0.44095561  1
  Se  Se186  1  0.88558725  0.76429048  0.94590523  1
  Se  Se187  1  0.24398430  0.24445880  0.29845403  1
  Se  Se188  1  0.25229235  0.25666386  0.80217417  1
  Se  Se189  1  0.25803677  0.58543616  0.30027794  1
  Se  Se190  1  0.25229695  0.58592824  0.80432188  1
  Se  Se191  1  0.24392144  0.90595324  0.31021714  1
  Se  Se192  1  0.23998113  0.91124723  0.81132972  1
  Se  Se193  1  0.57353940  0.24695107  0.31600111  1
  Se  Se194  1  0.58332371  0.24533260  0.79199645  1
  Se  Se195  1  0.58821027  0.56755358  0.31712331  1
  Se  Se196  1  0.58003667  0.58019428  0.80191793  1
  Se  Se197  1  0.57074048  0.90096915  0.29901180  1
  Se  Se198  1  0.58275669  0.90964813  0.81514766  1
  Se  Se199  1  0.91655016  0.25981365  0.30255485  1
  Se  Se200  1  0.91018695  0.24777819  0.81143963  1
  Se  Se201  1  0.92174008  0.58018272  0.31037848  1
  Se  Se202  1  0.91510188  0.57641495  0.80881708  1
  Se  Se203  1  0.91732398  0.92044920  0.29229684  1
  Se  Se204  1  0.91875573  0.90424304  0.82234254  1
  Se  Se205  1  0.05790890  0.06643177  0.30149122  1
  Se  Se206  1  0.09777904  0.09210114  0.80259976  1
  Se  Se207  1  0.08545732  0.42072110  0.30051681  1
  Se  Se208  1  0.07937137  0.43408203  0.81967056  1
  Se  Se209  1  0.09075851  0.75565672  0.31240876  1
  Se  Se210  1  0.07537994  0.74996037  0.81481032  1
  Se  Se211  1  0.41560801  0.08446857  0.31507302  1
  Se  Se212  1  0.43459211  0.09397878  0.80111274  1
  Se  Se213  1  0.41987765  0.41413477  0.30616677  1
  Se  Se214  1  0.40959246  0.41496186  0.80470221  1
  Se  Se215  1  0.41453461  0.73750827  0.29538274  1
  Se  Se216  1  0.41305012  0.74677576  0.80433207  1
  Se  Se217  1  0.74632784  0.10312762  0.31081728  1
  Se  Se218  1  0.76132707  0.08373579  0.80896994  1
  Se  Se219  1  0.76200691  0.43097907  0.31057360  1
  Se  Se220  1  0.74575515  0.40896039  0.80542241  1
  Se  Se221  1  0.75572007  0.76153522  0.30018663  1
  Se  Se222  1  0.74359750  0.74256347  0.80289801  1
  Se  Se223  1  0.23380341  0.08883693  0.19337656  1
  Se  Se224  1  0.25351248  0.08868688  0.68396033  1
  Se  Se225  1  0.26100887  0.41473933  0.19650209  1
  Se  Se226  1  0.24202485  0.41830594  0.70182411  1
  Se  Se227  1  0.24836171  0.74217645  0.19256128  1
  Se  Se228  1  0.23908186  0.75892899  0.70776889  1
  Se  Se229  1  0.57397474  0.09648804  0.19367210  1
  Se  Se230  1  0.58230900  0.08771097  0.68734981  1
  Se  Se231  1  0.58403344  0.42686178  0.19070462  1
  Se  Se232  1  0.57715721  0.41693092  0.69567735  1
  Se  Se233  1  0.58468510  0.75337495  0.17754234  1
  Se  Se234  1  0.58898583  0.74471147  0.70400925  1
  Se  Se235  1  0.90561160  0.08035633  0.19722163  1
  Se  Se236  1  0.91896549  0.09085373  0.69371094  1
  Se  Se237  1  0.92793618  0.41824783  0.18687491  1
  Se  Se238  1  0.90601564  0.41933188  0.69065772  1
  Se  Se239  1  0.91286776  0.74877044  0.18399129  1
  Se  Se240  1  0.92314720  0.74335477  0.70460712  1
  Se  Se241  1  0.08667215  0.24528878  0.20408077  1
  Se  Se242  1  0.08655871  0.25000085  0.68978086  1
  Se  Se243  1  0.09291221  0.57064995  0.18356390  1
  Se  Se244  1  0.07249016  0.58139280  0.69931181  1
  Se  Se245  1  0.07965851  0.91029108  0.19319699  1
  Se  Se246  1  0.09439873  0.90742123  0.69464452  1
  Se  Se247  1  0.41196211  0.25831924  0.20413291  1
  Se  Se248  1  0.40863979  0.25238206  0.69777151  1
  Se  Se249  1  0.42110308  0.58787542  0.19661155  1
  Se  Se250  1  0.40653951  0.58600258  0.70166824  1
  Se  Se251  1  0.41676145  0.91150132  0.18113224  1
  Se  Se252  1  0.42430153  0.90530536  0.69391090  1
  Se  Se253  1  0.75780740  0.26044224  0.18908706  1
  Se  Se254  1  0.74909448  0.25485288  0.69470417  1
  Se  Se255  1  0.76744728  0.58383895  0.18931682  1
  Se  Se256  1  0.74191969  0.57943758  0.70015455  1
  Se  Se257  1  0.75075070  0.91685139  0.17907999  1
  Se  Se258  1  0.76770436  0.90396981  0.69561972  1
