# generated using pymatgen
data_In86Cu29Se144
_symmetry_space_group_name_H-M   'P 1'
_cell_length_a   17.58851258
_cell_length_b   17.58782672
_cell_length_c   23.44727183
_cell_angle_alpha   89.96657040
_cell_angle_beta   89.97119798
_cell_angle_gamma   89.98964524
_symmetry_Int_Tables_number   1
_chemical_formula_structural   In86Cu29Se144
_chemical_formula_sum   'In86 Cu29 Se144'
_cell_volume   7253.26382645
_cell_formula_units_Z   1
loop_
 _symmetry_equiv_pos_site_id
 _symmetry_equiv_pos_as_xyz
  1  'x, y, z'
loop_
 _atom_site_type_symbol
 _atom_site_label
 _atom_site_symmetry_multiplicity
 _atom_site_fract_x
 _atom_site_fract_y
 _atom_site_fract_z
 _atom_site_occupancy
  In  In0  1  -0.00604757  0.17229029  0.12637503  1
  In  In1  1  -0.01095323  0.17803662  0.62979821  1
  In  In2  1  -0.00246633  0.48666930  0.13566190  1
  In  In3  1  0.00016332  0.49739103  0.61334826  1
  In  In4  1  0.00012249  0.84725396  0.12849887  1
  In  In5  1  0.00936419  0.83055932  0.62484356  1
  In  In6  1  0.33869610  0.15662816  0.13045246  1
  In  In7  1  0.33912842  0.16962976  0.63781765  1
  In  In8  1  0.34352334  0.49311351  0.14687624  1
  In  In9  1  0.31653563  0.49666125  0.62194804  1
  In  In10  1  0.34927303  0.82652149  0.13361353  1
  In  In11  1  0.34312155  0.83852156  0.60140392  1
  In  In12  1  0.65474471  0.15816137  0.11214595  1
  In  In13  1  0.67091622  0.15656398  0.63203863  1
  In  In14  1  0.67072218  0.50458392  0.13354250  1
  In  In15  1  0.66644234  0.48848569  0.62282564  1
  In  In16  1  0.67052166  0.83469039  0.12013738  1
  In  In17  1  0.65983114  0.84923766  0.63007303  1
  In  In18  1  0.16248255  -0.00639554  0.37346783  1
  In  In19  1  0.17271092  0.00667677  0.86600614  1
  In  In20  1  0.17408750  0.34782480  0.36462711  1
  In  In21  1  0.16056671  0.33496379  0.85707900  1
  In  In22  1  0.19012461  0.64971046  0.39335754  1
  In  In23  1  0.17793290  0.66378475  0.87499276  1
  In  In24  1  0.49021518  -0.00863139  0.36835261  1
  In  In25  1  0.50548939  -0.00169529  0.87398658  1
  In  In26  1  0.48657970  0.34569517  0.37281909  1
  In  In27  1  0.49147856  0.31796458  0.86297142  1
  In  In28  1  0.51378872  0.67253612  0.36384542  1
  In  In29  1  0.50446932  0.68660097  0.87871477  1
  In  In30  1  0.83878538  0.00750457  0.36944855  1
  In  In31  1  0.82974168  0.00635991  0.87552561  1
  In  In32  1  0.84472658  0.32259452  0.38221745  1
  In  In33  1  0.81851109  0.31828355  0.86459048  1
  In  In34  1  0.81370118  0.66839111  0.37377225  1
  In  In35  1  0.83239016  0.67304941  0.88233777  1
  In  In36  1  -0.00562987  0.16211490  0.37254828  1
  In  In37  1  -0.00940069  0.15875425  0.86526429  1
  In  In38  1  0.01299366  0.48798941  0.38069712  1
  In  In39  1  0.00550629  0.48773966  0.86863752  1
  In  In40  1  0.00258950  0.84954835  0.37305086  1
  In  In41  1  -0.01547620  0.83640353  0.87728334  1
  In  In42  1  0.33457106  0.16953883  0.36802933  1
  In  In43  1  0.34439644  0.16510872  0.86687101  1
  In  In44  1  0.33161839  0.49642004  0.36032391  1
  In  In45  1  0.33268793  0.49720808  0.87083910  1
  In  In46  1  0.33490234  0.83156274  0.37729574  1
  In  In47  1  0.34233996  0.84988410  0.87286703  1
  In  In48  1  0.67876283  0.16417516  0.37467218  1
  In  In49  1  0.66610413  0.16677984  0.87542781  1
  In  In50  1  0.66016358  0.51517571  0.37656018  1
  In  In51  1  0.67635328  0.49457943  0.87147733  1
  In  In52  1  0.65575497  0.83172071  0.36772642  1
  In  In53  1  0.64438050  0.85670993  0.89502823  1
  In  In54  1  0.16700475  -0.00314407  0.13579608  1
  In  In55  1  0.17416201  -0.00911279  0.63088928  1
  In  In56  1  0.17266323  0.33187815  0.13601171  1
  In  In57  1  0.16158653  0.34220595  0.63336880  1
  In  In58  1  0.17955619  0.66853818  0.13396575  1
  In  In59  1  0.17386641  0.66775759  0.60394159  1
  In  In60  1  0.50514437  0.00159350  0.12516842  1
  In  In61  1  0.50423871  -0.00835245  0.63764297  1
  In  In62  1  0.50210914  0.32072695  0.12246200  1
  In  In63  1  0.50027990  0.32627015  0.64181836  1
  In  In64  1  0.49457835  0.67268877  0.13060531  1
  In  In65  1  0.48273884  0.68327079  0.61994772  1
  In  In66  1  0.83263336  -0.00016399  0.12191233  1
  In  In67  1  0.82405713  0.01243515  0.63195858  1
  In  In68  1  0.84034297  0.32956709  0.12425461  1
  In  In69  1  0.83673120  0.33310199  0.62029029  1
  In  In70  1  0.81709130  0.67233900  0.13129063  1
  In  In71  1  0.84428103  0.66776222  0.61865703  1
  In  In72  1  0.16669845  0.83652738  0.00871919  1
  In  In73  1  0.66372879  0.33251235  0.25164944  1
  In  In74  1  0.00208610  0.66507121  0.74138745  1
  In  In75  1  0.16262852  0.16801706  0.50601611  1
  In  In76  1  0.00802338  0.66405201  0.25840272  1
  In  In77  1  0.50152202  0.50080879  0.00732136  1
  In  In78  1  0.83170322  0.83580586  0.49656075  1
  In  In79  1  0.83052667  0.50119723  0.00335879  1
  In  In80  1  0.32852888  0.66324223  0.74840990  1
  In  In81  1  0.16614416  0.50123080  0.00427845  1
  In  In82  1  0.49775059  0.50494944  0.50000861  1
  In  In83  1  0.66840402  0.66841843  0.75374043  1
  In  In84  1  0.16250401  0.16571635  -0.00627922  1
  In  In85  1  0.50486064  0.16122052  0.51340473  1
  Cu  Cu86  1  0.66243381  0.32827352  -0.00678329  1
  Cu  Cu87  1  0.84114793  0.49594141  0.74442965  1
  Cu  Cu88  1  0.82516196  0.84849688  0.75502834  1
  Cu  Cu89  1  0.33318048  0.32502816  -0.00575664  1
  Cu  Cu90  1  0.50353903  0.84186896  0.24678860  1
  Cu  Cu91  1  0.83611286  0.16966784  0.75023921  1
  Cu  Cu92  1  -0.00943790  0.32822637  -0.00187006  1
  Cu  Cu93  1  0.67763702  0.33414357  0.50069803  1
  Cu  Cu94  1  0.83359676  0.49533453  0.25521303  1
  Cu  Cu95  1  0.32892265  -0.00669665  0.49851593  1
  Cu  Cu96  1  0.66351798  0.67020374  0.49598049  1
  Cu  Cu97  1  -0.00543261  0.66497041  0.00315061  1
  Cu  Cu98  1  0.33989113  0.67115088  0.00618380  1
  Cu  Cu99  1  -0.00023870  0.66338635  0.49467761  1
  Cu  Cu100  1  0.49947823  0.16649607  0.24519928  1
  Cu  Cu101  1  0.16567885  0.82881566  0.74766942  1
  Cu  Cu102  1  0.17342156  0.83474682  0.25634275  1
  Cu  Cu103  1  0.66131541  -0.00092375  0.50540561  1
  Cu  Cu104  1  0.82880648  0.83718264  0.25009058  1
  Cu  Cu105  1  -0.00618569  0.00530122  0.49965646  1
  Cu  Cu106  1  -0.00418240  -0.00073394  -0.00165510  1
  Cu  Cu107  1  0.33320606  0.33545044  0.49859538  1
  Cu  Cu108  1  0.16491645  0.16304507  0.74619565  1
  Cu  Cu109  1  0.16197792  0.16537431  0.25386419  1
  Cu  Cu110  1  0.49877646  0.49596742  0.75067711  1
  Cu  Cu111  1  0.67069024  0.00279326  -0.00092478  1
  Cu  Cu112  1  0.00451044  0.33297250  0.50084106  1
  Cu  Cu113  1  0.83168443  0.15983689  0.24721049  1
  Cu  Cu114  1  0.34963784  -0.00088967  0.00278888  1
  Se  Se115  1  0.08075695  0.07395335  0.05904851  1
  Se  Se116  1  0.07401232  0.07771383  0.56572613  1
  Se  Se117  1  0.07471509  0.40362317  0.05807058  1
  Se  Se118  1  0.09282629  0.41425994  0.55138239  1
  Se  Se119  1  0.07766921  0.73961934  0.06553177  1
  Se  Se120  1  0.07768936  0.75197664  0.54736802  1
  Se  Se121  1  0.42436200  0.08955335  0.05563979  1
  Se  Se122  1  0.40444957  0.07306500  0.56279273  1
  Se  Se123  1  0.40294415  0.40943660  0.05941838  1
  Se  Se124  1  0.41959822  0.40558425  0.56185210  1
  Se  Se125  1  0.42439381  0.75633158  0.05404724  1
  Se  Se126  1  0.40434461  0.73609023  0.53780406  1
  Se  Se127  1  0.75508420  0.08647831  0.05123593  1
  Se  Se128  1  0.74718101  0.08390699  0.55357278  1
  Se  Se129  1  0.73696450  0.40678154  0.05936699  1
  Se  Se130  1  0.75684270  0.42251447  0.55166342  1
  Se  Se131  1  0.75679161  0.75177715  0.05318378  1
  Se  Se132  1  0.74056945  0.75012419  0.56105969  1
  Se  Se133  1  0.25160325  0.25142606  0.05809232  1
  Se  Se134  1  0.25937285  0.25408803  0.56229214  1
  Se  Se135  1  0.26384528  0.58437986  0.06262422  1
  Se  Se136  1  0.26672143  0.58595123  0.54464809  1
  Se  Se137  1  0.26242562  0.92514510  0.06332002  1
  Se  Se138  1  0.23718801  0.91498776  0.54852543  1
  Se  Se139  1  0.57552359  0.24694130  0.04501187  1
  Se  Se140  1  0.59357943  0.26160310  0.56333094  1
  Se  Se141  1  0.59260066  0.59130002  0.06297278  1
  Se  Se142  1  0.58748438  0.59439533  0.56341638  1
  Se  Se143  1  0.58620630  0.92107210  0.05387658  1
  Se  Se144  1  0.57487138  0.91762649  0.55559543  1
  Se  Se145  1  0.91043153  0.24361398  0.05095462  1
  Se  Se146  1  0.91739428  0.24868136  0.54931190  1
  Se  Se147  1  0.92259065  0.58409467  0.06764727  1
  Se  Se148  1  0.91428431  0.58197205  0.54711788  1
  Se  Se149  1  0.91676045  0.91393317  0.05300690  1
  Se  Se150  1  0.91666086  0.92252382  0.56228032  1
  Se  Se151  1  0.08320664  0.25497785  0.43701741  1
  Se  Se152  1  0.07532224  0.25883244  0.93455585  1
  Se  Se153  1  0.08712210  0.57594166  0.45056586  1
  Se  Se154  1  0.07433240  0.58996491  0.94085300  1
  Se  Se155  1  0.07976959  0.92290489  0.44976117  1
  Se  Se156  1  0.08298325  0.92303165  0.94026473  1
  Se  Se157  1  0.41617749  0.25029542  0.44591110  1
  Se  Se158  1  0.41860654  0.24471109  0.94261159  1
  Se  Se159  1  0.41946047  0.58522309  0.42814395  1
  Se  Se160  1  0.41058125  0.58805161  0.94067624  1
  Se  Se161  1  0.41940967  0.91622837  0.44684217  1
  Se  Se162  1  0.42721679  0.91254986  0.94886310  1
  Se  Se163  1  0.75319167  0.24430174  0.44826368  1
  Se  Se164  1  0.75346920  0.24632316  0.94700348  1
  Se  Se165  1  0.74840718  0.58285037  0.45029250  1
  Se  Se166  1  0.73723835  0.59029233  0.94593355  1
  Se  Se167  1  0.74051423  0.92503797  0.43834487  1
  Se  Se168  1  0.75747462  0.91898928  0.94827505  1
  Se  Se169  1  0.25517514  0.08344201  0.44233130  1
  Se  Se170  1  0.26032553  0.07314014  0.94456464  1
  Se  Se171  1  0.25796007  0.41776383  0.43952743  1
  Se  Se172  1  0.24924268  0.40694606  0.93980688  1
  Se  Se173  1  0.23564389  0.76907750  0.44526615  1
  Se  Se174  1  0.25841085  0.74953665  0.94497663  1
  Se  Se175  1  0.58450723  0.07867378  0.44038576  1
  Se  Se176  1  0.58492562  0.08288339  0.94422810  1
  Se  Se177  1  0.58960717  0.40856393  0.44256022  1
  Se  Se178  1  0.58289951  0.41415306  0.93805528  1
  Se  Se179  1  0.58136373  0.75299602  0.44338652  1
  Se  Se180  1  0.59123469  0.74402408  0.95360891  1
  Se  Se181  1  0.91102623  0.08660722  0.44632037  1
  Se  Se182  1  0.91793006  0.08700744  0.94475349  1
  Se  Se183  1  0.91846636  0.41602662  0.44816918  1
  Se  Se184  1  0.91374304  0.41126667  0.93748669  1
  Se  Se185  1  0.92026152  0.74521745  0.43483822  1
  Se  Se186  1  0.91530632  0.75245363  0.95220783  1
  Se  Se187  1  0.24915875  0.25037249  0.30205475  1
  Se  Se188  1  0.24900191  0.24262365  0.80335402  1
  Se  Se189  1  0.24574928  0.59017161  0.30330628  1
  Se  Se190  1  0.23386615  0.56720920  0.80099933  1
  Se  Se191  1  0.25659381  0.92115972  0.30747404  1
  Se  Se192  1  0.24798404  0.91186218  0.80216131  1
  Se  Se193  1  0.57342203  0.24294896  0.31374306  1
  Se  Se194  1  0.60915161  0.27176273  0.80939157  1
  Se  Se195  1  0.58542237  0.57870042  0.29702064  1
  Se  Se196  1  0.57263853  0.57842552  0.81308203  1
  Se  Se197  1  0.58723115  0.92648457  0.29964440  1
  Se  Se198  1  0.58662560  0.91284303  0.80531296  1
  Se  Se199  1  0.91170731  0.24460418  0.30247448  1
  Se  Se200  1  0.92159550  0.25669793  0.79963406  1
  Se  Se201  1  0.91075941  0.57791845  0.31629653  1
  Se  Se202  1  0.90976415  0.58188028  0.80855936  1
  Se  Se203  1  0.91571694  0.91906146  0.30076423  1
  Se  Se204  1  0.91724013  0.92443705  0.80573566  1
  Se  Se205  1  0.08057155  0.07964244  0.30658976  1
  Se  Se206  1  0.08092038  0.08005855  0.79980424  1
  Se  Se207  1  0.07199431  0.40984962  0.29997389  1
  Se  Se208  1  0.08292520  0.42305615  0.79128553  1
  Se  Se209  1  0.09450806  0.75477403  0.31826100  1
  Se  Se210  1  0.08723253  0.75170603  0.81174454  1
  Se  Se211  1  0.41659754  0.08464178  0.30175810  1
  Se  Se212  1  0.39772836  0.05365624  0.80963049  1
  Se  Se213  1  0.41480684  0.41216887  0.29360634  1
  Se  Se214  1  0.41211859  0.41473703  0.80245485  1
  Se  Se215  1  0.42301444  0.75946903  0.30451329  1
  Se  Se216  1  0.42111160  0.75763400  0.80262112  1
  Se  Se217  1  0.74606434  0.07906233  0.29993073  1
  Se  Se218  1  0.75051921  0.08743995  0.80363987  1
  Se  Se219  1  0.75243304  0.41665265  0.31717609  1
  Se  Se220  1  0.75290918  0.41781158  0.79756532  1
  Se  Se221  1  0.74408986  0.75195871  0.29998513  1
  Se  Se222  1  0.75283104  0.76106666  0.81418622  1
  Se  Se223  1  0.24847471  0.08439715  0.19987978  1
  Se  Se224  1  0.25162734  0.07979660  0.69714265  1
  Se  Se225  1  0.24119278  0.42262525  0.20356263  1
  Se  Se226  1  0.26882748  0.40019421  0.69531268  1
  Se  Se227  1  0.25680510  0.75341964  0.20152075  1
  Se  Se228  1  0.24249760  0.75091881  0.68467462  1
  Se  Se229  1  0.58784306  0.08644128  0.19469107  1
  Se  Se230  1  0.56008774  0.10459826  0.69315167  1
  Se  Se231  1  0.57264259  0.42045941  0.19115297  1
  Se  Se232  1  0.58853259  0.41795073  0.69945684  1
  Se  Se233  1  0.58517217  0.75707546  0.19240405  1
  Se  Se234  1  0.57562316  0.75337999  0.69246092  1
  Se  Se235  1  0.91812558  0.08013219  0.19232811  1
  Se  Se236  1  0.91916241  0.08348215  0.69803922  1
  Se  Se237  1  0.91099442  0.40757358  0.20242476  1
  Se  Se238  1  0.92311599  0.41767918  0.68733045  1
  Se  Se239  1  0.91607103  0.75335740  0.19578652  1
  Se  Se240  1  0.90334625  0.76423808  0.69469259  1
  Se  Se241  1  0.08160351  0.24708671  0.19577383  1
  Se  Se242  1  0.08246315  0.25040455  0.69644224  1
  Se  Se243  1  0.09216790  0.57360001  0.19399620  1
  Se  Se244  1  0.09336154  0.58258050  0.67960892  1
  Se  Se245  1  0.08446282  0.91389963  0.20398793  1
  Se  Se246  1  0.08075443  0.91442897  0.69788962  1
  Se  Se247  1  0.41493717  0.25131806  0.19500820  1
  Se  Se248  1  0.43113403  0.23421474  0.70896043  1
  Se  Se249  1  0.41499627  0.59486212  0.20246579  1
  Se  Se250  1  0.42312074  0.57553123  0.68727609  1
  Se  Se251  1  0.41749334  0.92660701  0.19658351  1
  Se  Se252  1  0.40774600  0.90139456  0.68639007  1
  Se  Se253  1  0.74904604  0.24211999  0.18825432  1
  Se  Se254  1  0.75568240  0.24988344  0.69078642  1
  Se  Se255  1  0.75193454  0.58236163  0.20496951  1
  Se  Se256  1  0.75972899  0.58167192  0.68903764  1
  Se  Se257  1  0.74942228  0.91900892  0.19195304  1
  Se  Se258  1  0.74123319  0.92808473  0.69990111  1
