# generated using pymatgen
data_In86Cu29Se144
_symmetry_space_group_name_H-M   'P 1'
_cell_length_a   17.59017051
_cell_length_b   17.59131544
_cell_length_c   23.45193255
_cell_angle_alpha   90.00351138
_cell_angle_beta   89.97781796
_cell_angle_gamma   89.99005758
_symmetry_Int_Tables_number   1
_chemical_formula_structural   In86Cu29Se144
_chemical_formula_sum   'In86 Cu29 Se144'
_cell_volume   7256.83021339
_cell_formula_units_Z   1
loop_
 _symmetry_equiv_pos_site_id
 _symmetry_equiv_pos_as_xyz
  1  'x, y, z'
loop_
 _atom_site_type_symbol
 _atom_site_label
 _atom_site_symmetry_multiplicity
 _atom_site_fract_x
 _atom_site_fract_y
 _atom_site_fract_z
 _atom_site_occupancy
  In  In0  1  -0.01366348  0.16915316  0.12949699  1
  In  In1  1  -0.01256505  0.15588074  0.61769132  1
  In  In2  1  0.01059314  0.50538498  0.11885695  1
  In  In3  1  -0.00123811  0.51396318  0.62337247  1
  In  In4  1  -0.00116019  0.83732081  0.13445769  1
  In  In5  1  0.00600954  0.82656122  0.63065949  1
  In  In6  1  0.34274621  0.16212842  0.13504972  1
  In  In7  1  0.34209602  0.16401603  0.61426180  1
  In  In8  1  0.32000891  0.49777406  0.11864256  1
  In  In9  1  0.31742219  0.50315670  0.64635711  1
  In  In10  1  0.34779620  0.82941974  0.12156726  1
  In  In11  1  0.32554701  0.83705892  0.61325624  1
  In  In12  1  0.67316431  0.17465185  0.12828806  1
  In  In13  1  0.65178856  0.15783186  0.61229235  1
  In  In14  1  0.67590093  0.49124615  0.12891387  1
  In  In15  1  0.66800869  0.48791579  0.62284506  1
  In  In16  1  0.64704978  0.83475075  0.13028975  1
  In  In17  1  0.66652969  0.84830259  0.62608269  1
  In  In18  1  0.16976641  0.00337555  0.37916504  1
  In  In19  1  0.15809518  0.00682714  0.86773214  1
  In  In20  1  0.16690748  0.31467455  0.37771011  1
  In  In21  1  0.18483843  0.34256590  0.87208466  1
  In  In22  1  0.17431429  0.68321447  0.37579202  1
  In  In23  1  0.16540949  0.65750875  0.86457222  1
  In  In24  1  0.47193666  0.02572363  0.39975827  1
  In  In25  1  0.51007403  -0.00967897  0.88119097  1
  In  In26  1  0.48437639  0.30582908  0.34520216  1
  In  In27  1  0.47850375  0.32693227  0.88205069  1
  In  In28  1  0.50661913  0.67208906  0.37272036  1
  In  In29  1  0.49554361  0.68286605  0.87630987  1
  In  In30  1  0.84824063  0.00103171  0.37263568  1
  In  In31  1  0.83670407  0.00555181  0.86934456  1
  In  In32  1  0.83043458  0.33834652  0.37649277  1
  In  In33  1  0.83434562  0.33289987  0.88454042  1
  In  In34  1  0.82499201  0.65728663  0.36753933  1
  In  In35  1  0.83534798  0.65514087  0.87800048  1
  In  In36  1  0.00878853  0.16039432  0.38167130  1
  In  In37  1  -0.00304237  0.15752817  0.87281592  1
  In  In38  1  -0.01305022  0.49815332  0.37306958  1
  In  In39  1  -0.00351492  0.50550860  0.87943011  1
  In  In40  1  0.01129282  0.84167685  0.36777411  1
  In  In41  1  0.00657913  0.83487297  0.86605998  1
  In  In42  1  0.33419708  0.16488187  0.37548140  1
  In  In43  1  0.33616868  0.17743065  0.87722758  1
  In  In44  1  0.34882352  0.49505132  0.37141964  1
  In  In45  1  0.32428004  0.49271606  0.87101516  1
  In  In46  1  0.31649925  0.85880385  0.39938931  1
  In  In47  1  0.35535106  0.82797930  0.87302297  1
  In  In48  1  0.66166412  0.17380191  0.37432167  1
  In  In49  1  0.67058394  0.15931817  0.88156069  1
  In  In50  1  0.66766212  0.49953201  0.36868931  1
  In  In51  1  0.67752442  0.50758436  0.88323708  1
  In  In52  1  0.66264348  0.82442209  0.37292154  1
  In  In53  1  0.64810127  0.84157005  0.87352962  1
  In  In54  1  0.16412902  0.00721908  0.13468913  1
  In  In55  1  0.16549546  -0.01279922  0.61264536  1
  In  In56  1  0.16659905  0.34219810  0.12288722  1
  In  In57  1  0.18457368  0.33166871  0.62492139  1
  In  In58  1  0.16913627  0.65447433  0.12420963  1
  In  In59  1  0.15615698  0.67179171  0.62895988  1
  In  In60  1  0.49602941  -0.00429631  0.12448824  1
  In  In61  1  0.49804567  0.00645186  0.61582312  1
  In  In62  1  0.50568574  0.32261308  0.13499619  1
  In  In63  1  0.48761615  0.32140115  0.62178794  1
  In  In64  1  0.49551804  0.68403915  0.12480894  1
  In  In65  1  0.48461780  0.66899363  0.63230037  1
  In  In66  1  0.82975599  0.02061190  0.13542151  1
  In  In67  1  0.82211275  0.00398169  0.62890392  1
  In  In68  1  0.82586531  0.32370820  0.11879607  1
  In  In69  1  0.82872592  0.33194863  0.61322426  1
  In  In70  1  0.84255361  0.65788958  0.13113488  1
  In  In71  1  0.84728637  0.67048107  0.62478505  1
  In  In72  1  0.17169293  0.83232096  -0.00875523  1
  In  In73  1  0.82799640  0.83487948  0.00070902  1
  In  In74  1  0.66897454  0.67003825  0.75625578  1
  In  In75  1  0.33067519  -0.00031606  0.74429685  1
  In  In76  1  0.16687579  0.17456035  -0.00475509  1
  In  In77  1  0.50614325  0.49350836  0.50043110  1
  In  In78  1  0.33534778  0.66706483  0.24733454  1
  In  In79  1  0.00272866  0.33179727  0.75320069  1
  In  In80  1  0.50342555  0.49786269  0.00160577  1
  In  In81  1  0.16043999  0.49938874  0.50447474  1
  In  In82  1  0.00104562  0.33266761  0.24986131  1
  In  In83  1  0.83329082  0.83275025  0.49737840  1
  In  In84  1  0.66122544  0.32730639  0.75193424  1
  In  In85  1  0.66198547  0.00011709  0.25442561  1
  Cu  Cu86  1  -0.00113908  0.67055335  0.50044789  1
  Cu  Cu87  1  0.00626207  0.66641430  0.00003329  1
  Cu  Cu88  1  0.83985624  0.50269541  0.75162299  1
  Cu  Cu89  1  0.17373801  0.16120105  0.25593698  1
  Cu  Cu90  1  -0.00284314  0.32799004  0.49671298  1
  Cu  Cu91  1  0.33483154  0.67257970  0.50413452  1
  Cu  Cu92  1  0.66506718  0.32945015  0.00610535  1
  Cu  Cu93  1  0.66781544  0.00542170  0.50060181  1
  Cu  Cu94  1  0.16027539  0.16440171  0.74777189  1
  Cu  Cu95  1  0.16757933  0.83867271  0.25517343  1
  Cu  Cu96  1  0.33740470  0.33246098  0.49691660  1
  Cu  Cu97  1  0.50679404  0.49723368  0.24723804  1
  Cu  Cu98  1  -0.01282390  0.00963899  0.00152574  1
  Cu  Cu99  1  0.00086728  0.33925863  0.00196024  1
  Cu  Cu100  1  0.83162420  0.82807660  0.25332920  1
  Cu  Cu101  1  0.00193468  -0.00313874  0.49881631  1
  Cu  Cu102  1  0.49307474  0.49664182  0.75736650  1
  Cu  Cu103  1  0.17172746  0.83116887  0.74451042  1
  Cu  Cu104  1  0.66539845  0.33778456  0.49125282  1
  Cu  Cu105  1  0.16478456  0.50131370  0.24571936  1
  Cu  Cu106  1  0.83793540  0.83601246  0.74936477  1
  Cu  Cu107  1  0.67029732  0.65969514  0.49531235  1
  Cu  Cu108  1  0.33554759  -0.00196046  0.00303151  1
  Cu  Cu109  1  0.82248753  0.15879475  0.74594860  1
  Cu  Cu110  1  0.66930269  0.66762358  0.00032653  1
  Cu  Cu111  1  0.66191054  0.00583016  0.00773472  1
  Cu  Cu112  1  0.49662652  0.16085721  0.74453601  1
  Cu  Cu113  1  0.49106456  0.83756431  0.25528109  1
  Cu  Cu114  1  0.83569538  0.50235058  0.24772935  1
  Se  Se115  1  0.07863300  0.08292790  0.05744439  1
  Se  Se116  1  0.08260043  0.08201240  0.55296628  1
  Se  Se117  1  0.09007429  0.42123757  0.04897211  1
  Se  Se118  1  0.07344782  0.40467547  0.56323013  1
  Se  Se119  1  0.07966472  0.75262327  0.05929842  1
  Se  Se120  1  0.08301770  0.75232540  0.55326593  1
  Se  Se121  1  0.41467277  0.08280153  0.05738777  1
  Se  Se122  1  0.42263156  0.08692426  0.54293414  1
  Se  Se123  1  0.41833045  0.40898537  0.06386490  1
  Se  Se124  1  0.40285545  0.42059830  0.56218104  1
  Se  Se125  1  0.41322086  0.74537347  0.04742884  1
  Se  Se126  1  0.42261287  0.75244484  0.55484834  1
  Se  Se127  1  0.75035412  0.08653066  0.05711021  1
  Se  Se128  1  0.75483449  0.08645157  0.55216849  1
  Se  Se129  1  0.75150231  0.41663497  0.05165909  1
  Se  Se130  1  0.74842369  0.42015619  0.54643856  1
  Se  Se131  1  0.74347064  0.74746731  0.06615879  1
  Se  Se132  1  0.74345165  0.74358420  0.56020134  1
  Se  Se133  1  0.25586874  0.25045638  0.06313769  1
  Se  Se134  1  0.25313267  0.24938164  0.54978734  1
  Se  Se135  1  0.25964981  0.59585819  0.05148861  1
  Se  Se136  1  0.25680602  0.58586488  0.56128875  1
  Se  Se137  1  0.24876910  0.92338966  0.06095968  1
  Se  Se138  1  0.26421773  0.93166464  0.54255967  1
  Se  Se139  1  0.58246448  0.24685659  0.05824818  1
  Se  Se140  1  0.58263635  0.26025954  0.55128389  1
  Se  Se141  1  0.58977829  0.58949944  0.06383724  1
  Se  Se142  1  0.58788287  0.58988831  0.56319413  1
  Se  Se143  1  0.57931317  0.91481830  0.05345112  1
  Se  Se144  1  0.58579748  0.91907859  0.55153420  1
  Se  Se145  1  0.92030991  0.25007661  0.05160705  1
  Se  Se146  1  0.91152259  0.24532405  0.54928520  1
  Se  Se147  1  0.91999453  0.58605836  0.05351619  1
  Se  Se148  1  0.91382304  0.58480444  0.54935808  1
  Se  Se149  1  0.91585952  0.92417702  0.06257759  1
  Se  Se150  1  0.92032084  0.91888413  0.56168339  1
  Se  Se151  1  0.08771803  0.24412322  0.45314542  1
  Se  Se152  1  0.07465269  0.26180268  0.93341691  1
  Se  Se153  1  0.07908221  0.59024385  0.43813519  1
  Se  Se154  1  0.08767838  0.58613273  0.94351972  1
  Se  Se155  1  0.08548514  0.91394990  0.44585569  1
  Se  Se156  1  0.07118008  0.92950095  0.94366256  1
  Se  Se157  1  0.42147994  0.25685883  0.43830801  1
  Se  Se158  1  0.41493986  0.24078546  0.95577713  1
  Se  Se159  1  0.41316610  0.59093356  0.44457895  1
  Se  Se160  1  0.41769334  0.58214546  0.93623491  1
  Se  Se161  1  0.44571513  0.89331553  0.44234386  1
  Se  Se162  1  0.41824397  0.91510264  0.94882541  1
  Se  Se163  1  0.75064889  0.25068676  0.44366523  1
  Se  Se164  1  0.74861875  0.24878542  0.94832911  1
  Se  Se165  1  0.75075317  0.57671544  0.44242019  1
  Se  Se166  1  0.75838436  0.58308550  0.95598013  1
  Se  Se167  1  0.74434641  0.92439536  0.43778368  1
  Se  Se168  1  0.73979581  0.92695918  0.94205150  1
  Se  Se169  1  0.25383870  0.08466538  0.44610960  1
  Se  Se170  1  0.25390250  0.07210017  0.93991230  1
  Se  Se171  1  0.25540076  0.41613900  0.44030545  1
  Se  Se172  1  0.25821400  0.41248140  0.94984438  1
  Se  Se173  1  0.24411729  0.75362133  0.45659459  1
  Se  Se174  1  0.25861279  0.74258500  0.93294832  1
  Se  Se175  1  0.58646037  0.09221535  0.44851525  1
  Se  Se176  1  0.57890725  0.08506314  0.94920207  1
  Se  Se177  1  0.57779615  0.40570794  0.42893050  1
  Se  Se178  1  0.59149450  0.40572518  0.93783865  1
  Se  Se179  1  0.58618940  0.74618827  0.44827406  1
  Se  Se180  1  0.58664038  0.75047871  0.94782106  1
  Se  Se181  1  0.91753502  0.08172085  0.44888923  1
  Se  Se182  1  0.90693160  0.09025844  0.94505774  1
  Se  Se183  1  0.91632950  0.41720504  0.44769467  1
  Se  Se184  1  0.91513499  0.42165578  0.94824889  1
  Se  Se185  1  0.92042542  0.74522925  0.43393869  1
  Se  Se186  1  0.92618142  0.74949565  0.94189198  1
  Se  Se187  1  0.25391064  0.25164054  0.30368579  1
  Se  Se188  1  0.24441922  0.24128353  0.80445390  1
  Se  Se189  1  0.24565804  0.57660357  0.31100979  1
  Se  Se190  1  0.26163154  0.58700629  0.80041311  1
  Se  Se191  1  0.25297062  0.91715399  0.31013239  1
  Se  Se192  1  0.24554230  0.90910437  0.81095952  1
  Se  Se193  1  0.60421944  0.25851154  0.29469849  1
  Se  Se194  1  0.57061597  0.23988512  0.81161345  1
  Se  Se195  1  0.58134136  0.58450592  0.30355690  1
  Se  Se196  1  0.57948214  0.57373723  0.81371588  1
  Se  Se197  1  0.57148056  0.91620868  0.31623647  1
  Se  Se198  1  0.57793901  0.92064918  0.79885217  1
  Se  Se199  1  0.91782424  0.24455638  0.31360442  1
  Se  Se200  1  0.90115740  0.24267794  0.80534757  1
  Se  Se201  1  0.92020236  0.58535873  0.29972674  1
  Se  Se202  1  0.92086150  0.58717767  0.80384672  1
  Se  Se203  1  0.91751843  0.91390241  0.30075628  1
  Se  Se204  1  0.92037733  0.92069155  0.80308398  1
  Se  Se205  1  0.08514795  0.08146315  0.30715907  1
  Se  Se206  1  0.07364072  0.08131397  0.79661390  1
  Se  Se207  1  0.09260627  0.42069304  0.31264288  1
  Se  Se208  1  0.08880723  0.42569777  0.80954659  1
  Se  Se209  1  0.08614241  0.74688905  0.30163672  1
  Se  Se210  1  0.08625616  0.74965141  0.79943299  1
  Se  Se211  1  0.41917733  0.08176930  0.30809876  1
  Se  Se212  1  0.41857746  0.08427825  0.81030757  1
  Se  Se213  1  0.41369727  0.41686164  0.29316217  1
  Se  Se214  1  0.41153680  0.40731144  0.80506249  1
  Se  Se215  1  0.40864281  0.75854010  0.31585876  1
  Se  Se216  1  0.42550968  0.75250077  0.79554851  1
  Se  Se217  1  0.75745622  0.08726533  0.31023432  1
  Se  Se218  1  0.74096344  0.07969966  0.80397806  1
  Se  Se219  1  0.75494657  0.41783761  0.30171140  1
  Se  Se220  1  0.75612065  0.42162058  0.80779334  1
  Se  Se221  1  0.74416226  0.74568342  0.30176114  1
  Se  Se222  1  0.76011325  0.76089722  0.81671345  1
  Se  Se223  1  0.25671224  0.07833228  0.20150965  1
  Se  Se224  1  0.24126027  0.08902771  0.68412425  1
  Se  Se225  1  0.24936348  0.41776865  0.19587860  1
  Se  Se226  1  0.24774878  0.40392178  0.70653754  1
  Se  Se227  1  0.24261070  0.75915106  0.18900528  1
  Se  Se228  1  0.25341625  0.75258413  0.68714455  1
  Se  Se229  1  0.57738325  0.08841285  0.19076113  1
  Se  Se230  1  0.58146869  0.08132476  0.69074721  1
  Se  Se231  1  0.59089287  0.41213154  0.19710838  1
  Se  Se232  1  0.57001549  0.41979395  0.69264212  1
  Se  Se233  1  0.57507698  0.75116355  0.20422170  1
  Se  Se234  1  0.58279472  0.75481383  0.69162195  1
  Se  Se235  1  0.92934908  0.07726395  0.20269450  1
  Se  Se236  1  0.91403648  0.08058721  0.69585561  1
  Se  Se237  1  0.91544670  0.42156746  0.18564004  1
  Se  Se238  1  0.90921479  0.41647273  0.68891659  1
  Se  Se239  1  0.91807482  0.74834212  0.19854659  1
  Se  Se240  1  0.91986346  0.74753158  0.70056333  1
  Se  Se241  1  0.09488767  0.24106180  0.19183584  1
  Se  Se242  1  0.08268903  0.24378850  0.68471345  1
  Se  Se243  1  0.08078900  0.58577330  0.19667245  1
  Se  Se244  1  0.09156592  0.57210155  0.69392916  1
  Se  Se245  1  0.08296251  0.92036078  0.20059627  1
  Se  Se246  1  0.08921263  0.91779763  0.69283111  1
  Se  Se247  1  0.41319065  0.25368707  0.20370871  1
  Se  Se248  1  0.40942616  0.24372583  0.69490294  1
  Se  Se249  1  0.42386667  0.57595136  0.18633484  1
  Se  Se250  1  0.41387040  0.58382501  0.70470074  1
  Se  Se251  1  0.41215017  0.91679534  0.19605755  1
  Se  Se252  1  0.42019490  0.91282512  0.68449882  1
  Se  Se253  1  0.76708741  0.24146369  0.19719833  1
  Se  Se254  1  0.74825208  0.24347522  0.68577443  1
  Se  Se255  1  0.74776229  0.58487063  0.19675428  1
  Se  Se256  1  0.75404902  0.57761972  0.69095708  1
  Se  Se257  1  0.75316639  0.90917113  0.19121618  1
  Se  Se258  1  0.74930113  0.91722913  0.70095307  1
