# generated using pymatgen
data_In86Cu29Se144
_symmetry_space_group_name_H-M   'P 1'
_cell_length_a   17.57367619
_cell_length_b   17.57308703
_cell_length_c   23.43727326
_cell_angle_alpha   90.03077925
_cell_angle_beta   90.00845973
_cell_angle_gamma   90.00746505
_symmetry_Int_Tables_number   1
_chemical_formula_structural   In86Cu29Se144
_chemical_formula_sum   'In86 Cu29 Se144'
_cell_volume   7237.98522448
_cell_formula_units_Z   1
loop_
 _symmetry_equiv_pos_site_id
 _symmetry_equiv_pos_as_xyz
  1  'x, y, z'
loop_
 _atom_site_type_symbol
 _atom_site_label
 _atom_site_symmetry_multiplicity
 _atom_site_fract_x
 _atom_site_fract_y
 _atom_site_fract_z
 _atom_site_occupancy
  In  In0  1  0.02075119  0.18267035  0.11504911  1
  In  In1  1  0.00255611  0.16731331  0.62433956  1
  In  In2  1  -0.00483318  0.49511088  0.11398217  1
  In  In3  1  0.00813876  0.47671620  0.64460068  1
  In  In4  1  -0.00052480  0.82975868  0.12256485  1
  In  In5  1  -0.00453951  0.84156643  0.62996510  1
  In  In6  1  0.31555390  0.17591530  0.14260635  1
  In  In7  1  0.32930741  0.16555711  0.62447953  1
  In  In8  1  0.31401887  0.50298234  0.11692849  1
  In  In9  1  0.31948569  0.51025248  0.63068405  1
  In  In10  1  0.35397017  0.83085146  0.12334766  1
  In  In11  1  0.33413422  0.83132853  0.62515851  1
  In  In12  1  0.66655641  0.15621639  0.12801638  1
  In  In13  1  0.66017090  0.15628437  0.61292679  1
  In  In14  1  0.68002515  0.49784145  0.12801457  1
  In  In15  1  0.66825330  0.51096243  0.62844761  1
  In  In16  1  0.64441167  0.84888236  0.14259570  1
  In  In17  1  0.66835731  0.83726700  0.61535441  1
  In  In18  1  0.18650605  0.01766880  0.37084472  1
  In  In19  1  0.17410767  0.00509573  0.86693338  1
  In  In20  1  0.16966614  0.32905935  0.38017107  1
  In  In21  1  0.16370045  0.33210706  0.87416035  1
  In  In22  1  0.15678945  0.66019939  0.38035369  1
  In  In23  1  0.15862366  0.65384570  0.86820789  1
  In  In24  1  0.49938605  -0.00376305  0.37905877  1
  In  In25  1  0.48217463  -0.00105704  0.87586453  1
  In  In26  1  0.45402677  0.32561339  0.36276156  1
  In  In27  1  0.49408496  0.34180308  0.87408595  1
  In  In28  1  0.51051179  0.66660722  0.36795428  1
  In  In29  1  0.50326305  0.68131166  0.87745520  1
  In  In30  1  0.82338522  0.00436260  0.37761958  1
  In  In31  1  0.84952017  -0.00117555  0.87267155  1
  In  In32  1  0.83411361  0.31726572  0.37430220  1
  In  In33  1  0.84615761  0.32971756  0.87664367  1
  In  In34  1  0.82902479  0.67769619  0.37887334  1
  In  In35  1  0.84829145  0.65370246  0.88595277  1
  In  In36  1  -0.00355792  0.17235261  0.37711648  1
  In  In37  1  0.00174040  0.16886758  0.87255761  1
  In  In38  1  0.01743950  0.49415882  0.37751558  1
  In  In39  1  0.00582694  0.50229836  0.87660843  1
  In  In40  1  -0.00406073  0.82170584  0.38241019  1
  In  In41  1  0.00474984  0.83390550  0.86473669  1
  In  In42  1  0.33509574  0.16845848  0.38831646  1
  In  In43  1  0.31913179  0.15950422  0.86803569  1
  In  In44  1  0.32867973  0.47725850  0.37170591  1
  In  In45  1  0.32188466  0.49030536  0.86779392  1
  In  In46  1  0.34258496  0.85260464  0.37394771  1
  In  In47  1  0.33852671  0.84108991  0.86991853  1
  In  In48  1  0.67468356  0.15559123  0.37908668  1
  In  In49  1  0.67128645  0.17802888  0.87857772  1
  In  In50  1  0.65258621  0.50829265  0.36600397  1
  In  In51  1  0.67183022  0.51564077  0.88161601  1
  In  In52  1  0.65967268  0.83620128  0.37315522  1
  In  In53  1  0.65903384  0.82343355  0.88068608  1
  In  In54  1  0.16973592  0.01550871  0.12819712  1
  In  In55  1  0.16183369  0.00634123  0.62691824  1
  In  In56  1  0.16380502  0.32945202  0.12478106  1
  In  In57  1  0.16533800  0.33233792  0.62617978  1
  In  In58  1  0.18151601  0.65125951  0.11359643  1
  In  In59  1  0.17092006  0.65847941  0.62993196  1
  In  In60  1  0.49534098  -0.00030623  0.13726077  1
  In  In61  1  0.48298559  -0.01045078  0.60570881  1
  In  In62  1  0.49813203  0.32073024  0.12981438  1
  In  In63  1  0.49105871  0.31706554  0.61953587  1
  In  In64  1  0.49132977  0.68917108  0.12527007  1
  In  In65  1  0.48660305  0.67016731  0.62253662  1
  In  In66  1  0.82124015  -0.00009414  0.12741245  1
  In  In67  1  0.84358192  0.00680900  0.61670438  1
  In  In68  1  0.85293481  0.34322387  0.11898556  1
  In  In69  1  0.84688344  0.32870807  0.62810340  1
  In  In70  1  0.82897884  0.65421554  0.12090529  1
  In  In71  1  0.83154754  0.67275316  0.63012759  1
  In  In72  1  0.49836591  0.50187456  0.00120268  1
  In  In73  1  0.66564868  0.33690481  0.75159348  1
  In  In74  1  0.49846831  0.16090643  0.00874425  1
  In  In75  1  0.66519468  0.00063195  0.73944318  1
  In  In76  1  0.66642145  0.32909280  0.25228223  1
  In  In77  1  0.16858060  0.82598798  -0.00475173  1
  In  In78  1  0.16661472  0.84328764  0.50041019  1
  In  In79  1  0.83091242  0.83437452  -0.00252746  1
  In  In80  1  0.67249243  0.66858631  0.75378513  1
  In  In81  1  0.49405022  0.49748813  0.48592645  1
  In  In82  1  0.33585873  0.66470994  0.24602275  1
  In  In83  1  -0.00167820  0.01014205  0.25878943  1
  In  In84  1  -0.00565251  0.66051828  0.24275828  1
  In  In85  1  0.83614930  0.49609198  0.50925398  1
  Cu  Cu86  1  0.49618930  0.83713274  0.74696022  1
  Cu  Cu87  1  0.48960975  0.49793552  0.74770276  1
  Cu  Cu88  1  0.84230231  0.49705425  0.24652467  1
  Cu  Cu89  1  0.32560363  0.33383179  0.50328112  1
  Cu  Cu90  1  0.49427218  0.16215762  0.25807378  1
  Cu  Cu91  1  -0.00053037  0.66237014  0.50500296  1
  Cu  Cu92  1  0.48386505  0.16555555  0.74656004  1
  Cu  Cu93  1  0.81867168  0.83518982  0.25418605  1
  Cu  Cu94  1  0.33244907  -0.00436052  -0.00002842  1
  Cu  Cu95  1  0.16409326  0.49600850  0.75206857  1
  Cu  Cu96  1  0.66690035  -0.00634288  0.49474749  1
  Cu  Cu97  1  0.00475668  0.32938612  0.50458476  1
  Cu  Cu98  1  0.68568766  0.33760062  0.00139072  1
  Cu  Cu99  1  0.66417099  0.67062988  0.49657698  1
  Cu  Cu100  1  0.17276104  0.83075326  0.74747226  1
  Cu  Cu101  1  -0.00107889  0.00121819  0.50020645  1
  Cu  Cu102  1  0.66731259  0.33035023  0.49345006  1
  Cu  Cu103  1  0.83541321  0.16407309  0.74675347  1
  Cu  Cu104  1  0.00417938  0.33229593  -0.00457300  1
  Cu  Cu105  1  0.66457896  0.67521822  0.00691621  1
  Cu  Cu106  1  0.16729334  0.83539992  0.24771393  1
  Cu  Cu107  1  0.16859387  0.48643867  0.24865132  1
  Cu  Cu108  1  0.32753379  0.32305625  -0.00010296  1
  Cu  Cu109  1  0.33269486  0.67127389  0.50053973  1
  Cu  Cu110  1  0.84274646  0.17015046  0.24846812  1
  Cu  Cu111  1  0.00225727  0.01121585  -0.00268908  1
  Cu  Cu112  1  0.16254944  0.17153169  0.74774714  1
  Cu  Cu113  1  0.84424325  0.83038669  0.75109491  1
  Cu  Cu114  1  0.66218538  0.00027273  0.00851794  1
  Se  Se115  1  0.09271539  0.08585737  0.04991859  1
  Se  Se116  1  0.08241228  0.08378409  0.55319951  1
  Se  Se117  1  0.08730616  0.41326506  0.05238579  1
  Se  Se118  1  0.08045224  0.41881229  0.55858771  1
  Se  Se119  1  0.07792314  0.73812095  0.05773362  1
  Se  Se120  1  0.08166931  0.74771487  0.56096287  1
  Se  Se121  1  0.40200507  0.07885661  0.06634007  1
  Se  Se122  1  0.43239427  0.10858804  0.55654778  1
  Se  Se123  1  0.41255989  0.40217967  0.05775472  1
  Se  Se124  1  0.40922866  0.41951472  0.55945078  1
  Se  Se125  1  0.39790451  0.73391283  0.04815616  1
  Se  Se126  1  0.41663919  0.75568247  0.54980674  1
  Se  Se127  1  0.75051931  0.08526433  0.05314752  1
  Se  Se128  1  0.75086956  0.07763277  0.54871793  1
  Se  Se129  1  0.76289632  0.42536696  0.05439865  1
  Se  Se130  1  0.73784867  0.40642937  0.56331597  1
  Se  Se131  1  0.74174201  0.75880373  0.06763660  1
  Se  Se132  1  0.75082867  0.74445085  0.55443689  1
  Se  Se133  1  0.24828062  0.24165420  0.05738009  1
  Se  Se134  1  0.24382077  0.24835156  0.55550210  1
  Se  Se135  1  0.24583157  0.57186681  0.03473274  1
  Se  Se136  1  0.24919678  0.58666587  0.55159529  1
  Se  Se137  1  0.25030337  0.91702153  0.06157087  1
  Se  Se138  1  0.25869628  0.93000319  0.55831992  1
  Se  Se139  1  0.59776308  0.25852657  0.05708718  1
  Se  Se140  1  0.58326506  0.25071631  0.54956991  1
  Se  Se141  1  0.58816519  0.58761008  0.06455263  1
  Se  Se142  1  0.58287663  0.58689807  0.55400858  1
  Se  Se143  1  0.57541319  0.92226887  0.06140298  1
  Se  Se144  1  0.58088623  0.91097478  0.54653416  1
  Se  Se145  1  0.92019183  0.24844632  0.05019199  1
  Se  Se146  1  0.91563530  0.24634151  0.55304327  1
  Se  Se147  1  0.92472952  0.59510476  0.05290710  1
  Se  Se148  1  0.92590685  0.58254651  0.56979733  1
  Se  Se149  1  0.92393429  0.92825130  0.05696111  1
  Se  Se150  1  0.91854705  0.91234554  0.55103249  1
  Se  Se151  1  0.08464090  0.24642373  0.44787829  1
  Se  Se152  1  0.08661270  0.24532650  0.94434588  1
  Se  Se153  1  0.08383665  0.57843903  0.45410817  1
  Se  Se154  1  0.09430991  0.57613041  0.94760260  1
  Se  Se155  1  0.07844681  0.92767710  0.43360683  1
  Se  Se156  1  0.07940027  0.92407585  0.93936732  1
  Se  Se157  1  0.42075165  0.25631286  0.45587151  1
  Se  Se158  1  0.41441197  0.24812890  0.94074845  1
  Se  Se159  1  0.40294308  0.59223436  0.43145040  1
  Se  Se160  1  0.41506432  0.58182587  0.93210305  1
  Se  Se161  1  0.41540951  0.92101520  0.45246547  1
  Se  Se162  1  0.41747672  0.91161443  0.95013466  1
  Se  Se163  1  0.75463251  0.24354161  0.44800038  1
  Se  Se164  1  0.76056169  0.24883348  0.94703333  1
  Se  Se165  1  0.74321338  0.58034896  0.44352888  1
  Se  Se166  1  0.74995383  0.59193071  0.95559390  1
  Se  Se167  1  0.75218683  0.90907139  0.44364736  1
  Se  Se168  1  0.74033464  0.92852777  0.93867002  1
  Se  Se169  1  0.24825550  0.08657285  0.45451703  1
  Se  Se170  1  0.25042368  0.07889890  0.94544812  1
  Se  Se171  1  0.24382381  0.42114478  0.45125906  1
  Se  Se172  1  0.25162153  0.41019271  0.94460025  1
  Se  Se173  1  0.25208538  0.74982885  0.43693267  1
  Se  Se174  1  0.25532157  0.74310966  0.93066827  1
  Se  Se175  1  0.58408359  0.08300967  0.44695167  1
  Se  Se176  1  0.58682897  0.07745904  0.93977651  1
  Se  Se177  1  0.58696905  0.40542334  0.43163315  1
  Se  Se178  1  0.59537028  0.40981409  0.94312587  1
  Se  Se179  1  0.57859636  0.75009947  0.44349997  1
  Se  Se180  1  0.57671099  0.75610612  0.95661721  1
  Se  Se181  1  0.91607365  0.08216769  0.44212508  1
  Se  Se182  1  0.91453806  0.08907994  0.94399044  1
  Se  Se183  1  0.92206134  0.40888596  0.44296097  1
  Se  Se184  1  0.91985149  0.41887578  0.94580056  1
  Se  Se185  1  0.91417432  0.74561614  0.45440861  1
  Se  Se186  1  0.93301069  0.75168498  0.94514505  1
  Se  Se187  1  0.28432451  0.27683677  0.32062080  1
  Se  Se188  1  0.24803831  0.25323942  0.80181446  1
  Se  Se189  1  0.24004646  0.57724644  0.30769643  1
  Se  Se190  1  0.25158597  0.58278114  0.79866619  1
  Se  Se191  1  0.24728369  0.91631512  0.30397612  1
  Se  Se192  1  0.25415740  0.91831613  0.79953604  1
  Se  Se193  1  0.57560438  0.24590631  0.31672258  1
  Se  Se194  1  0.57047669  0.24047840  0.80643116  1
  Se  Se195  1  0.58035809  0.58611980  0.29200707  1
  Se  Se196  1  0.57344955  0.57630289  0.80740102  1
  Se  Se197  1  0.58920558  0.92929342  0.30609972  1
  Se  Se198  1  0.58039326  0.91287327  0.80800865  1
  Se  Se199  1  0.92389823  0.25482628  0.30053107  1
  Se  Se200  1  0.91659156  0.24822109  0.80085272  1
  Se  Se201  1  0.91360039  0.57638310  0.31614893  1
  Se  Se202  1  0.92407363  0.58850586  0.80809485  1
  Se  Se203  1  0.91184520  0.90595034  0.31105910  1
  Se  Se204  1  0.92494522  0.92243775  0.79800781  1
  Se  Se205  1  0.09647463  0.10272163  0.30591328  1
  Se  Se206  1  0.08279676  0.08455632  0.80279746  1
  Se  Se207  1  0.08610976  0.40719689  0.30554635  1
  Se  Se208  1  0.07993751  0.41335644  0.80509435  1
  Se  Se209  1  0.08644798  0.75271480  0.30448732  1
  Se  Se210  1  0.08763595  0.74857679  0.80000008  1
  Se  Se211  1  0.41142434  0.08395346  0.31511052  1
  Se  Se212  1  0.40823127  0.07804860  0.80197731  1
  Se  Se213  1  0.43702416  0.44491758  0.30169057  1
  Se  Se214  1  0.41096896  0.40984992  0.79981066  1
  Se  Se215  1  0.42075831  0.75842269  0.30583361  1
  Se  Se216  1  0.41969363  0.75091032  0.80279886  1
  Se  Se217  1  0.75651413  0.08847809  0.30068661  1
  Se  Se218  1  0.75144014  0.08768456  0.80721923  1
  Se  Se219  1  0.75931550  0.42220641  0.31081763  1
  Se  Se220  1  0.75176670  0.42374628  0.81517844  1
  Se  Se221  1  0.74245589  0.74513844  0.30642980  1
  Se  Se222  1  0.76332198  0.75741377  0.81584897  1
  Se  Se223  1  0.25606036  0.07125262  0.20543057  1
  Se  Se224  1  0.24686690  0.08602568  0.69630226  1
  Se  Se225  1  0.25469319  0.41185166  0.19149671  1
  Se  Se226  1  0.24848454  0.41521461  0.69631809  1
  Se  Se227  1  0.24095303  0.75302666  0.18567504  1
  Se  Se228  1  0.25520715  0.74650092  0.69396388  1
  Se  Se229  1  0.58121676  0.08753520  0.20101834  1
  Se  Se230  1  0.56722784  0.08779272  0.68698341  1
  Se  Se231  1  0.57966706  0.41912248  0.19031455  1
  Se  Se232  1  0.57271493  0.42197523  0.68669201  1
  Se  Se233  1  0.58628812  0.73873583  0.19998702  1
  Se  Se234  1  0.58167326  0.75654989  0.69029784  1
  Se  Se235  1  0.91775574  0.08915285  0.18459416  1
  Se  Se236  1  0.91927934  0.08101984  0.69335108  1
  Se  Se237  1  0.92944896  0.41787986  0.19568419  1
  Se  Se238  1  0.90381851  0.41305544  0.70524975  1
  Se  Se239  1  0.90139882  0.76005573  0.19182379  1
  Se  Se240  1  0.92414966  0.74556453  0.69721071  1
  Se  Se241  1  0.08928093  0.24572742  0.19814688  1
  Se  Se242  1  0.07734434  0.25426743  0.69547857  1
  Se  Se243  1  0.09374909  0.57443466  0.18919491  1
  Se  Se244  1  0.08220628  0.58289232  0.69904260  1
  Se  Se245  1  0.08150549  0.91489967  0.19239418  1
  Se  Se246  1  0.08803975  0.91581240  0.69580503  1
  Se  Se247  1  0.41623143  0.24959792  0.20335206  1
  Se  Se248  1  0.40579621  0.25575259  0.69633355  1
  Se  Se249  1  0.41778701  0.57562378  0.18005411  1
  Se  Se250  1  0.41356203  0.58815648  0.69540861  1
  Se  Se251  1  0.41239387  0.91290004  0.20149645  1
  Se  Se252  1  0.41743825  0.92048044  0.69074331  1
  Se  Se253  1  0.76100436  0.24956937  0.18687332  1
  Se  Se254  1  0.74569628  0.23793488  0.68905921  1
  Se  Se255  1  0.75536319  0.58249093  0.20041010  1
  Se  Se256  1  0.76375696  0.57180324  0.70123490  1
  Se  Se257  1  0.74309163  0.92628133  0.20256370  1
  Se  Se258  1  0.76188103  0.90688946  0.68932891  1
