# generated using pymatgen
data_In86Cu29Se144
_symmetry_space_group_name_H-M   'P 1'
_cell_length_a   17.66804079
_cell_length_b   17.67563433
_cell_length_c   23.53674991
_cell_angle_alpha   90.02579123
_cell_angle_beta   90.00495580
_cell_angle_gamma   89.99033067
_symmetry_Int_Tables_number   1
_chemical_formula_structural   In86Cu29Se144
_chemical_formula_sum   'In86 Cu29 Se144'
_cell_volume   7350.38085714
_cell_formula_units_Z   1
loop_
 _symmetry_equiv_pos_site_id
 _symmetry_equiv_pos_as_xyz
  1  'x, y, z'
loop_
 _atom_site_type_symbol
 _atom_site_label
 _atom_site_symmetry_multiplicity
 _atom_site_fract_x
 _atom_site_fract_y
 _atom_site_fract_z
 _atom_site_occupancy
  In  In0  1  -0.01373172  0.17615423  0.13698233  1
  In  In1  1  -0.00289072  0.17203467  0.61516084  1
  In  In2  1  -0.02379998  0.51227343  0.15332830  1
  In  In3  1  0.00252896  0.48968686  0.63051437  1
  In  In4  1  -0.00768060  0.83487319  0.12935051  1
  In  In5  1  -0.03989652  0.86636598  0.65198075  1
  In  In6  1  0.32309867  0.16500884  0.12733253  1
  In  In7  1  0.34964685  0.18672049  0.61099736  1
  In  In8  1  0.34053770  0.49530214  0.12006733  1
  In  In9  1  0.32051784  0.49235318  0.62228642  1
  In  In10  1  0.34769334  0.83174606  0.12718258  1
  In  In11  1  0.33330033  0.84663473  0.62537514  1
  In  In12  1  0.67225243  0.15287133  0.12794237  1
  In  In13  1  0.66295135  0.16992493  0.62524765  1
  In  In14  1  0.67292970  0.50269384  0.11350928  1
  In  In15  1  0.65163780  0.49289356  0.62003196  1
  In  In16  1  0.67887263  0.84187770  0.11849128  1
  In  In17  1  0.67982001  0.83538485  0.62612544  1
  In  In18  1  0.17268763  0.00963872  0.37025142  1
  In  In19  1  0.16177885  0.00929427  0.87395393  1
  In  In20  1  0.16583271  0.33759119  0.38480079  1
  In  In21  1  0.16050999  0.33214419  0.86294561  1
  In  In22  1  0.15154505  0.66017699  0.37473491  1
  In  In23  1  0.15638673  0.67204001  0.87502457  1
  In  In24  1  0.52376338  0.02998351  0.36468578  1
  In  In25  1  0.51016662  -0.01107193  0.87327064  1
  In  In26  1  0.56048834  0.28635120  0.42542755  1
  In  In27  1  0.52285494  0.33476118  0.84876922  1
  In  In28  1  0.49849276  0.65852751  0.37655486  1
  In  In29  1  0.50622134  0.67136741  0.87857764  1
  In  In30  1  0.83534143  -0.00377680  0.37540483  1
  In  In31  1  0.83817033  -0.00186332  0.87706585  1
  In  In32  1  0.82984913  0.32002243  0.37623693  1
  In  In33  1  0.83418887  0.32994182  0.86911677  1
  In  In34  1  0.84893589  0.66685015  0.37144106  1
  In  In35  1  0.84033899  0.66249052  0.88252167  1
  In  In36  1  0.00247487  0.16612728  0.37650785  1
  In  In37  1  -0.01141622  0.15370179  0.86484116  1
  In  In38  1  0.00294676  0.50850479  0.37153587  1
  In  In39  1  -0.00804396  0.49505048  0.87054079  1
  In  In40  1  -0.01225757  0.82770921  0.36931411  1
  In  In41  1  -0.02178467  0.81562757  0.85476816  1
  In  In42  1  0.34472925  0.16387591  0.38256267  1
  In  In43  1  0.32345510  0.17221035  0.87135196  1
  In  In44  1  0.35013891  0.48351244  0.38181610  1
  In  In45  1  0.34983598  0.49806667  0.87335138  1
  In  In46  1  0.32479224  0.83881741  0.37515515  1
  In  In47  1  0.34485012  0.84310457  0.87776131  1
  In  In48  1  0.70739085  0.12297645  0.43580146  1
  In  In49  1  0.67774838  0.17403171  0.85998719  1
  In  In50  1  0.66532371  0.48358914  0.37732017  1
  In  In51  1  0.67677442  0.49398791  0.87686874  1
  In  In52  1  0.66910455  0.85068355  0.38014146  1
  In  In53  1  0.66834714  0.84333123  0.87885533  1
  In  In54  1  0.16272821  0.00103070  0.13395399  1
  In  In55  1  0.15166523  0.00371767  0.62163086  1
  In  In56  1  0.16016235  0.32328072  0.12467755  1
  In  In57  1  0.16560871  0.33352241  0.62183674  1
  In  In58  1  0.15439005  0.65699610  0.12706833  1
  In  In59  1  0.15712037  0.65762762  0.62225436  1
  In  In60  1  0.51160878  -0.00794292  0.13298665  1
  In  In61  1  0.50704768  0.01545336  0.63196357  1
  In  In62  1  0.49974893  0.34242295  0.11685836  1
  In  In63  1  0.49333968  0.32646586  0.63209243  1
  In  In64  1  0.50940081  0.66888895  0.11629059  1
  In  In65  1  0.51042344  0.66612962  0.62557359  1
  In  In66  1  0.83336827  0.00162693  0.12629515  1
  In  In67  1  0.83007406  0.00738455  0.61732349  1
  In  In68  1  0.84071862  0.33688673  0.11419027  1
  In  In69  1  0.83792235  0.32771766  0.62320710  1
  In  In70  1  0.83912915  0.66594952  0.11944251  1
  In  In71  1  0.83272247  0.68058362  0.62791532  1
  In  In72  1  0.32935814  0.66570064  0.75814695  1
  In  In73  1  0.32999173  0.00508673  0.74201037  1
  In  In74  1  0.67253062  0.66945485  0.75189285  1
  In  In75  1  0.50476052  0.17129893  -0.00594402  1
  In  In76  1  0.16303742  0.16746523  0.00233305  1
  In  In77  1  0.82711119  0.50008261  0.50003480  1
  In  In78  1  0.66732865  0.32415648  0.25860829  1
  In  In79  1  0.15985708  0.49904362  0.00275894  1
  In  In80  1  0.15271025  0.82309921  0.49483892  1
  In  In81  1  0.67284388  0.67150449  0.23885958  1
  In  In82  1  0.49925266  0.84134818  0.50561624  1
  In  In83  1  0.32652464  0.66922796  0.24986160  1
  In  In84  1  0.33442824  0.33385621  0.25030210  1
  In  In85  1  0.15989959  0.83702007  0.00605542  1
  Cu  Cu86  1  0.66746509  0.66564422  -0.00362219  1
  Cu  Cu87  1  -0.00570261  -0.00108288  0.00066221  1
  Cu  Cu88  1  0.49849571  0.16242465  0.25254480  1
  Cu  Cu89  1  0.16029792  0.49678324  0.74535654  1
  Cu  Cu90  1  0.16547245  0.16426908  0.25323082  1
  Cu  Cu91  1  0.16324893  0.17311844  0.74163316  1
  Cu  Cu92  1  0.82652532  0.49534635  0.75090418  1
  Cu  Cu93  1  -0.00038965  0.33327798  0.50197344  1
  Cu  Cu94  1  0.33024499  -0.00030083  0.49543685  1
  Cu  Cu95  1  0.49863070  0.84659099  0.25208720  1
  Cu  Cu96  1  -0.00163822  0.66568910  0.50063388  1
  Cu  Cu97  1  0.16428113  0.49672192  0.25644683  1
  Cu  Cu98  1  -0.00182392  0.00058491  0.50116699  1
  Cu  Cu99  1  0.83666352  0.16532570  0.74396419  1
  Cu  Cu100  1  -0.00539276  0.33064131  -0.00279972  1
  Cu  Cu101  1  0.50245770  0.49701668  0.24933109  1
  Cu  Cu102  1  0.34710379  -0.00222658  0.00396824  1
  Cu  Cu103  1  0.82696971  0.15886687  0.26144204  1
  Cu  Cu104  1  0.33391962  0.33675340  0.50357648  1
  Cu  Cu105  1  0.33313628  0.65656277  0.50230730  1
  Cu  Cu106  1  0.33948933  0.67408507  -0.00212844  1
  Cu  Cu107  1  0.34314124  0.34369900  -0.00835647  1
  Cu  Cu108  1  0.66566362  0.66537134  0.50317773  1
  Cu  Cu109  1  0.67463134  0.00181044  0.00103088  1
  Cu  Cu110  1  0.66815599  0.33415358  -0.01138820  1
  Cu  Cu111  1  0.16365712  0.83146099  0.74869241  1
  Cu  Cu112  1  0.82877842  0.83826563  0.24710119  1
  Cu  Cu113  1  0.15984186  0.83745700  0.25403627  1
  Cu  Cu114  1  0.49759871  0.49604938  0.74567249  1
  Se  Se115  1  0.07382153  0.07942222  0.06267169  1
  Se  Se116  1  0.08297596  0.08701245  0.54786219  1
  Se  Se117  1  0.07292518  0.40747552  0.06060384  1
  Se  Se118  1  0.08124073  0.41851120  0.55396927  1
  Se  Se119  1  0.07177099  0.74009165  0.05834859  1
  Se  Se120  1  0.06712914  0.74993198  0.56555507  1
  Se  Se121  1  0.41920955  0.08556488  0.06233668  1
  Se  Se122  1  0.41023429  0.07137318  0.55966597  1
  Se  Se123  1  0.42408646  0.42627005  0.04569789  1
  Se  Se124  1  0.41588859  0.41521445  0.56197960  1
  Se  Se125  1  0.42247777  0.75401381  0.05319545  1
  Se  Se126  1  0.40664348  0.74432004  0.56082883  1
  Se  Se127  1  0.75619667  0.08628181  0.05351643  1
  Se  Se128  1  0.75187200  0.09774718  0.55262038  1
  Se  Se129  1  0.75005779  0.41284439  0.04811359  1
  Se  Se130  1  0.73909912  0.40681398  0.55534950  1
  Se  Se131  1  0.74899656  0.74469466  0.05503992  1
  Se  Se132  1  0.74987102  0.74895514  0.55260120  1
  Se  Se133  1  0.26333723  0.26352423  0.05228412  1
  Se  Se134  1  0.24594714  0.25173266  0.55010680  1
  Se  Se135  1  0.25834698  0.59411229  0.05735809  1
  Se  Se136  1  0.24392789  0.58112023  0.55477872  1
  Se  Se137  1  0.25851314  0.92506432  0.06193580  1
  Se  Se138  1  0.24671404  0.91783887  0.55124950  1
  Se  Se139  1  0.59625896  0.25674675  0.05819650  1
  Se  Se140  1  0.57331641  0.24851390  0.55856848  1
  Se  Se141  1  0.58303541  0.58053983  0.04834781  1
  Se  Se142  1  0.57898868  0.58337146  0.55113102  1
  Se  Se143  1  0.58744537  0.92178253  0.05442502  1
  Se  Se144  1  0.59253273  0.92762934  0.56274592  1
  Se  Se145  1  0.91860171  0.24174932  0.05175355  1
  Se  Se146  1  0.90899762  0.24961989  0.54553980  1
  Se  Se147  1  0.92288616  0.57147701  0.06287914  1
  Se  Se148  1  0.91749186  0.58639540  0.56179645  1
  Se  Se149  1  0.91507262  0.91675007  0.05780030  1
  Se  Se150  1  0.91616295  0.91639504  0.55399672  1
  Se  Se151  1  0.08213741  0.24973663  0.44740936  1
  Se  Se152  1  0.07670917  0.25193896  0.93705426  1
  Se  Se153  1  0.08063064  0.57993559  0.45006265  1
  Se  Se154  1  0.07242936  0.58814112  0.94227509  1
  Se  Se155  1  0.07527029  0.92235705  0.43537309  1
  Se  Se156  1  0.07760167  0.92385064  0.94038785  1
  Se  Se157  1  0.41588352  0.25614172  0.44807842  1
  Se  Se158  1  0.41689555  0.25963569  0.93193226  1
  Se  Se159  1  0.41984505  0.58076313  0.44795574  1
  Se  Se160  1  0.41778983  0.58894644  0.94283855  1
  Se  Se161  1  0.41505532  0.92415810  0.43692198  1
  Se  Se162  1  0.42801203  0.91665118  0.94943172  1
  Se  Se163  1  0.72007054  0.27122253  0.44081318  1
  Se  Se164  1  0.75026692  0.24758693  0.93865015  1
  Se  Se165  1  0.74264196  0.59204834  0.43583506  1
  Se  Se166  1  0.75106936  0.58037818  0.94614232  1
  Se  Se167  1  0.75841659  0.91584138  0.44932672  1
  Se  Se168  1  0.75681856  0.91688532  0.94837137  1
  Se  Se169  1  0.24895441  0.08638496  0.44494349  1
  Se  Se170  1  0.26048815  0.07512853  0.94716668  1
  Se  Se171  1  0.25219753  0.42107268  0.44919631  1
  Se  Se172  1  0.24947932  0.41408629  0.93639794  1
  Se  Se173  1  0.25550968  0.73618113  0.44051676  1
  Se  Se174  1  0.25478419  0.75039939  0.94075020  1
  Se  Se175  1  0.56742244  0.08734687  0.45830247  1
  Se  Se176  1  0.59624121  0.08089593  0.93834260  1
  Se  Se177  1  0.56033723  0.43239407  0.43971920  1
  Se  Se178  1  0.58021125  0.40956610  0.93418637  1
  Se  Se179  1  0.58582742  0.74763940  0.44179178  1
  Se  Se180  1  0.58801933  0.75382621  0.94544957  1
  Se  Se181  1  0.91861756  0.08214690  0.44331634  1
  Se  Se182  1  0.91727155  0.08668900  0.94673364  1
  Se  Se183  1  0.91892925  0.41221737  0.44009891  1
  Se  Se184  1  0.91383704  0.41264956  0.94132830  1
  Se  Se185  1  0.91669570  0.74933075  0.44708730  1
  Se  Se186  1  0.92074291  0.75576689  0.94332541  1
  Se  Se187  1  0.24675718  0.24580355  0.31208481  1
  Se  Se188  1  0.24772836  0.25073579  0.79811538  1
  Se  Se189  1  0.25114140  0.57315985  0.31409916  1
  Se  Se190  1  0.23823652  0.57096782  0.81317786  1
  Se  Se191  1  0.24882483  0.91753299  0.30296067  1
  Se  Se192  1  0.24445115  0.91102614  0.80860096  1
  Se  Se193  1  0.57237944  0.24321041  0.31541557  1
  Se  Se194  1  0.57005296  0.21920603  0.79178171  1
  Se  Se195  1  0.58496226  0.58096413  0.30380456  1
  Se  Se196  1  0.57797199  0.57646765  0.80660544  1
  Se  Se197  1  0.58698542  0.92190876  0.30597705  1
  Se  Se198  1  0.59096305  0.91495816  0.80217944  1
  Se  Se199  1  0.91486345  0.24487969  0.30705824  1
  Se  Se200  1  0.91854367  0.24935878  0.79951740  1
  Se  Se201  1  0.91533429  0.57936739  0.30103494  1
  Se  Se202  1  0.90738408  0.57942825  0.80477667  1
  Se  Se203  1  0.91453605  0.91812324  0.30119282  1
  Se  Se204  1  0.93960846  0.94007765  0.80882062  1
  Se  Se205  1  0.07972957  0.08185268  0.30402777  1
  Se  Se206  1  0.08830397  0.08691491  0.79909490  1
  Se  Se207  1  0.08505109  0.41385799  0.31138459  1
  Se  Se208  1  0.07513352  0.41605699  0.80001291  1
  Se  Se209  1  0.08154702  0.74934631  0.30546144  1
  Se  Se210  1  0.08257721  0.74351208  0.79734133  1
  Se  Se211  1  0.41185534  0.08256530  0.30456084  1
  Se  Se212  1  0.41401477  0.08051041  0.81493603  1
  Se  Se213  1  0.43330887  0.40974969  0.30875902  1
  Se  Se214  1  0.41440555  0.41230935  0.79878223  1
  Se  Se215  1  0.42350037  0.75757572  0.30855226  1
  Se  Se216  1  0.42611950  0.75886968  0.80624083  1
  Se  Se217  1  0.74171553  0.09489617  0.32801297  1
  Se  Se218  1  0.76091572  0.08036696  0.80272859  1
  Se  Se219  1  0.76259000  0.42224452  0.30644242  1
  Se  Se220  1  0.74453202  0.41035344  0.80176077  1
  Se  Se221  1  0.75216048  0.75735895  0.31011856  1
  Se  Se222  1  0.75899522  0.75491148  0.81405629  1
  Se  Se223  1  0.25004873  0.08330059  0.19928114  1
  Se  Se224  1  0.24352448  0.09386887  0.68087753  1
  Se  Se225  1  0.24259320  0.42532998  0.18934983  1
  Se  Se226  1  0.24555607  0.41354373  0.69596605  1
  Se  Se227  1  0.23740386  0.75956747  0.18830550  1
  Se  Se228  1  0.24696158  0.75490786  0.68897567  1
  Se  Se229  1  0.58650131  0.08295640  0.20009644  1
  Se  Se230  1  0.58235016  0.09772398  0.70293283  1
  Se  Se231  1  0.58558404  0.41991198  0.18941426  1
  Se  Se232  1  0.58330531  0.41268852  0.69620989  1
  Se  Se233  1  0.57487560  0.76431565  0.18984342  1
  Se  Se234  1  0.58033271  0.75992546  0.69345345  1
  Se  Se235  1  0.91023494  0.08313160  0.20073670  1
  Se  Se236  1  0.91871327  0.08741453  0.68487779  1
  Se  Se237  1  0.92457944  0.38953061  0.19505070  1
  Se  Se238  1  0.91039529  0.41465091  0.69515242  1
  Se  Se239  1  0.90845692  0.75003323  0.19528666  1
  Se  Se240  1  0.91779625  0.74419883  0.70203538  1
  Se  Se241  1  0.08494969  0.24904557  0.19970341  1
  Se  Se242  1  0.07757487  0.25280447  0.68788249  1
  Se  Se243  1  0.08377753  0.58531834  0.20609216  1
  Se  Se244  1  0.07818487  0.58313274  0.69650427  1
  Se  Se245  1  0.07731198  0.91673705  0.19692778  1
  Se  Se246  1  0.08572814  0.91866424  0.69587616  1
  Se  Se247  1  0.42718372  0.24448880  0.18686806  1
  Se  Se248  1  0.40691481  0.24667565  0.69953138  1
  Se  Se249  1  0.42397303  0.58032750  0.19145115  1
  Se  Se250  1  0.41782030  0.58203941  0.69086976  1
  Se  Se251  1  0.41192795  0.92376122  0.19794564  1
  Se  Se252  1  0.42901833  0.91102080  0.69455194  1
  Se  Se253  1  0.75763160  0.24161347  0.19316437  1
  Se  Se254  1  0.75253796  0.24962135  0.69205904  1
  Se  Se255  1  0.75866122  0.57072939  0.18991462  1
  Se  Se256  1  0.75052377  0.57447196  0.68598566  1
  Se  Se257  1  0.74566132  0.92258727  0.19584262  1
  Se  Se258  1  0.77488708  0.90739772  0.68895431  1
