# generated using pymatgen
data_In86Cu29Se144
_symmetry_space_group_name_H-M   'P 1'
_cell_length_a   17.58158892
_cell_length_b   17.58544047
_cell_length_c   23.44279448
_cell_angle_alpha   90.01739587
_cell_angle_beta   89.99128015
_cell_angle_gamma   89.99899224
_symmetry_Int_Tables_number   1
_chemical_formula_structural   In86Cu29Se144
_chemical_formula_sum   'In86 Cu29 Se144'
_cell_volume   7248.04243023
_cell_formula_units_Z   1
loop_
 _symmetry_equiv_pos_site_id
 _symmetry_equiv_pos_as_xyz
  1  'x, y, z'
loop_
 _atom_site_type_symbol
 _atom_site_label
 _atom_site_symmetry_multiplicity
 _atom_site_fract_x
 _atom_site_fract_y
 _atom_site_fract_z
 _atom_site_occupancy
  In  In0  1  0.01662405  0.16877789  0.13064522  1
  In  In1  1  0.02210425  0.15877543  0.63806430  1
  In  In2  1  -0.00497607  0.49002606  0.11720877  1
  In  In3  1  -0.01138159  0.49931289  0.62374726  1
  In  In4  1  0.00334121  0.83302808  0.11563485  1
  In  In5  1  0.00621116  0.84418531  0.61719788  1
  In  In6  1  0.32627724  0.16185331  0.13255581  1
  In  In7  1  0.33254139  0.16753819  0.61337443  1
  In  In8  1  0.33646884  0.49898976  0.12593619  1
  In  In9  1  0.34527298  0.50510509  0.62121003  1
  In  In10  1  0.33343077  0.83190827  0.12836632  1
  In  In11  1  0.32984015  0.82662782  0.62542489  1
  In  In12  1  0.65774352  0.18984513  0.14467306  1
  In  In13  1  0.66292221  0.17710262  0.61760293  1
  In  In14  1  0.66330282  0.49943402  0.13002569  1
  In  In15  1  0.66701186  0.50345841  0.61510315  1
  In  In16  1  0.65126428  0.83639144  0.12916780  1
  In  In17  1  0.66704830  0.83220227  0.61626684  1
  In  In18  1  0.18347018  0.00091087  0.37135183  1
  In  In19  1  0.14394217  0.01562453  0.89738794  1
  In  In20  1  0.16327658  0.31702173  0.34982944  1
  In  In21  1  0.16381614  0.33111734  0.88170383  1
  In  In22  1  0.16613742  0.66102298  0.37147394  1
  In  In23  1  0.17806920  0.65486235  0.88382880  1
  In  In24  1  0.48744100  0.01138697  0.38163855  1
  In  In25  1  0.48761988  0.00776704  0.88845015  1
  In  In26  1  0.50105274  0.33145638  0.36505669  1
  In  In27  1  0.49250995  0.33679465  0.88953541  1
  In  In28  1  0.49825198  0.66107750  0.37379814  1
  In  In29  1  0.49005872  0.67448161  0.88690659  1
  In  In30  1  0.82664807  -0.00355798  0.38061456  1
  In  In31  1  0.84524535  -0.00609666  0.87048822  1
  In  In32  1  0.84289372  0.33868783  0.36248885  1
  In  In33  1  0.84679245  0.32786285  0.87829222  1
  In  In34  1  0.82228357  0.67545212  0.38471822  1
  In  In35  1  0.82224140  0.66169276  0.87676464  1
  In  In36  1  -0.00375100  0.17980666  0.37234153  1
  In  In37  1  0.00979519  0.16930971  0.86752865  1
  In  In38  1  0.00239403  0.48613585  0.37776496  1
  In  In39  1  0.00860267  0.48552016  0.88429885  1
  In  In40  1  -0.00683566  0.83149046  0.38577799  1
  In  In41  1  0.00795333  0.84782489  0.87360192  1
  In  In42  1  0.33691687  0.16679164  0.36443897  1
  In  In43  1  0.32787522  0.17051497  0.88540748  1
  In  In44  1  0.33695354  0.50839513  0.36427108  1
  In  In45  1  0.32763650  0.50420018  0.88492013  1
  In  In46  1  0.34342993  0.84484765  0.36719107  1
  In  In47  1  0.33392667  0.82951813  0.88162412  1
  In  In48  1  0.65210431  0.16750989  0.36377162  1
  In  In49  1  0.65485919  0.16489097  0.88047499  1
  In  In50  1  0.66193380  0.49779789  0.37121644  1
  In  In51  1  0.66368662  0.49868107  0.88843788  1
  In  In52  1  0.66857656  0.82065521  0.37869098  1
  In  In53  1  0.66376561  0.82511239  0.88008510  1
  In  In54  1  0.18276713  0.02215388  0.10962624  1
  In  In55  1  0.15464231  0.01003162  0.62604564  1
  In  In56  1  0.16718413  0.33028413  0.12867340  1
  In  In57  1  0.16904639  0.32119657  0.62306941  1
  In  In58  1  0.18018857  0.67394728  0.11740549  1
  In  In59  1  0.17358437  0.67986748  0.63138518  1
  In  In60  1  0.49157916  -0.01010901  0.12331595  1
  In  In61  1  0.50100313  0.00319406  0.61611471  1
  In  In62  1  0.48915960  0.32835926  0.13389339  1
  In  In63  1  0.49727893  0.33723452  0.60943448  1
  In  In64  1  0.49977749  0.66685753  0.13002710  1
  In  In65  1  0.49546539  0.66597499  0.61858745  1
  In  In66  1  0.84039134  0.00289966  0.12116224  1
  In  In67  1  0.85931035  0.00635971  0.61342011  1
  In  In68  1  0.82260088  0.34158212  0.13897587  1
  In  In69  1  0.84163364  0.34418863  0.61992607  1
  In  In70  1  0.83645710  0.65078919  0.12716223  1
  In  In71  1  0.83836229  0.66096233  0.60842055  1
  In  In72  1  0.32630863  -0.00277319  0.74986352  1
  In  In73  1  0.67038434  0.33663352  0.74248199  1
  In  In74  1  0.67044248  -0.00174174  0.75203168  1
  In  In75  1  -0.00103547  0.66234026  0.25193390  1
  In  In76  1  0.32669770  0.33482561  0.75672222  1
  In  In77  1  0.00271773  0.66407558  0.74794791  1
  In  In78  1  0.16776974  0.83940590  0.50448343  1
  In  In79  1  0.66208414  -0.00036838  0.25514259  1
  In  In80  1  0.83244068  0.83001094  -0.00581635  1
  In  In81  1  0.17176754  0.49575962  0.48918039  1
  In  In82  1  0.66946419  0.66470009  0.75089729  1
  In  In83  1  0.83156493  0.16945583  0.49386389  1
  In  In84  1  0.82749274  0.17054849  0.00411882  1
  In  In85  1  0.00761348  0.00478025  0.24750754  1
  Cu  Cu86  1  0.33352239  0.32664068  0.01044155  1
  Cu  Cu87  1  0.49677472  0.82760505  0.25226943  1
  Cu  Cu88  1  0.65644260  0.65847203  0.49491516  1
  Cu  Cu89  1  0.33703093  0.67122867  0.49612953  1
  Cu  Cu90  1  0.00423394  0.65966264  -0.00057189  1
  Cu  Cu91  1  0.84324677  0.84222491  0.74185859  1
  Cu  Cu92  1  0.66018167  0.33446392  0.49190544  1
  Cu  Cu93  1  0.50200570  0.50058269  0.24763653  1
  Cu  Cu94  1  0.49713362  0.51070486  0.74816508  1
  Cu  Cu95  1  0.49738028  0.83020177  0.75780918  1
  Cu  Cu96  1  0.33984507  0.00737049  0.49313350  1
  Cu  Cu97  1  0.16733336  0.50352447  0.24547782  1
  Cu  Cu98  1  0.65924544  0.00627843  0.00497405  1
  Cu  Cu99  1  0.82967011  0.82969109  0.25466122  1
  Cu  Cu100  1  0.33327773  -0.00681880  0.00593172  1
  Cu  Cu101  1  0.66486444  0.66391772  0.00654236  1
  Cu  Cu102  1  0.33943120  0.66321082  0.00647780  1
  Cu  Cu103  1  0.49614713  0.17473946  0.74823349  1
  Cu  Cu104  1  0.17297111  0.83480308  0.75384214  1
  Cu  Cu105  1  -0.00086621  0.33060695  0.00345243  1
  Cu  Cu106  1  0.17028777  0.83269300  0.24404013  1
  Cu  Cu107  1  0.66123249  0.33928005  0.01477349  1
  Cu  Cu108  1  0.66447698  -0.00689336  0.49336192  1
  Cu  Cu109  1  0.17052364  0.49673670  0.75914431  1
  Cu  Cu110  1  0.00277569  0.32931566  0.49361383  1
  Cu  Cu111  1  0.84643067  0.16409154  0.74968804  1
  Cu  Cu112  1  0.83945821  0.49308642  0.75027844  1
  Cu  Cu113  1  0.33519226  0.32892128  0.48825437  1
  Cu  Cu114  1  0.82729396  0.50235517  0.25142060  1
  Se  Se115  1  0.07130680  0.08053599  0.05343704  1
  Se  Se116  1  0.08225430  0.08989314  0.55251328  1
  Se  Se117  1  0.08789410  0.41213867  0.05410073  1
  Se  Se118  1  0.08150656  0.41173357  0.55555689  1
  Se  Se119  1  0.08450390  0.74591531  0.05113872  1
  Se  Se120  1  0.07930215  0.73746196  0.55644474  1
  Se  Se121  1  0.41060080  0.08152012  0.06072862  1
  Se  Se122  1  0.42387179  0.09044020  0.54853809  1
  Se  Se123  1  0.41862482  0.41313961  0.05812548  1
  Se  Se124  1  0.40915634  0.41861181  0.54521261  1
  Se  Se125  1  0.41928018  0.75046737  0.05942816  1
  Se  Se126  1  0.41551686  0.75591846  0.55273007  1
  Se  Se127  1  0.73557171  0.08465076  0.06745799  1
  Se  Se128  1  0.74264420  0.07516607  0.55678019  1
  Se  Se129  1  0.75246395  0.42022045  0.06097569  1
  Se  Se130  1  0.74408460  0.40896782  0.55270643  1
  Se  Se131  1  0.74713263  0.74769861  0.06350297  1
  Se  Se132  1  0.74151311  0.74047783  0.55040959  1
  Se  Se133  1  0.24618700  0.24362265  0.05903052  1
  Se  Se134  1  0.25034993  0.25246032  0.54646831  1
  Se  Se135  1  0.25189481  0.57691493  0.05311553  1
  Se  Se136  1  0.25203062  0.59315621  0.55534568  1
  Se  Se137  1  0.24786886  0.90929863  0.05656802  1
  Se  Se138  1  0.26100544  0.93292934  0.56124727  1
  Se  Se139  1  0.57969668  0.25107994  0.06341232  1
  Se  Se140  1  0.57915541  0.24819719  0.54521732  1
  Se  Se141  1  0.58094456  0.58210848  0.06006623  1
  Se  Se142  1  0.57314616  0.57771747  0.55106143  1
  Se  Se143  1  0.57995444  0.91402636  0.05260608  1
  Se  Se144  1  0.58061368  0.91438082  0.55095556  1
  Se  Se145  1  0.91637579  0.25698787  0.06673845  1
  Se  Se146  1  0.92514044  0.25009323  0.55780577  1
  Se  Se147  1  0.91540912  0.58068810  0.05072993  1
  Se  Se148  1  0.91099649  0.56542467  0.54658094  1
  Se  Se149  1  0.92327829  0.92621759  0.04736097  1
  Se  Se150  1  0.91327214  0.90532245  0.54627985  1
  Se  Se151  1  0.09056991  0.25607690  0.43689390  1
  Se  Se152  1  0.07879197  0.24624136  0.94755266  1
  Se  Se153  1  0.07332776  0.59103723  0.44213647  1
  Se  Se154  1  0.08919500  0.57420736  0.94897508  1
  Se  Se155  1  0.08302954  0.92831200  0.44034737  1
  Se  Se156  1  0.09074778  0.90149171  0.95350241  1
  Se  Se157  1  0.42044027  0.24682883  0.43601214  1
  Se  Se158  1  0.41744382  0.24443818  0.95384686  1
  Se  Se159  1  0.41226848  0.58013908  0.44386478  1
  Se  Se160  1  0.42088731  0.57732777  0.95198849  1
  Se  Se161  1  0.41871654  0.91258406  0.44809482  1
  Se  Se162  1  0.41742104  0.91080760  0.95140594  1
  Se  Se163  1  0.74245643  0.25610528  0.43156664  1
  Se  Se164  1  0.73557495  0.26380113  0.94393026  1
  Se  Se165  1  0.74423375  0.57729587  0.44402301  1
  Se  Se166  1  0.75060518  0.58311659  0.95264253  1
  Se  Se167  1  0.75066085  0.90735921  0.44680731  1
  Se  Se168  1  0.74026790  0.93124602  0.94087392  1
  Se  Se169  1  0.25576234  0.08970521  0.44100853  1
  Se  Se170  1  0.25246674  0.08180418  0.95354225  1
  Se  Se171  1  0.25451898  0.40588293  0.42627456  1
  Se  Se172  1  0.25531886  0.40664041  0.94792563  1
  Se  Se173  1  0.25275909  0.75033422  0.43795262  1
  Se  Se174  1  0.25409634  0.74458194  0.95105754  1
  Se  Se175  1  0.58845102  0.08433346  0.44231901  1
  Se  Se176  1  0.57465097  0.09116474  0.95357436  1
  Se  Se177  1  0.57565641  0.41656485  0.43956054  1
  Se  Se178  1  0.57848723  0.41873781  0.95533968  1
  Se  Se179  1  0.57529310  0.74723109  0.44539875  1
  Se  Se180  1  0.58407479  0.75010768  0.95253383  1
  Se  Se181  1  0.92640171  0.07768018  0.43998633  1
  Se  Se182  1  0.91654315  0.08522184  0.94030627  1
  Se  Se183  1  0.91253523  0.41019210  0.44533863  1
  Se  Se184  1  0.91298052  0.41517267  0.95184547  1
  Se  Se185  1  0.91667820  0.74531479  0.45112890  1
  Se  Se186  1  0.92684086  0.73982750  0.93523068  1
  Se  Se187  1  0.27330881  0.26025996  0.28999973  1
  Se  Se188  1  0.23984946  0.23663810  0.80891692  1
  Se  Se189  1  0.24806118  0.58986275  0.29793652  1
  Se  Se190  1  0.25619514  0.58172190  0.80639538  1
  Se  Se191  1  0.25276770  0.91662004  0.29749458  1
  Se  Se192  1  0.24156437  0.91766776  0.81911000  1
  Se  Se193  1  0.57932570  0.24969329  0.29226516  1
  Se  Se194  1  0.57650625  0.25433024  0.80787319  1
  Se  Se195  1  0.58373812  0.58533744  0.30211986  1
  Se  Se196  1  0.57874707  0.58030682  0.81373931  1
  Se  Se197  1  0.57527356  0.90842032  0.31522003  1
  Se  Se198  1  0.57495123  0.91510778  0.81502911  1
  Se  Se199  1  0.92184253  0.25185054  0.29581442  1
  Se  Se200  1  0.92210253  0.25372080  0.80267086  1
  Se  Se201  1  0.90919399  0.57789668  0.31516399  1
  Se  Se202  1  0.91420384  0.57668800  0.81203628  1
  Se  Se203  1  0.91346064  0.91221567  0.30810548  1
  Se  Se204  1  0.92731516  0.92012371  0.79732005  1
  Se  Se205  1  0.09348389  0.09240853  0.31001671  1
  Se  Se206  1  0.08421563  0.07130201  0.80697952  1
  Se  Se207  1  0.08288243  0.42228898  0.29923444  1
  Se  Se208  1  0.08599608  0.41243812  0.80754760  1
  Se  Se209  1  0.08578312  0.76253547  0.30814997  1
  Se  Se210  1  0.09265435  0.74915077  0.81155345  1
  Se  Se211  1  0.41173389  0.07028415  0.30047234  1
  Se  Se212  1  0.41955864  0.09193170  0.80786298  1
  Se  Se213  1  0.41633616  0.41899210  0.29952920  1
  Se  Se214  1  0.42495855  0.42440901  0.81008764  1
  Se  Se215  1  0.41256768  0.74367007  0.30496950  1
  Se  Se216  1  0.41417931  0.74739792  0.80915100  1
  Se  Se217  1  0.76104586  0.08861242  0.30809643  1
  Se  Se218  1  0.75738782  0.09594000  0.81130649  1
  Se  Se219  1  0.74503895  0.41472211  0.30159771  1
  Se  Se220  1  0.75304955  0.42196583  0.81192952  1
  Se  Se221  1  0.74734776  0.74372296  0.30356128  1
  Se  Se222  1  0.76231817  0.76486518  0.80390500  1
  Se  Se223  1  0.24193313  0.07711445  0.19915014  1
  Se  Se224  1  0.24670933  0.09638523  0.69111859  1
  Se  Se225  1  0.25028309  0.41892075  0.19434199  1
  Se  Se226  1  0.24792394  0.42570800  0.68827323  1
  Se  Se227  1  0.25344293  0.74392770  0.19748741  1
  Se  Se228  1  0.25856858  0.75071555  0.70428154  1
  Se  Se229  1  0.57161588  0.08359791  0.19313254  1
  Se  Se230  1  0.57981118  0.09274786  0.69248316  1
  Se  Se231  1  0.58227639  0.41196920  0.19642402  1
  Se  Se232  1  0.57248888  0.42656582  0.68784568  1
  Se  Se233  1  0.58519204  0.74780691  0.20122587  1
  Se  Se234  1  0.57975142  0.75758927  0.69368411  1
  Se  Se235  1  0.90953370  0.09228688  0.19279065  1
  Se  Se236  1  0.92460085  0.07738601  0.69657230  1
  Se  Se237  1  0.91750444  0.42556179  0.19817516  1
  Se  Se238  1  0.92327279  0.41089468  0.69825784  1
  Se  Se239  1  0.91264063  0.75773834  0.19025001  1
  Se  Se240  1  0.91266287  0.75032553  0.68481645  1
  Se  Se241  1  0.08200893  0.25745627  0.20207194  1
  Se  Se242  1  0.08529604  0.26114745  0.70012849  1
  Se  Se243  1  0.08604795  0.58229068  0.18393064  1
  Se  Se244  1  0.09486795  0.57230826  0.68978015  1
  Se  Se245  1  0.09015029  0.91196687  0.18490485  1
  Se  Se246  1  0.09106998  0.91004894  0.69321924  1
  Se  Se247  1  0.39218315  0.26027442  0.20143815  1
  Se  Se248  1  0.41853892  0.25356915  0.68734118  1
  Se  Se249  1  0.41500033  0.58398427  0.19718009  1
  Se  Se250  1  0.41452721  0.59246139  0.69460023  1
  Se  Se251  1  0.41575729  0.91346172  0.19933779  1
  Se  Se252  1  0.42687216  0.91314359  0.69238387  1
  Se  Se253  1  0.75851221  0.24764270  0.20916666  1
  Se  Se254  1  0.76352549  0.24036788  0.68872668  1
  Se  Se255  1  0.74561990  0.58693047  0.19878050  1
  Se  Se256  1  0.76034359  0.57489994  0.69045507  1
  Se  Se257  1  0.75746741  0.91324956  0.19103964  1
  Se  Se258  1  0.75804142  0.91803718  0.68363499  1
