# generated using pymatgen
data_In86Cu29Se144
_symmetry_space_group_name_H-M   'P 1'
_cell_length_a   17.57313489
_cell_length_b   17.57365395
_cell_length_c   23.42682528
_cell_angle_alpha   90.02081944
_cell_angle_beta   90.03713814
_cell_angle_gamma   89.99877809
_symmetry_Int_Tables_number   1
_chemical_formula_structural   In86Cu29Se144
_chemical_formula_sum   'In86 Cu29 Se144'
_cell_volume   7234.76837416
_cell_formula_units_Z   1
loop_
 _symmetry_equiv_pos_site_id
 _symmetry_equiv_pos_as_xyz
  1  'x, y, z'
loop_
 _atom_site_type_symbol
 _atom_site_label
 _atom_site_symmetry_multiplicity
 _atom_site_fract_x
 _atom_site_fract_y
 _atom_site_fract_z
 _atom_site_occupancy
  In  In0  1  0.00674463  0.16611339  0.12091768  1
  In  In1  1  -0.00881553  0.16481773  0.62601912  1
  In  In2  1  0.00937274  0.49810082  0.13517890  1
  In  In3  1  0.00405730  0.49817071  0.60603064  1
  In  In4  1  0.00176622  0.84097016  0.13741880  1
  In  In5  1  0.00194522  0.84798165  0.62310374  1
  In  In6  1  0.33177494  0.17788492  0.12398373  1
  In  In7  1  0.34810312  0.16484392  0.62482417  1
  In  In8  1  0.31157192  0.48843286  0.12255094  1
  In  In9  1  0.33485589  0.49320153  0.62625791  1
  In  In10  1  0.34679222  0.83729438  0.12191505  1
  In  In11  1  0.31389707  0.82721745  0.62577923  1
  In  In12  1  0.66456339  0.16119626  0.11621869  1
  In  In13  1  0.65994118  0.18180711  0.63587697  1
  In  In14  1  0.68295378  0.49692182  0.13009484  1
  In  In15  1  0.65715477  0.49400219  0.61873054  1
  In  In16  1  0.65474673  0.83396237  0.12452646  1
  In  In17  1  0.67839884  0.82763019  0.62554148  1
  In  In18  1  0.16596631  -0.01123209  0.35177272  1
  In  In19  1  0.16660510  0.01395028  0.88190617  1
  In  In20  1  0.16704282  0.34353383  0.36925683  1
  In  In21  1  0.18100654  0.32869170  0.88767823  1
  In  In22  1  0.13869060  0.65159176  0.35430737  1
  In  In23  1  0.16945387  0.64781095  0.88063713  1
  In  In24  1  0.49419836  0.01083959  0.37610640  1
  In  In25  1  0.49775910  -0.00237598  0.88297774  1
  In  In26  1  0.49628263  0.33275419  0.37745035  1
  In  In27  1  0.48977209  0.31877364  0.87196575  1
  In  In28  1  0.49342947  0.64741301  0.37138693  1
  In  In29  1  0.49794565  0.68137567  0.87617263  1
  In  In30  1  0.83187234  -0.00705816  0.37406315  1
  In  In31  1  0.84277633  0.01504958  0.87122379  1
  In  In32  1  0.85065062  0.34179653  0.37331336  1
  In  In33  1  0.83057528  0.33569628  0.87769496  1
  In  In34  1  0.83359197  0.66680236  0.37594591  1
  In  In35  1  0.82578771  0.65839791  0.87774419  1
  In  In36  1  0.00964419  0.17544996  0.36113646  1
  In  In37  1  0.00862626  0.15374404  0.89083614  1
  In  In38  1  -0.00187016  0.49435708  0.37707786  1
  In  In39  1  0.00761488  0.48874270  0.88725286  1
  In  In40  1  -0.00371195  0.82823950  0.36399815  1
  In  In41  1  -0.01286968  0.83776240  0.87688259  1
  In  In42  1  0.34313075  0.17281988  0.36076622  1
  In  In43  1  0.32084594  0.18091378  0.89757962  1
  In  In44  1  0.34134736  0.48976674  0.37936372  1
  In  In45  1  0.32779822  0.49101919  0.86918555  1
  In  In46  1  0.30801518  0.83058868  0.36526386  1
  In  In47  1  0.34623722  0.84116954  0.87813373  1
  In  In48  1  0.65951871  0.15992664  0.37598204  1
  In  In49  1  0.66780002  0.16759166  0.87421271  1
  In  In50  1  0.65651932  0.50658375  0.37761777  1
  In  In51  1  0.68015279  0.49843284  0.87620582  1
  In  In52  1  0.68492436  0.83454495  0.37909655  1
  In  In53  1  0.64720371  0.83792064  0.87557702  1
  In  In54  1  0.15803900  0.01497132  0.12537608  1
  In  In55  1  0.15861512  -0.00483797  0.62788306  1
  In  In56  1  0.16927828  0.32792909  0.12731711  1
  In  In57  1  0.16600593  0.34861370  0.62297282  1
  In  In58  1  0.16224899  0.65268495  0.13244727  1
  In  In59  1  0.17499622  0.65907470  0.62660504  1
  In  In60  1  0.49471200  0.00736038  0.11420076  1
  In  In61  1  0.49668630  0.01791429  0.62586146  1
  In  In62  1  0.48139779  0.31532681  0.11651375  1
  In  In63  1  0.50038759  0.33258421  0.62678665  1
  In  In64  1  0.50016405  0.67766574  0.12980828  1
  In  In65  1  0.50063452  0.65091284  0.62503665  1
  In  In66  1  0.84283960  0.01221517  0.11722493  1
  In  In67  1  0.83504882  -0.00381323  0.62987386  1
  In  In68  1  0.84533263  0.34347949  0.11882850  1
  In  In69  1  0.82621602  0.33187212  0.62315361  1
  In  In70  1  0.85150881  0.65814869  0.14061393  1
  In  In71  1  0.83429021  0.66775145  0.61511509  1
  In  In72  1  0.33542770  0.66707047  0.24723760  1
  In  In73  1  0.17015320  0.83652907  0.00843127  1
  In  In74  1  0.33540322  0.00492398  0.75773323  1
  In  In75  1  0.66207848  0.66594263  0.75101182  1
  In  In76  1  0.82891635  0.83233353  0.00875401  1
  In  In77  1  0.66176662  0.33171495  0.24855535  1
  In  In78  1  0.49643996  0.49404248  0.00419728  1
  In  In79  1  0.17288056  0.17100223  0.48328336  1
  In  In80  1  0.00181994  0.66881866  0.74601762  1
  In  In81  1  0.66827589  -0.00089846  0.24032802  1
  In  In82  1  -0.00048983  0.32834250  0.74769492  1
  In  In83  1  0.83108431  0.17482723  0.50161649  1
  In  In84  1  0.50150890  0.83051638  0.50138045  1
  In  In85  1  0.15936896  0.82633060  0.48931830  1
  Cu  Cu86  1  0.49766899  0.49206757  0.25015964  1
  Cu  Cu87  1  0.49129428  0.83889922  0.75350175  1
  Cu  Cu88  1  0.17685075  0.49407186  0.75188615  1
  Cu  Cu89  1  0.66334411  0.33463549  0.50286649  1
  Cu  Cu90  1  0.50766121  0.83705775  0.24905510  1
  Cu  Cu91  1  0.33033267  0.65308985  0.50031237  1
  Cu  Cu92  1  0.33541858  0.66588824  0.00670735  1
  Cu  Cu93  1  0.83475312  0.49954843  0.75102244  1
  Cu  Cu94  1  0.83378343  0.16289190  0.75171035  1
  Cu  Cu95  1  0.49775713  0.49574208  0.74661218  1
  Cu  Cu96  1  0.33803482  0.32995197  0.49966282  1
  Cu  Cu97  1  -0.00281572  0.33271180  0.00627607  1
  Cu  Cu98  1  0.82857664  0.84554061  0.75107939  1
  Cu  Cu99  1  0.33439374  0.00134777  0.49322189  1
  Cu  Cu100  1  -0.00281172  0.66831587  0.49009304  1
  Cu  Cu101  1  0.83901340  0.50568844  0.25318729  1
  Cu  Cu102  1  0.15930234  0.83166368  0.75011115  1
  Cu  Cu103  1  0.17134343  0.17078809  0.76228750  1
  Cu  Cu104  1  0.66949963  0.33164446  -0.00047513  1
  Cu  Cu105  1  0.66583294  0.00528023  0.49976028  1
  Cu  Cu106  1  -0.00532331  0.00576665  0.49885083  1
  Cu  Cu107  1  0.50188332  0.17044727  0.75411571  1
  Cu  Cu108  1  0.66778861  -0.00041087  -0.00285710  1
  Cu  Cu109  1  0.67024477  0.66562202  0.49825951  1
  Cu  Cu110  1  0.83667873  0.83134873  0.25264537  1
  Cu  Cu111  1  0.66870114  0.66119649  -0.00014448  1
  Cu  Cu112  1  0.84031969  0.16938182  0.24227698  1
  Cu  Cu113  1  -0.00360118  0.65484020  0.00939915  1
  Cu  Cu114  1  0.16490541  0.16780680  0.24351286  1
  Se  Se115  1  0.08393865  0.08588938  0.04733010  1
  Se  Se116  1  0.08212775  0.08390242  0.55394536  1
  Se  Se117  1  0.08171453  0.41442846  0.06062632  1
  Se  Se118  1  0.09249491  0.41680857  0.54444894  1
  Se  Se119  1  0.07487014  0.74381697  0.06374488  1
  Se  Se120  1  0.07476269  0.74115085  0.56059718  1
  Se  Se121  1  0.42992941  0.11113711  0.05438773  1
  Se  Se122  1  0.41602863  0.08369867  0.54722052  1
  Se  Se123  1  0.39486939  0.40460938  0.05036599  1
  Se  Se124  1  0.41930685  0.41433210  0.55568705  1
  Se  Se125  1  0.42399161  0.75011532  0.05213782  1
  Se  Se126  1  0.40433448  0.74226733  0.55895143  1
  Se  Se127  1  0.75222220  0.08306524  0.04846539  1
  Se  Se128  1  0.74369045  0.08515591  0.56365155  1
  Se  Se129  1  0.75074890  0.41771147  0.05216549  1
  Se  Se130  1  0.75006931  0.41749787  0.55331398  1
  Se  Se131  1  0.74626935  0.73578541  0.06748644  1
  Se  Se132  1  0.75213118  0.75380214  0.54811478  1
  Se  Se133  1  0.23189190  0.23617327  0.05380619  1
  Se  Se134  1  0.25542209  0.24958576  0.55866129  1
  Se  Se135  1  0.24576733  0.58624844  0.05524372  1
  Se  Se136  1  0.24715840  0.57301953  0.55610157  1
  Se  Se137  1  0.26021807  0.93042723  0.06128969  1
  Se  Se138  1  0.24945746  0.92381179  0.55167865  1
  Se  Se139  1  0.58430385  0.25171726  0.05230805  1
  Se  Se140  1  0.58253003  0.24838302  0.55594368  1
  Se  Se141  1  0.58807043  0.58468298  0.06352248  1
  Se  Se142  1  0.58288458  0.58382890  0.54942910  1
  Se  Se143  1  0.58395570  0.91884254  0.05232414  1
  Se  Se144  1  0.58785209  0.92372446  0.56217907  1
  Se  Se145  1  0.91333875  0.24485490  0.05431193  1
  Se  Se146  1  0.92941654  0.26372506  0.55586278  1
  Se  Se147  1  0.91536439  0.57322075  0.06464247  1
  Se  Se148  1  0.91512786  0.58543952  0.54668661  1
  Se  Se149  1  0.93163662  0.92021423  0.05518718  1
  Se  Se150  1  0.91445231  0.92111130  0.55300712  1
  Se  Se151  1  0.07164080  0.26225276  0.44015120  1
  Se  Se152  1  0.08283697  0.25434114  0.94942705  1
  Se  Se153  1  0.08486892  0.58435495  0.44274108  1
  Se  Se154  1  0.08409024  0.57872373  0.95422478  1
  Se  Se155  1  0.07653824  0.92910927  0.43633704  1
  Se  Se156  1  0.07783145  0.91821713  0.94302955  1
  Se  Se157  1  0.41436211  0.24336291  0.44318892  1
  Se  Se158  1  0.42684764  0.24816631  0.95555151  1
  Se  Se159  1  0.42116393  0.57494853  0.45000270  1
  Se  Se160  1  0.41348749  0.58871194  0.94138208  1
  Se  Se161  1  0.40688141  0.90940689  0.43654822  1
  Se  Se162  1  0.41893952  0.91524711  0.95351609  1
  Se  Se163  1  0.74206895  0.26017844  0.43609623  1
  Se  Se164  1  0.75218328  0.24771296  0.94513417  1
  Se  Se165  1  0.75046825  0.58128388  0.44328911  1
  Se  Se166  1  0.75480891  0.57698878  0.95237274  1
  Se  Se167  1  0.75366354  0.92234539  0.45195875  1
  Se  Se168  1  0.74762901  0.91675543  0.93785197  1
  Se  Se169  1  0.25324398  0.07067076  0.42745506  1
  Se  Se170  1  0.25897660  0.07175356  0.95348738  1
  Se  Se171  1  0.25248302  0.41059142  0.44605474  1
  Se  Se172  1  0.23933490  0.43762737  0.94670284  1
  Se  Se173  1  0.25081328  0.73009663  0.43742821  1
  Se  Se174  1  0.25515725  0.74486316  0.94282710  1
  Se  Se175  1  0.57852413  0.08512827  0.44936944  1
  Se  Se176  1  0.58572787  0.08472358  0.94424831  1
  Se  Se177  1  0.58085575  0.41536586  0.44465077  1
  Se  Se178  1  0.58800603  0.41178133  0.93895691  1
  Se  Se179  1  0.58670311  0.74205370  0.43663219  1
  Se  Se180  1  0.58576067  0.74793898  0.95046103  1
  Se  Se181  1  0.92052332  0.08874868  0.43650764  1
  Se  Se182  1  0.91139788  0.08132072  0.95353099  1
  Se  Se183  1  0.90960057  0.42550777  0.45035217  1
  Se  Se184  1  0.91314983  0.41464834  0.94986579  1
  Se  Se185  1  0.91688094  0.75810363  0.44128029  1
  Se  Se186  1  0.92043078  0.73723845  0.94739055  1
  Se  Se187  1  0.24253732  0.24903193  0.30414457  1
  Se  Se188  1  0.25776223  0.25154756  0.81183424  1
  Se  Se189  1  0.25208011  0.57429840  0.30838176  1
  Se  Se190  1  0.25320219  0.58611729  0.80221014  1
  Se  Se191  1  0.27096582  0.92793642  0.28937127  1
  Se  Se192  1  0.24054102  0.91126855  0.81197924  1
  Se  Se193  1  0.57329936  0.23811574  0.30523778  1
  Se  Se194  1  0.58859761  0.25489772  0.80436359  1
  Se  Se195  1  0.58135502  0.57992565  0.29805878  1
  Se  Se196  1  0.57409980  0.57522917  0.81267451  1
  Se  Se197  1  0.58630791  0.91484216  0.31341309  1
  Se  Se198  1  0.57527357  0.92336812  0.80346419  1
  Se  Se199  1  0.91690165  0.25560011  0.29840585  1
  Se  Se200  1  0.91664006  0.24047869  0.81320399  1
  Se  Se201  1  0.92141177  0.58772663  0.30865164  1
  Se  Se202  1  0.91794653  0.57606408  0.81083336  1
  Se  Se203  1  0.91685754  0.92286895  0.30113943  1
  Se  Se204  1  0.91802603  0.92211742  0.80333593  1
  Se  Se205  1  0.07997621  0.08164008  0.29457848  1
  Se  Se206  1  0.08313790  0.08675774  0.80799290  1
  Se  Se207  1  0.07605895  0.41740920  0.30260623  1
  Se  Se208  1  0.09072511  0.41546826  0.80967714  1
  Se  Se209  1  0.11693995  0.78307452  0.31023335  1
  Se  Se210  1  0.08679566  0.75151907  0.81622699  1
  Se  Se211  1  0.41028907  0.06995729  0.29911376  1
  Se  Se212  1  0.41891518  0.09724873  0.81749077  1
  Se  Se213  1  0.41547249  0.40994121  0.30360889  1
  Se  Se214  1  0.41802650  0.41281889  0.80424848  1
  Se  Se215  1  0.42543643  0.75792150  0.31068047  1
  Se  Se216  1  0.41031317  0.75128316  0.80325325  1
  Se  Se217  1  0.75744907  0.09229381  0.30363525  1
  Se  Se218  1  0.74655543  0.08102970  0.80315643  1
  Se  Se219  1  0.75213505  0.42277058  0.30855566  1
  Se  Se220  1  0.75199375  0.41511912  0.80230957  1
  Se  Se221  1  0.75054343  0.74963471  0.30413115  1
  Se  Se222  1  0.75434559  0.75861431  0.81077473  1
  Se  Se223  1  0.25244691  0.08779619  0.19229785  1
  Se  Se224  1  0.24378681  0.08987679  0.69242082  1
  Se  Se225  1  0.24462818  0.41307526  0.20020854  1
  Se  Se226  1  0.25582115  0.40797880  0.69804431  1
  Se  Se227  1  0.24940733  0.75656754  0.18533314  1
  Se  Se228  1  0.24356705  0.74607404  0.70091298  1
  Se  Se229  1  0.57495860  0.09357385  0.19162875  1
  Se  Se230  1  0.58235775  0.08595462  0.69915888  1
  Se  Se231  1  0.57376716  0.41695437  0.18269471  1
  Se  Se232  1  0.58639536  0.41564811  0.69572964  1
  Se  Se233  1  0.58973369  0.74806873  0.20131169  1
  Se  Se234  1  0.57081657  0.75817667  0.69058675  1
  Se  Se235  1  0.92280175  0.08200130  0.19289242  1
  Se  Se236  1  0.91869627  0.08102680  0.69760951  1
  Se  Se237  1  0.91518055  0.41669225  0.19916062  1
  Se  Se238  1  0.91709649  0.42647563  0.68738661  1
  Se  Se239  1  0.92805728  0.74976308  0.20563587  1
  Se  Se240  1  0.90626468  0.76039553  0.69120596  1
  Se  Se241  1  0.07626222  0.25191912  0.19565881  1
  Se  Se242  1  0.09561584  0.24029369  0.68960967  1
  Se  Se243  1  0.07778791  0.58901535  0.20749290  1
  Se  Se244  1  0.08684859  0.56717740  0.69232675  1
  Se  Se245  1  0.09483052  0.92006957  0.19645334  1
  Se  Se246  1  0.07795130  0.92003292  0.70142186  1
  Se  Se247  1  0.40649789  0.25990655  0.19965651  1
  Se  Se248  1  0.41715351  0.25023913  0.69779625  1
  Se  Se249  1  0.41947261  0.57141614  0.18524006  1
  Se  Se250  1  0.41379965  0.58175458  0.69669015  1
  Se  Se251  1  0.43037942  0.91823908  0.19081642  1
  Se  Se252  1  0.41348970  0.91329657  0.68617249  1
  Se  Se253  1  0.75415889  0.24682367  0.18550493  1
  Se  Se254  1  0.75627284  0.25446765  0.70080961  1
  Se  Se255  1  0.75001262  0.58620835  0.20247732  1
  Se  Se256  1  0.75564159  0.58071424  0.68976759  1
  Se  Se257  1  0.76333642  0.90887457  0.18443649  1
  Se  Se258  1  0.74086899  0.92161784  0.69662496  1
