# generated using pymatgen
data_In86Cu29Se144
_symmetry_space_group_name_H-M   'P 1'
_cell_length_a   17.58748406
_cell_length_b   17.58923585
_cell_length_c   23.43948900
_cell_angle_alpha   90.02003710
_cell_angle_beta   89.99605485
_cell_angle_gamma   89.99702442
_symmetry_Int_Tables_number   1
_chemical_formula_structural   In86Cu29Se144
_chemical_formula_sum   'In86 Cu29 Se144'
_cell_volume   7251.01494654
_cell_formula_units_Z   1
loop_
 _symmetry_equiv_pos_site_id
 _symmetry_equiv_pos_as_xyz
  1  'x, y, z'
loop_
 _atom_site_type_symbol
 _atom_site_label
 _atom_site_symmetry_multiplicity
 _atom_site_fract_x
 _atom_site_fract_y
 _atom_site_fract_z
 _atom_site_occupancy
  In  In0  1  -0.00738144  0.15827264  0.12768495  1
  In  In1  1  0.00434769  0.15370315  0.63605706  1
  In  In2  1  0.00498055  0.50582423  0.11615845  1
  In  In3  1  -0.00998515  0.49384471  0.61449433  1
  In  In4  1  -0.00046635  0.82364546  0.12503916  1
  In  In5  1  0.01159530  0.83194714  0.61224145  1
  In  In6  1  0.33542114  0.16043671  0.12882488  1
  In  In7  1  0.34145547  0.17374763  0.61860779  1
  In  In8  1  0.31761189  0.50240613  0.12506028  1
  In  In9  1  0.33033638  0.50858117  0.63812005  1
  In  In10  1  0.33628677  0.84068548  0.11901412  1
  In  In11  1  0.33110030  0.82715117  0.62551167  1
  In  In12  1  0.65459146  0.17017311  0.11501830  1
  In  In13  1  0.66787027  0.18640148  0.62896364  1
  In  In14  1  0.68460032  0.48982660  0.11581816  1
  In  In15  1  0.69047288  0.48481402  0.65381693  1
  In  In16  1  0.66960890  0.83515797  0.11373502  1
  In  In17  1  0.67475715  0.80230845  0.63563118  1
  In  In18  1  0.16740559  0.00067486  0.37066356  1
  In  In19  1  0.15353258  0.00002102  0.87584064  1
  In  In20  1  0.16808389  0.32747659  0.38365415  1
  In  In21  1  0.17492104  0.34511577  0.86746390  1
  In  In22  1  0.12480126  0.70359139  0.42066891  1
  In  In23  1  0.17205550  0.66403850  0.88056235  1
  In  In24  1  0.50198861  0.01789302  0.37745431  1
  In  In25  1  0.50441821  0.00355189  0.88599866  1
  In  In26  1  0.48313624  0.33744052  0.37786477  1
  In  In27  1  0.49538987  0.33642616  0.86592720  1
  In  In28  1  0.49980645  0.66952500  0.37818605  1
  In  In29  1  0.51275593  0.68153658  0.85341420  1
  In  In30  1  0.83998296  -0.01793155  0.37738183  1
  In  In31  1  0.83496075  -0.01134913  0.87548183  1
  In  In32  1  0.84612464  0.34218550  0.38066662  1
  In  In33  1  0.83949602  0.34506349  0.85345937  1
  In  In34  1  0.84719716  0.66169949  0.38464802  1
  In  In35  1  0.83338354  0.67063825  0.87419866  1
  In  In36  1  0.01499196  0.16712394  0.37596698  1
  In  In37  1  -0.01056288  0.16404683  0.85760569  1
  In  In38  1  -0.00421891  0.51464122  0.39652384  1
  In  In39  1  0.00101325  0.50095451  0.87097628  1
  In  In40  1  -0.00491990  0.83952792  0.36973546  1
  In  In41  1  -0.00371330  0.83642721  0.88063019  1
  In  In42  1  0.33106853  0.16844593  0.37686649  1
  In  In43  1  0.34047493  0.18428091  0.87366306  1
  In  In44  1  0.32434204  0.48944077  0.37042801  1
  In  In45  1  0.33071718  0.49922178  0.86564829  1
  In  In46  1  0.31812869  0.83084946  0.37402630  1
  In  In47  1  0.34048571  0.82651882  0.88281205  1
  In  In48  1  0.65885383  0.16302872  0.38468518  1
  In  In49  1  0.65617805  0.16873098  0.87545723  1
  In  In50  1  0.67578142  0.50818605  0.37931877  1
  In  In51  1  0.67323886  0.50812070  0.85936948  1
  In  In52  1  0.67619771  0.83759340  0.37887017  1
  In  In53  1  0.67046196  0.83176115  0.88062863  1
  In  In54  1  0.17097725  -0.00981885  0.13317597  1
  In  In55  1  0.16178650  -0.00932039  0.61693923  1
  In  In56  1  0.16657909  0.35107295  0.12331791  1
  In  In57  1  0.16905912  0.32983644  0.62540420  1
  In  In58  1  0.15575386  0.65560033  0.11951403  1
  In  In59  1  0.16893401  0.67243176  0.61397665  1
  In  In60  1  0.49570937  -0.00255764  0.11860939  1
  In  In61  1  0.48857584  -0.00404513  0.62185031  1
  In  In62  1  0.49794323  0.31430632  0.11472770  1
  In  In63  1  0.50926351  0.33421874  0.63926915  1
  In  In64  1  0.49577109  0.67196194  0.11699813  1
  In  In65  1  0.52154104  0.64354189  0.65463850  1
  In  In66  1  0.84815276  -0.01551908  0.13271644  1
  In  In67  1  0.85362719  0.00213977  0.62787478  1
  In  In68  1  0.82433056  0.33958152  0.11516133  1
  In  In69  1  0.82840681  0.33797128  0.64092273  1
  In  In70  1  0.84900462  0.67693247  0.11006404  1
  In  In71  1  0.83747065  0.65594679  0.61513213  1
  In  In72  1  0.67066525  0.66478612  0.25240541  1
  In  In73  1  0.83009465  0.17188439  0.50797654  1
  In  In74  1  0.66968928  0.00097658  0.75557778  1
  In  In75  1  -0.00246648  0.66257376  0.74629918  1
  In  In76  1  0.32732290  -0.00579984  0.74472507  1
  In  In77  1  0.49990021  0.49717922  0.51472782  1
  In  In78  1  0.49676372  0.50523205  -0.01624532  1
  In  In79  1  0.49534516  0.83203552  0.50703863  1
  In  In80  1  0.66807424  -0.00452509  0.24440613  1
  In  In81  1  0.66278541  0.33103227  0.23774227  1
  In  In82  1  0.17012944  0.17268908  -0.00473042  1
  In  In83  1  0.82961587  0.16951992  -0.00150881  1
  In  In84  1  0.31947057  0.66496424  0.25228360  1
  In  In85  1  0.00436718  0.32888749  0.25038603  1
  Cu  Cu86  1  0.83159647  0.15496631  0.24941305  1
  Cu  Cu87  1  0.66835652  0.00134709  -0.00084213  1
  Cu  Cu88  1  0.49745371  0.16439703  0.74921673  1
  Cu  Cu89  1  0.33241251  0.32500527  0.50222367  1
  Cu  Cu90  1  0.17305154  0.16603857  0.25445150  1
  Cu  Cu91  1  0.49335210  0.49308275  0.24714013  1
  Cu  Cu92  1  0.66341972  0.66154720  -0.01080653  1
  Cu  Cu93  1  0.00118652  -0.00688288  0.00366300  1
  Cu  Cu94  1  0.83817170  0.83338211  0.75339246  1
  Cu  Cu95  1  0.16294635  0.49767402  0.74816542  1
  Cu  Cu96  1  0.66421606  0.34304145  0.51287769  1
  Cu  Cu97  1  0.32916020  0.67399029  -0.00100540  1
  Cu  Cu98  1  0.33528042  0.00541075  0.00427583  1
  Cu  Cu99  1  -0.00249944  0.66417631  -0.00397958  1
  Cu  Cu100  1  0.34043812  0.66144410  0.50759003  1
  Cu  Cu101  1  0.32682402  0.00123503  0.49751666  1
  Cu  Cu102  1  0.00070641  0.33525990  0.50669686  1
  Cu  Cu103  1  0.67983652  0.66310562  0.50648997  1
  Cu  Cu104  1  0.33642535  0.34109035  -0.00809392  1
  Cu  Cu105  1  0.16492406  0.16746921  0.75003607  1
  Cu  Cu106  1  0.84031432  0.50025283  0.25359142  1
  Cu  Cu107  1  0.16080704  0.49996672  0.25373219  1
  Cu  Cu108  1  0.00240859  0.33828215  -0.01139286  1
  Cu  Cu109  1  0.00448836  0.00294980  0.49792934  1
  Cu  Cu110  1  0.66538436  -0.00305049  0.50324229  1
  Cu  Cu111  1  0.48893406  0.17314162  0.25171063  1
  Cu  Cu112  1  0.16212715  0.83174127  0.74333537  1
  Cu  Cu113  1  0.49603798  0.84099335  0.24331416  1
  Cu  Cu114  1  0.15981944  0.82976914  0.25401634  1
  Se  Se115  1  0.08186545  0.08046713  0.05765786  1
  Se  Se116  1  0.08193718  0.08621075  0.55565976  1
  Se  Se117  1  0.08428774  0.41812114  0.04726069  1
  Se  Se118  1  0.08980835  0.41636462  0.55583114  1
  Se  Se119  1  0.08144603  0.74587194  0.05170606  1
  Se  Se120  1  0.08798876  0.74834639  0.53989112  1
  Se  Se121  1  0.41944742  0.09180483  0.05339753  1
  Se  Se122  1  0.41486099  0.07992791  0.55074219  1
  Se  Se123  1  0.41345931  0.42105125  0.05719716  1
  Se  Se124  1  0.40654112  0.40578664  0.56771413  1
  Se  Se125  1  0.41693906  0.75571883  0.04964451  1
  Se  Se126  1  0.42570657  0.73129062  0.57022491  1
  Se  Se127  1  0.75143769  0.07231445  0.06504714  1
  Se  Se128  1  0.74252231  0.07809194  0.56720786  1
  Se  Se129  1  0.75550126  0.41611825  0.03864142  1
  Se  Se130  1  0.75196336  0.42016536  0.56553705  1
  Se  Se131  1  0.74457089  0.74295068  0.04864742  1
  Se  Se132  1  0.75958108  0.75549891  0.55300073  1
  Se  Se133  1  0.25777610  0.26266324  0.05730879  1
  Se  Se134  1  0.24469838  0.24290373  0.55286416  1
  Se  Se135  1  0.24907916  0.58446543  0.04991564  1
  Se  Se136  1  0.25512133  0.57659537  0.55711397  1
  Se  Se137  1  0.24782460  0.92218303  0.05307875  1
  Se  Se138  1  0.25479854  0.91139470  0.55372270  1
  Se  Se139  1  0.60498954  0.27207402  0.04745780  1
  Se  Se140  1  0.57834493  0.25678601  0.55845010  1
  Se  Se141  1  0.58931573  0.58420701  0.05649141  1
  Se  Se142  1  0.59664284  0.58532113  0.56670151  1
  Se  Se143  1  0.58130266  0.91717116  0.05068980  1
  Se  Se144  1  0.59351661  0.91294115  0.56712467  1
  Se  Se145  1  0.93009476  0.25852635  0.05575771  1
  Se  Se146  1  0.92113443  0.25605425  0.56940180  1
  Se  Se147  1  0.91351813  0.57519503  0.04583945  1
  Se  Se148  1  0.93854520  0.59959480  0.54803140  1
  Se  Se149  1  0.91647246  0.90865528  0.05413406  1
  Se  Se150  1  0.92116323  0.92015754  0.55165072  1
  Se  Se151  1  0.08008568  0.24945580  0.45246080  1
  Se  Se152  1  0.07665225  0.25137337  0.93053900  1
  Se  Se153  1  0.11524203  0.56197519  0.44777392  1
  Se  Se154  1  0.08142804  0.58107846  0.94286918  1
  Se  Se155  1  0.08296900  0.92053293  0.43970100  1
  Se  Se156  1  0.08629437  0.91315445  0.94951676  1
  Se  Se157  1  0.41915192  0.24576271  0.44839077  1
  Se  Se158  1  0.42452128  0.25595357  0.94647553  1
  Se  Se159  1  0.41486715  0.58157356  0.44277173  1
  Se  Se160  1  0.40679472  0.60003675  0.93175025  1
  Se  Se161  1  0.41272352  0.92100857  0.43846507  1
  Se  Se162  1  0.41555962  0.92024762  0.94853970  1
  Se  Se163  1  0.74144963  0.26493708  0.44504943  1
  Se  Se164  1  0.75507944  0.25709409  0.92952208  1
  Se  Se165  1  0.75926902  0.57808650  0.45143173  1
  Se  Se166  1  0.74896629  0.58128952  0.93744710  1
  Se  Se167  1  0.75238476  0.91661073  0.45240579  1
  Se  Se168  1  0.75268266  0.91625516  0.94914033  1
  Se  Se169  1  0.24554196  0.08436596  0.44289432  1
  Se  Se170  1  0.25990910  0.08035264  0.93593400  1
  Se  Se171  1  0.25442861  0.41252414  0.44898154  1
  Se  Se172  1  0.25009316  0.42403430  0.94288841  1
  Se  Se173  1  0.26143257  0.74856248  0.45354331  1
  Se  Se174  1  0.24243197  0.75797907  0.94893463  1
  Se  Se175  1  0.58073316  0.08430493  0.45720960  1
  Se  Se176  1  0.58473383  0.09044481  0.95309693  1
  Se  Se177  1  0.58762322  0.41501401  0.44215266  1
  Se  Se178  1  0.59134775  0.41605322  0.93101426  1
  Se  Se179  1  0.59478186  0.74119009  0.44730789  1
  Se  Se180  1  0.57725115  0.74643157  0.94069913  1
  Se  Se181  1  0.91730246  0.08476993  0.44192539  1
  Se  Se182  1  0.92609531  0.07890881  0.94296161  1
  Se  Se183  1  0.91392738  0.41987107  0.45776514  1
  Se  Se184  1  0.91402215  0.41478061  0.93522643  1
  Se  Se185  1  0.92296284  0.75646135  0.44479437  1
  Se  Se186  1  0.91318212  0.75062281  0.94615563  1
  Se  Se187  1  0.24920949  0.25426483  0.30795163  1
  Se  Se188  1  0.24937801  0.24932880  0.80240565  1
  Se  Se189  1  0.23324035  0.58331981  0.31668960  1
  Se  Se190  1  0.24140864  0.58499494  0.80274035  1
  Se  Se191  1  0.24893276  0.91490333  0.30046540  1
  Se  Se192  1  0.23945693  0.90907213  0.80919939  1
  Se  Se193  1  0.57855100  0.24751088  0.30926909  1
  Se  Se194  1  0.58107640  0.24824135  0.80131665  1
  Se  Se195  1  0.57253122  0.57157527  0.30814782  1
  Se  Se196  1  0.56149350  0.56378710  0.79922908  1
  Se  Se197  1  0.57580847  0.91125424  0.31127269  1
  Se  Se198  1  0.57590861  0.91391081  0.81282437  1
  Se  Se199  1  0.90713896  0.24048081  0.30971974  1
  Se  Se200  1  0.92411286  0.25795392  0.79099960  1
  Se  Se201  1  0.92230343  0.57696503  0.31185685  1
  Se  Se202  1  0.90294440  0.57526207  0.80201992  1
  Se  Se203  1  0.91673017  0.92129216  0.29777414  1
  Se  Se204  1  0.92288729  0.91699088  0.80423008  1
  Se  Se205  1  0.08278790  0.08396085  0.30104267  1
  Se  Se206  1  0.08336851  0.07888792  0.79948676  1
  Se  Se207  1  0.08198440  0.41957162  0.31609231  1
  Se  Se208  1  0.07935590  0.41548187  0.80092293  1
  Se  Se209  1  0.08930470  0.74547148  0.31634107  1
  Se  Se210  1  0.08517432  0.75310461  0.80841174  1
  Se  Se211  1  0.41305810  0.08419675  0.30548694  1
  Se  Se212  1  0.41883373  0.08262863  0.80882883  1
  Se  Se213  1  0.41010690  0.41167949  0.30007527  1
  Se  Se214  1  0.39294010  0.39661441  0.80202348  1
  Se  Se215  1  0.42213635  0.75594800  0.30549113  1
  Se  Se216  1  0.40145456  0.74949315  0.80214749  1
  Se  Se217  1  0.74900265  0.08563037  0.31373303  1
  Se  Se218  1  0.75916060  0.09064389  0.81399233  1
  Se  Se219  1  0.75364234  0.41688821  0.30609784  1
  Se  Se220  1  0.74161098  0.41557969  0.78904622  1
  Se  Se221  1  0.76040665  0.75110932  0.31293059  1
  Se  Se222  1  0.75055441  0.75486565  0.80622883  1
  Se  Se223  1  0.25112833  0.08133193  0.19700367  1
  Se  Se224  1  0.24339355  0.08911185  0.68561080  1
  Se  Se225  1  0.24741397  0.41930174  0.20082369  1
  Se  Se226  1  0.24851492  0.41297280  0.69730340  1
  Se  Se227  1  0.24007068  0.75611352  0.18635387  1
  Se  Se228  1  0.24469433  0.74656824  0.69263808  1
  Se  Se229  1  0.57521135  0.09390089  0.19317164  1
  Se  Se230  1  0.57709531  0.08394093  0.68904606  1
  Se  Se231  1  0.57403349  0.42488972  0.18054041  1
  Se  Se232  1  0.56583757  0.44110575  0.70193785  1
  Se  Se233  1  0.57858642  0.75559474  0.19054916  1
  Se  Se234  1  0.57548785  0.76046619  0.70799057  1
  Se  Se235  1  0.92160092  0.07499175  0.20128999  1
  Se  Se236  1  0.90969523  0.08757422  0.70487648  1
  Se  Se237  1  0.91241783  0.41668838  0.18940062  1
  Se  Se238  1  0.91341707  0.43401587  0.69572219  1
  Se  Se239  1  0.91922618  0.73721592  0.19301106  1
  Se  Se240  1  0.91505651  0.75855432  0.68620171  1
  Se  Se241  1  0.09534716  0.24154162  0.18680619  1
  Se  Se242  1  0.08299179  0.25117687  0.69582030  1
  Se  Se243  1  0.07916644  0.57896694  0.19537206  1
  Se  Se244  1  0.08930167  0.57877130  0.68428087  1
  Se  Se245  1  0.07907850  0.91053008  0.19545960  1
  Se  Se246  1  0.07984747  0.91484321  0.69026922  1
  Se  Se247  1  0.41212037  0.25613004  0.19330081  1
  Se  Se248  1  0.41434893  0.24814191  0.69671441  1
  Se  Se249  1  0.41911442  0.58205572  0.19027163  1
  Se  Se250  1  0.40705276  0.58992499  0.70895576  1
  Se  Se251  1  0.41273797  0.92362465  0.19241352  1
  Se  Se252  1  0.42601568  0.90264635  0.69587270  1
  Se  Se253  1  0.75983029  0.23597492  0.18612368  1
  Se  Se254  1  0.74690017  0.25008670  0.70605897  1
  Se  Se255  1  0.75808448  0.57513776  0.19089129  1
  Se  Se256  1  0.73786698  0.61445542  0.69071681  1
  Se  Se257  1  0.75674250  0.89511561  0.19550659  1
  Se  Se258  1  0.75706312  0.91228226  0.69090279  1
