# generated using pymatgen
data_In86Cu29Se144
_symmetry_space_group_name_H-M   'P 1'
_cell_length_a   17.58287142
_cell_length_b   17.58278002
_cell_length_c   23.44029239
_cell_angle_alpha   89.99290023
_cell_angle_beta   90.01009704
_cell_angle_gamma   90.01939959
_symmetry_Int_Tables_number   1
_chemical_formula_structural   In86Cu29Se144
_chemical_formula_sum   'In86 Cu29 Se144'
_cell_volume   7246.70083519
_cell_formula_units_Z   1
loop_
 _symmetry_equiv_pos_site_id
 _symmetry_equiv_pos_as_xyz
  1  'x, y, z'
loop_
 _atom_site_type_symbol
 _atom_site_label
 _atom_site_symmetry_multiplicity
 _atom_site_fract_x
 _atom_site_fract_y
 _atom_site_fract_z
 _atom_site_occupancy
  In  In0  1  0.00886673  0.17360034  0.12156012  1
  In  In1  1  0.01047853  0.17286197  0.62351186  1
  In  In2  1  0.00147220  0.49892298  0.12555882  1
  In  In3  1  -0.00319946  0.49680284  0.63212356  1
  In  In4  1  -0.01345203  0.83292493  0.11795696  1
  In  In5  1  -0.00395216  0.81974354  0.62942126  1
  In  In6  1  0.32790005  0.16094042  0.11951249  1
  In  In7  1  0.33252332  0.17309614  0.63319773  1
  In  In8  1  0.34516769  0.50990357  0.11586805  1
  In  In9  1  0.33478897  0.49457623  0.63124475  1
  In  In10  1  0.33889395  0.83133204  0.13223838  1
  In  In11  1  0.34637186  0.81422401  0.64804239  1
  In  In12  1  0.67433455  0.18463257  0.12540228  1
  In  In13  1  0.65916500  0.15703005  0.62270172  1
  In  In14  1  0.66602367  0.50376377  0.12506020  1
  In  In15  1  0.65877103  0.50878660  0.61429252  1
  In  In16  1  0.66357684  0.81308263  0.12667835  1
  In  In17  1  0.66792604  0.84316827  0.62140577  1
  In  In18  1  0.17954992  -0.00201352  0.38089172  1
  In  In19  1  0.18217151  0.00256957  0.87179705  1
  In  In20  1  0.15659934  0.33271863  0.37584492  1
  In  In21  1  0.16592038  0.33430137  0.88024113  1
  In  In22  1  0.16052964  0.66016295  0.36500120  1
  In  In23  1  0.15861142  0.66194074  0.86593812  1
  In  In24  1  0.48353830  -0.00017751  0.37616648  1
  In  In25  1  0.50661934  0.00115813  0.86546285  1
  In  In26  1  0.52014590  0.34192558  0.37515738  1
  In  In27  1  0.48813831  0.34377380  0.88391395  1
  In  In28  1  0.49923650  0.66879074  0.38231121  1
  In  In29  1  0.49095211  0.66362395  0.87297212  1
  In  In30  1  0.84482561  0.00481721  0.38053347  1
  In  In31  1  0.81480776  0.00254734  0.87226343  1
  In  In32  1  0.82871977  0.33394088  0.36685302  1
  In  In33  1  0.84543869  0.33548840  0.87585589  1
  In  In34  1  0.82952835  0.65387482  0.35750536  1
  In  In35  1  0.84010663  0.65305304  0.88468519  1
  In  In36  1  -0.00724853  0.17438256  0.38628323  1
  In  In37  1  -0.00449361  0.19064578  0.87194996  1
  In  In38  1  -0.00495700  0.49853686  0.35772809  1
  In  In39  1  0.00465978  0.50094037  0.87938600  1
  In  In40  1  0.00163535  0.82542973  0.37344747  1
  In  In41  1  0.00253828  0.81183419  0.87189150  1
  In  In42  1  0.33777536  0.15268547  0.37746110  1
  In  In43  1  0.33098000  0.16870754  0.87848407  1
  In  In44  1  0.33410060  0.51602667  0.37342758  1
  In  In45  1  0.33084612  0.49616036  0.87677426  1
  In  In46  1  0.33533155  0.83638382  0.37439444  1
  In  In47  1  0.33747881  0.83389917  0.84909986  1
  In  In48  1  0.67120787  0.19006828  0.37733134  1
  In  In49  1  0.66565408  0.14975320  0.87234447  1
  In  In50  1  0.66247711  0.49428482  0.37207980  1
  In  In51  1  0.66625021  0.50122962  0.88743515  1
  In  In52  1  0.66288149  0.80906916  0.38027086  1
  In  In53  1  0.65953746  0.84553209  0.87088266  1
  In  In54  1  0.16948153  0.01205367  0.11898639  1
  In  In55  1  0.16948360  0.00989882  0.62827858  1
  In  In56  1  0.15604666  0.32767504  0.11942946  1
  In  In57  1  0.17490314  0.32476557  0.63257063  1
  In  In58  1  0.18064484  0.65922417  0.12752890  1
  In  In59  1  0.16426340  0.67044205  0.63416606  1
  In  In60  1  0.48792430  -0.00233191  0.12431611  1
  In  In61  1  0.50464840  -0.01237278  0.64128132  1
  In  In62  1  0.51085780  0.34348269  0.11763753  1
  In  In63  1  0.49162242  0.32840244  0.62302604  1
  In  In64  1  0.51085777  0.65759676  0.13228080  1
  In  In65  1  0.49314940  0.65629343  0.61430588  1
  In  In66  1  0.84615991  -0.00017298  0.11703401  1
  In  In67  1  0.81809567  0.00239548  0.62831484  1
  In  In68  1  0.82072104  0.35697406  0.14587431  1
  In  In69  1  0.84768909  0.33714650  0.62863681  1
  In  In70  1  0.83291470  0.66178747  0.12694223  1
  In  In71  1  0.83423064  0.66951947  0.62346279  1
  In  In72  1  0.16466264  0.50204776  0.49130500  1
  In  In73  1  0.16774331  0.83464391  0.51041536  1
  In  In74  1  0.50132461  0.16948662  0.49890439  1
  In  In75  1  0.16931898  0.82959841  -0.01127069  1
  In  In76  1  0.83507451  0.17166936  -0.00183794  1
  In  In77  1  0.66428456  -0.00264276  0.25055073  1
  In  In78  1  0.82877392  0.49646568  0.49272845  1
  In  In79  1  0.66652588  0.66922396  0.74475011  1
  In  In80  1  0.00775770  0.00113184  0.24386342  1
  In  In81  1  0.50121028  0.83023531  -0.00742011  1
  In  In82  1  0.00094121  -0.00447617  0.74667763  1
  In  In83  1  0.66578109  0.32750682  0.74694575  1
  In  In84  1  0.33186073  0.33212782  0.24423287  1
  In  In85  1  0.83105619  0.83298739  0.49971008  1
  Cu  Cu86  1  0.50011238  0.50299038  0.24781401  1
  Cu  Cu87  1  0.33427479  0.00284553  0.50567126  1
  Cu  Cu88  1  0.16634183  0.49639984  0.75487323  1
  Cu  Cu89  1  0.83493220  0.17630700  0.25555200  1
  Cu  Cu90  1  0.84089229  0.49950886  0.75583502  1
  Cu  Cu91  1  0.66478016  0.33383373  0.00465020  1
  Cu  Cu92  1  0.50064784  0.16800938  0.25292142  1
  Cu  Cu93  1  -0.00205586  0.34039317  0.00208896  1
  Cu  Cu94  1  0.16952668  0.15965609  0.24746738  1
  Cu  Cu95  1  0.49314131  0.82825141  0.25462180  1
  Cu  Cu96  1  0.00186166  0.66171090  0.00095105  1
  Cu  Cu97  1  0.49153650  0.50181923  0.74938456  1
  Cu  Cu98  1  0.66095055  0.00079904  0.50200062  1
  Cu  Cu99  1  0.83440829  0.82672831  0.74945437  1
  Cu  Cu100  1  0.00526948  0.32972503  0.50219317  1
  Cu  Cu101  1  0.16987324  0.83247085  0.25185109  1
  Cu  Cu102  1  0.33534905  0.00181793  -0.00341887  1
  Cu  Cu103  1  0.32849816  0.32984379  0.00161444  1
  Cu  Cu104  1  0.66225148  -0.00280007  -0.00593567  1
  Cu  Cu105  1  0.33473183  0.66463084  -0.00457688  1
  Cu  Cu106  1  -0.00057420  -0.00022278  -0.00292246  1
  Cu  Cu107  1  0.67295090  0.66099939  0.00721721  1
  Cu  Cu108  1  0.16756887  0.50190373  0.24525501  1
  Cu  Cu109  1  0.16442073  0.17359144  0.75316731  1
  Cu  Cu110  1  0.33705559  0.33505745  0.50744562  1
  Cu  Cu111  1  0.33103331  0.66975254  0.50212886  1
  Cu  Cu112  1  0.83200923  0.82801815  0.24540007  1
  Cu  Cu113  1  0.00094951  0.00586171  0.50687413  1
  Cu  Cu114  1  0.49364555  0.16921622  0.75285123  1
  Se  Se115  1  0.07974035  0.08462869  0.05021020  1
  Se  Se116  1  0.09061332  0.08695563  0.55464762  1
  Se  Se117  1  0.08655248  0.42240093  0.05208987  1
  Se  Se118  1  0.08447481  0.41333092  0.56039312  1
  Se  Se119  1  0.08444019  0.74643244  0.05791273  1
  Se  Se120  1  0.07247919  0.73520909  0.55497661  1
  Se  Se121  1  0.41842469  0.08310373  0.05150124  1
  Se  Se122  1  0.41792317  0.08232981  0.56484297  1
  Se  Se123  1  0.41639571  0.41416260  0.05096138  1
  Se  Se124  1  0.41827584  0.42209520  0.55632690  1
  Se  Se125  1  0.41497226  0.74327458  0.05808877  1
  Se  Se126  1  0.40858154  0.75529756  0.55808646  1
  Se  Se127  1  0.74205112  0.07774573  0.05703499  1
  Se  Se128  1  0.74750246  0.08323007  0.55172062  1
  Se  Se129  1  0.74992055  0.41471475  0.05887088  1
  Se  Se130  1  0.74775972  0.40920839  0.56124244  1
  Se  Se131  1  0.75483834  0.75032770  0.05485691  1
  Se  Se132  1  0.73839576  0.74040660  0.55538207  1
  Se  Se133  1  0.24436498  0.24575558  0.05411209  1
  Se  Se134  1  0.25393073  0.24958243  0.55700447  1
  Se  Se135  1  0.25033624  0.58284100  0.04867410  1
  Se  Se136  1  0.24912426  0.58756624  0.55961683  1
  Se  Se137  1  0.25799285  0.91599563  0.05569637  1
  Se  Se138  1  0.26210498  0.91878642  0.56861079  1
  Se  Se139  1  0.58206882  0.24479985  0.05241438  1
  Se  Se140  1  0.59293022  0.26069212  0.55561644  1
  Se  Se141  1  0.57909603  0.58101553  0.05309353  1
  Se  Se142  1  0.58294134  0.58782383  0.54327837  1
  Se  Se143  1  0.58835728  0.91729033  0.06019091  1
  Se  Se144  1  0.57681325  0.92244378  0.55670681  1
  Se  Se145  1  0.91404659  0.26300252  0.06385254  1
  Se  Se146  1  0.91960753  0.25081867  0.55633199  1
  Se  Se147  1  0.91786334  0.58224462  0.05682479  1
  Se  Se148  1  0.92069050  0.58324041  0.55686203  1
  Se  Se149  1  0.91318495  0.91389714  0.04299206  1
  Se  Se150  1  0.92172886  0.92166961  0.56367719  1
  Se  Se151  1  0.09137678  0.24630203  0.45085669  1
  Se  Se152  1  0.07867080  0.25268588  0.94995234  1
  Se  Se153  1  0.06807413  0.58800735  0.43627586  1
  Se  Se154  1  0.09026100  0.58596919  0.94609096  1
  Se  Se155  1  0.07483340  0.92173123  0.44469293  1
  Se  Se156  1  0.07636891  0.92238377  0.93314825  1
  Se  Se157  1  0.41261456  0.26038536  0.43726198  1
  Se  Se158  1  0.41527873  0.24846682  0.94920015  1
  Se  Se159  1  0.41346186  0.58338356  0.45057122  1
  Se  Se160  1  0.41919013  0.57874332  0.94515469  1
  Se  Se161  1  0.41127354  0.91704160  0.44961100  1
  Se  Se162  1  0.40755426  0.91740120  0.93422262  1
  Se  Se163  1  0.76385283  0.25365808  0.44570535  1
  Se  Se164  1  0.73985405  0.25637585  0.93763866  1
  Se  Se165  1  0.74331571  0.59462219  0.43860801  1
  Se  Se166  1  0.75613502  0.57545188  0.95516483  1
  Se  Se167  1  0.74047177  0.92304286  0.43746269  1
  Se  Se168  1  0.74753319  0.91295174  0.94506926  1
  Se  Se169  1  0.25125770  0.08593097  0.45258836  1
  Se  Se170  1  0.24664551  0.08553607  0.94903016  1
  Se  Se171  1  0.26122296  0.40924623  0.43833166  1
  Se  Se172  1  0.24834621  0.41752766  0.94910407  1
  Se  Se173  1  0.24582534  0.74302223  0.44075657  1
  Se  Se174  1  0.26489829  0.74618417  0.92984632  1
  Se  Se175  1  0.58990923  0.08079065  0.43424392  1
  Se  Se176  1  0.57697846  0.08047198  0.94444227  1
  Se  Se177  1  0.58861581  0.42033481  0.45045748  1
  Se  Se178  1  0.58065246  0.41739843  0.95149304  1
  Se  Se179  1  0.56397939  0.76518573  0.45223581  1
  Se  Se180  1  0.59641315  0.73704584  0.93906673  1
  Se  Se181  1  0.91429907  0.08707549  0.45497048  1
  Se  Se182  1  0.92019247  0.08029044  0.93484635  1
  Se  Se183  1  0.93095984  0.41178702  0.43901743  1
  Se  Se184  1  0.91449999  0.42238897  0.94814981  1
  Se  Se185  1  0.91273693  0.74060989  0.43673242  1
  Se  Se186  1  0.91905863  0.74692570  0.94883179  1
  Se  Se187  1  0.24776192  0.24165021  0.30959913  1
  Se  Se188  1  0.24894333  0.25315164  0.80955857  1
  Se  Se189  1  0.25158034  0.58480798  0.29803011  1
  Se  Se190  1  0.25250731  0.58011661  0.80545472  1
  Se  Se191  1  0.25015727  0.91815730  0.30513086  1
  Se  Se192  1  0.24225391  0.91818304  0.79588319  1
  Se  Se193  1  0.58534018  0.25389702  0.30080941  1
  Se  Se194  1  0.57480644  0.24830939  0.81426512  1
  Se  Se195  1  0.57607093  0.58322113  0.31044991  1
  Se  Se196  1  0.58277444  0.57274883  0.80688322  1
  Se  Se197  1  0.57644992  0.90980997  0.31367122  1
  Se  Se198  1  0.57844639  0.91182040  0.79607053  1
  Se  Se199  1  0.92614501  0.25223661  0.30701846  1
  Se  Se200  1  0.90184858  0.24716629  0.80013333  1
  Se  Se201  1  0.92429476  0.58895498  0.29039457  1
  Se  Se202  1  0.92217859  0.58501539  0.80824394  1
  Se  Se203  1  0.91111595  0.91234186  0.30395049  1
  Se  Se204  1  0.91065018  0.90955784  0.81159964  1
  Se  Se205  1  0.08853194  0.08626709  0.31380611  1
  Se  Se206  1  0.08297516  0.09052354  0.81132599  1
  Se  Se207  1  0.09042180  0.41466456  0.29962392  1
  Se  Se208  1  0.08212199  0.41455461  0.80937393  1
  Se  Se209  1  0.08082107  0.75076643  0.29984774  1
  Se  Se210  1  0.08925496  0.75359735  0.79655340  1
  Se  Se211  1  0.41505369  0.08195983  0.29935273  1
  Se  Se212  1  0.41195849  0.08555441  0.80751927  1
  Se  Se213  1  0.41983531  0.42072098  0.30813900  1
  Se  Se214  1  0.41418069  0.41535270  0.80463616  1
  Se  Se215  1  0.41205699  0.74450390  0.30940053  1
  Se  Se216  1  0.43922392  0.75482997  0.79784557  1
  Se  Se217  1  0.75679233  0.08740502  0.31060152  1
  Se  Se218  1  0.74895124  0.08486937  0.79718165  1
  Se  Se219  1  0.76487797  0.43617115  0.30565101  1
  Se  Se220  1  0.74955179  0.42365478  0.80993905  1
  Se  Se221  1  0.74582183  0.75104979  0.30053099  1
  Se  Se222  1  0.75533413  0.74877548  0.81365421  1
  Se  Se223  1  0.25387827  0.07814439  0.19506911  1
  Se  Se224  1  0.24784334  0.08987812  0.70056872  1
  Se  Se225  1  0.24720708  0.42328303  0.18251999  1
  Se  Se226  1  0.25104555  0.41465412  0.69985359  1
  Se  Se227  1  0.25350432  0.74903930  0.19769163  1
  Se  Se228  1  0.24527264  0.74390305  0.70667144  1
  Se  Se229  1  0.58052001  0.09044010  0.18814927  1
  Se  Se230  1  0.58088086  0.08806101  0.70036551  1
  Se  Se231  1  0.58319888  0.41857446  0.19548527  1
  Se  Se232  1  0.57725206  0.42491704  0.68973261  1
  Se  Se233  1  0.58134781  0.74784925  0.20340593  1
  Se  Se234  1  0.57738931  0.75199972  0.68204372  1
  Se  Se235  1  0.90961590  0.09515106  0.19197856  1
  Se  Se236  1  0.91419736  0.08745339  0.68809186  1
  Se  Se237  1  0.94080816  0.40220590  0.19647525  1
  Se  Se238  1  0.92297968  0.41246795  0.70532475  1
  Se  Se239  1  0.91990898  0.74958303  0.19295948  1
  Se  Se240  1  0.91539478  0.73910171  0.70012152  1
  Se  Se241  1  0.08699273  0.24673860  0.19787527  1
  Se  Se242  1  0.07939294  0.25525934  0.70022160  1
  Se  Se243  1  0.08531074  0.58694576  0.19257446  1
  Se  Se244  1  0.08409847  0.57802454  0.69754650  1
  Se  Se245  1  0.09389810  0.90761817  0.18351597  1
  Se  Se246  1  0.09136294  0.90559366  0.68815925  1
  Se  Se247  1  0.42498797  0.24463713  0.18593055  1
  Se  Se248  1  0.41522386  0.25805665  0.70107334  1
  Se  Se249  1  0.41311129  0.58515831  0.19677804  1
  Se  Se250  1  0.41454048  0.58807406  0.69404601  1
  Se  Se251  1  0.41764550  0.91770201  0.20071444  1
  Se  Se252  1  0.39503231  0.93331176  0.70096789  1
  Se  Se253  1  0.74518096  0.25608723  0.20533796  1
  Se  Se254  1  0.75520097  0.24158903  0.68648047  1
  Se  Se255  1  0.73528738  0.59656202  0.19334658  1
  Se  Se256  1  0.75755181  0.56983608  0.69060819  1
  Se  Se257  1  0.75752465  0.91454824  0.18598021  1
  Se  Se258  1  0.74970701  0.91114327  0.69877078  1
