# generated using pymatgen
data_In86Cu29Se144
_symmetry_space_group_name_H-M   'P 1'
_cell_length_a   17.58042213
_cell_length_b   17.58032255
_cell_length_c   23.43811880
_cell_angle_alpha   89.97470106
_cell_angle_beta   89.97292920
_cell_angle_gamma   90.01733788
_symmetry_Int_Tables_number   1
_chemical_formula_structural   In86Cu29Se144
_chemical_formula_sum   'In86 Cu29 Se144'
_cell_volume   7244.00561632
_cell_formula_units_Z   1
loop_
 _symmetry_equiv_pos_site_id
 _symmetry_equiv_pos_as_xyz
  1  'x, y, z'
loop_
 _atom_site_type_symbol
 _atom_site_label
 _atom_site_symmetry_multiplicity
 _atom_site_fract_x
 _atom_site_fract_y
 _atom_site_fract_z
 _atom_site_occupancy
  In  In0  1  -0.00933110  0.15820610  0.11753117  1
  In  In1  1  0.00213255  0.17043423  0.62737679  1
  In  In2  1  0.00948779  0.51679387  0.12306307  1
  In  In3  1  0.00180651  0.50625385  0.61619444  1
  In  In4  1  0.00144604  0.83045166  0.12657151  1
  In  In5  1  -0.00930896  0.84498408  0.62750737  1
  In  In6  1  0.31558243  0.16724064  0.11676183  1
  In  In7  1  0.35686280  0.15820878  0.64916527  1
  In  In8  1  0.32716948  0.50593302  0.12266640  1
  In  In9  1  0.32580488  0.48793644  0.61795495  1
  In  In10  1  0.33539977  0.83523345  0.11741248  1
  In  In11  1  0.34593209  0.84202271  0.63001760  1
  In  In12  1  0.67725646  0.16549146  0.11983992  1
  In  In13  1  0.63375058  0.20749860  0.67097818  1
  In  In14  1  0.66269329  0.48404216  0.12628415  1
  In  In15  1  0.66455263  0.50017854  0.62151659  1
  In  In16  1  0.66247296  0.83077419  0.11273353  1
  In  In17  1  0.66898683  0.82430545  0.63241426  1
  In  In18  1  0.16703228  -0.00024366  0.36062574  1
  In  In19  1  0.17174828  0.00028626  0.88346509  1
  In  In20  1  0.17612456  0.33485375  0.37528135  1
  In  In21  1  0.18419299  0.32243726  0.89981921  1
  In  In22  1  0.16242213  0.65217204  0.35814027  1
  In  In23  1  0.17777470  0.66578342  0.89925059  1
  In  In24  1  0.49919169  0.00921406  0.37684042  1
  In  In25  1  0.49377366  0.00438013  0.86169044  1
  In  In26  1  0.50609299  0.32418661  0.38242995  1
  In  In27  1  0.49435203  0.33157839  0.84866061  1
  In  In28  1  0.48281027  0.66593539  0.37284177  1
  In  In29  1  0.51213272  0.65765963  0.87335362  1
  In  In30  1  0.83451624  -0.01009772  0.37656829  1
  In  In31  1  0.82595308  0.00448878  0.87954263  1
  In  In32  1  0.83275063  0.34851007  0.37606751  1
  In  In33  1  0.82896233  0.33513129  0.87659314  1
  In  In34  1  0.84224881  0.66193722  0.37729488  1
  In  In35  1  0.82436867  0.66814683  0.88246161  1
  In  In36  1  0.00798740  0.16316618  0.36922221  1
  In  In37  1  0.00363170  0.16563169  0.88481538  1
  In  In38  1  -0.00249117  0.50842058  0.37690436  1
  In  In39  1  -0.00204447  0.49699917  0.88457228  1
  In  In40  1  -0.00336129  0.82498620  0.36315299  1
  In  In41  1  0.00263323  0.83105302  0.88864543  1
  In  In42  1  0.34060849  0.17026978  0.37346755  1
  In  In43  1  0.32992734  0.16643260  0.86211410  1
  In  In44  1  0.32627139  0.50451371  0.38379477  1
  In  In45  1  0.33218603  0.48848021  0.88082355  1
  In  In46  1  0.32460973  0.82511186  0.36267376  1
  In  In47  1  0.32628316  0.84397881  0.88985185  1
  In  In48  1  0.65178320  0.16336017  0.38091014  1
  In  In49  1  0.67853712  0.17391183  0.85532624  1
  In  In50  1  0.67504643  0.48914500  0.38253163  1
  In  In51  1  0.66404281  0.50275322  0.86430383  1
  In  In52  1  0.67027589  0.84736644  0.37912220  1
  In  In53  1  0.66618441  0.83061654  0.87511626  1
  In  In54  1  0.16660903  -0.00319032  0.12143625  1
  In  In55  1  0.17910396  0.01153047  0.63041884  1
  In  In56  1  0.17386060  0.33684156  0.10957152  1
  In  In57  1  0.16863100  0.34022717  0.62719431  1
  In  In58  1  0.16746072  0.66108676  0.12371208  1
  In  In59  1  0.17794074  0.65978354  0.62730514  1
  In  In60  1  0.50105523  -0.01371442  0.11975672  1
  In  In61  1  0.50078418  0.01469430  0.64089929  1
  In  In62  1  0.50340807  0.34289924  0.12417615  1
  In  In63  1  0.49870774  0.33867998  0.62310066  1
  In  In64  1  0.47487973  0.66419544  0.11776938  1
  In  In65  1  0.51353238  0.66771162  0.62491640  1
  In  In66  1  0.84088119  0.00295818  0.11812758  1
  In  In67  1  0.82644548  -0.00662583  0.62527845  1
  In  In68  1  0.82476377  0.32983542  0.11900062  1
  In  In69  1  0.80065748  0.34133020  0.63424616  1
  In  In70  1  0.84295772  0.67763241  0.12079300  1
  In  In71  1  0.82291679  0.65732265  0.61698615  1
  In  In72  1  0.66516141  0.66430401  0.25073308  1
  In  In73  1  0.50020891  0.83065721  0.49834356  1
  In  In74  1  0.49932094  0.49862992  -0.00617634  1
  In  In75  1  -0.00011315  0.67051074  0.76586337  1
  In  In76  1  0.66474271  0.00076116  0.25359946  1
  In  In77  1  0.33434779  0.33500333  0.24202756  1
  In  In78  1  0.00174856  0.33640912  0.24795507  1
  In  In79  1  0.15929746  0.82557827  0.49426211  1
  In  In80  1  0.82805334  0.17182289  0.51441052  1
  In  In81  1  0.34445778  0.66323246  0.75417310  1
  In  In82  1  0.50044589  0.16716452  -0.02086485  1
  In  In83  1  0.00152993  -0.00094407  0.76243916  1
  In  In84  1  0.17155110  0.17141007  0.50295792  1
  In  In85  1  0.00343425  0.33091877  0.75022866  1
  Cu  Cu86  1  0.00444887  -0.00616534  0.00318097  1
  Cu  Cu87  1  0.48833136  0.82821679  0.24244323  1
  Cu  Cu88  1  0.83491147  0.83745606  0.24692830  1
  Cu  Cu89  1  0.66646381  0.32996288  -0.00767255  1
  Cu  Cu90  1  0.66790042  0.66131111  -0.00358313  1
  Cu  Cu91  1  0.15997420  0.16000738  0.23961610  1
  Cu  Cu92  1  0.82952902  0.16924029  0.24188245  1
  Cu  Cu93  1  -0.00766591  -0.00402118  0.49837788  1
  Cu  Cu94  1  0.33775938  0.00717383  -0.00487410  1
  Cu  Cu95  1  0.66207810  0.00154074  0.50534050  1
  Cu  Cu96  1  0.67468813  -0.00228166  -0.00623337  1
  Cu  Cu97  1  0.50159020  0.83732999  0.75447840  1
  Cu  Cu98  1  0.49839475  0.16525226  0.25371118  1
  Cu  Cu99  1  0.49959143  0.49383707  0.25007800  1
  Cu  Cu100  1  0.16584335  0.49798340  0.75522991  1
  Cu  Cu101  1  0.82417619  0.49506343  0.74668531  1
  Cu  Cu102  1  -0.00172573  0.67337039  0.49425722  1
  Cu  Cu103  1  0.33644229  0.00203673  0.50544181  1
  Cu  Cu104  1  0.34084368  0.32859588  0.50098051  1
  Cu  Cu105  1  -0.01036799  0.33311113  0.00343628  1
  Cu  Cu106  1  -0.00064848  0.34546821  0.50258792  1
  Cu  Cu107  1  -0.00597306  0.66453654  0.00739605  1
  Cu  Cu108  1  0.33147115  0.65237939  0.49932914  1
  Cu  Cu109  1  0.67236650  0.66684916  0.50206588  1
  Cu  Cu110  1  0.82764091  0.82083654  0.75324116  1
  Cu  Cu111  1  0.17166317  0.83579885  0.23863528  1
  Cu  Cu112  1  0.66267648  0.33009892  0.51072725  1
  Cu  Cu113  1  0.83384378  0.50099515  0.25287842  1
  Cu  Cu114  1  0.17596756  0.84161584  0.75999579  1
  Se  Se115  1  0.08537204  0.08372728  0.05312148  1
  Se  Se116  1  0.07710296  0.07354937  0.55712460  1
  Se  Se117  1  0.07341904  0.41709951  0.05556976  1
  Se  Se118  1  0.09066534  0.42110579  0.55447244  1
  Se  Se119  1  0.08182378  0.74721485  0.05687252  1
  Se  Se120  1  0.07441416  0.74285664  0.56599761  1
  Se  Se121  1  0.42038881  0.08590575  0.05528509  1
  Se  Se122  1  0.41622874  0.08198365  0.56400225  1
  Se  Se123  1  0.40750006  0.40883551  0.05499152  1
  Se  Se124  1  0.42069606  0.41989935  0.54912121  1
  Se  Se125  1  0.43403818  0.76930744  0.04994194  1
  Se  Se126  1  0.40606697  0.74063339  0.55807790  1
  Se  Se127  1  0.75340256  0.08224599  0.04985607  1
  Se  Se128  1  0.73462525  0.08371115  0.56832570  1
  Se  Se129  1  0.74334867  0.41514403  0.04960808  1
  Se  Se130  1  0.75206334  0.42098083  0.55017573  1
  Se  Se131  1  0.74991525  0.74600704  0.05072843  1
  Se  Se132  1  0.74997769  0.75625977  0.55384174  1
  Se  Se133  1  0.25546632  0.25438273  0.04234555  1
  Se  Se134  1  0.26317801  0.25107123  0.56563428  1
  Se  Se135  1  0.25080777  0.58440801  0.05074029  1
  Se  Se136  1  0.24161512  0.57571975  0.55156646  1
  Se  Se137  1  0.25479869  0.92406838  0.04987291  1
  Se  Se138  1  0.25152457  0.91636636  0.55695607  1
  Se  Se139  1  0.58385321  0.25177960  0.05317150  1
  Se  Se140  1  0.58777717  0.24239712  0.56735137  1
  Se  Se141  1  0.58673247  0.58623957  0.06139498  1
  Se  Se142  1  0.58422906  0.58485173  0.55065324  1
  Se  Se143  1  0.58539048  0.91892408  0.04485997  1
  Se  Se144  1  0.58204029  0.91772134  0.56480604  1
  Se  Se145  1  0.90657182  0.24425099  0.05237286  1
  Se  Se146  1  0.92224439  0.26814044  0.56576337  1
  Se  Se147  1  0.90785760  0.57715347  0.05523602  1
  Se  Se148  1  0.91705816  0.58720090  0.54921144  1
  Se  Se149  1  0.91767416  0.91025212  0.05436682  1
  Se  Se150  1  0.90960835  0.91451129  0.55223384  1
  Se  Se151  1  0.07389900  0.25893918  0.44304842  1
  Se  Se152  1  0.07944086  0.24991022  0.95583863  1
  Se  Se153  1  0.08529740  0.59207460  0.44213646  1
  Se  Se154  1  0.07735546  0.58371726  0.95185336  1
  Se  Se155  1  0.07711892  0.92489619  0.43619656  1
  Se  Se156  1  0.09185540  0.91344414  0.95130602  1
  Se  Se157  1  0.42048180  0.24004753  0.44939701  1
  Se  Se158  1  0.41215261  0.26695183  0.93090864  1
  Se  Se159  1  0.42408008  0.57682173  0.44903149  1
  Se  Se160  1  0.40851080  0.59453367  0.94177861  1
  Se  Se161  1  0.40467443  0.91759086  0.43924701  1
  Se  Se162  1  0.42655254  0.92835578  0.94284800  1
  Se  Se163  1  0.74399301  0.25613039  0.44292616  1
  Se  Se164  1  0.74698895  0.24258305  0.94022664  1
  Se  Se165  1  0.75305455  0.58467844  0.44407740  1
  Se  Se166  1  0.74375042  0.57193338  0.94275517  1
  Se  Se167  1  0.74944028  0.92272767  0.45255749  1
  Se  Se168  1  0.75560313  0.90723837  0.94479852  1
  Se  Se169  1  0.25341654  0.07449637  0.44054440  1
  Se  Se170  1  0.25656136  0.09381793  0.94290467  1
  Se  Se171  1  0.25179211  0.41011775  0.45011620  1
  Se  Se172  1  0.23229009  0.44167306  0.95317645  1
  Se  Se173  1  0.25454723  0.73707714  0.43921607  1
  Se  Se174  1  0.25460815  0.75759145  0.96069814  1
  Se  Se175  1  0.57547432  0.08263019  0.45386971  1
  Se  Se176  1  0.59933796  0.07801479  0.92961331  1
  Se  Se177  1  0.58512105  0.41201505  0.44956832  1
  Se  Se178  1  0.58254041  0.40416991  0.93199553  1
  Se  Se179  1  0.59114872  0.74143382  0.43628814  1
  Se  Se180  1  0.58413300  0.74497558  0.94451664  1
  Se  Se181  1  0.91775851  0.08774689  0.44350730  1
  Se  Se182  1  0.92114318  0.07488984  0.94687577  1
  Se  Se183  1  0.91598856  0.42433512  0.44629764  1
  Se  Se184  1  0.90798552  0.41630997  0.94843637  1
  Se  Se185  1  0.91615623  0.75830008  0.44213874  1
  Se  Se186  1  0.91344281  0.74585296  0.94948459  1
  Se  Se187  1  0.24073311  0.23926118  0.30164228  1
  Se  Se188  1  0.24771862  0.26870630  0.81048363  1
  Se  Se189  1  0.26671088  0.58141173  0.30230367  1
  Se  Se190  1  0.24155638  0.58524569  0.81306932  1
  Se  Se191  1  0.25366299  0.91837669  0.29581868  1
  Se  Se192  1  0.25837506  0.92486381  0.81149741  1
  Se  Se193  1  0.58316153  0.24712840  0.30567963  1
  Se  Se194  1  0.58291144  0.24463921  0.78860542  1
  Se  Se195  1  0.57723700  0.57438146  0.31280152  1
  Se  Se196  1  0.57131234  0.57357693  0.79592479  1
  Se  Se197  1  0.56825558  0.90549224  0.30652216  1
  Se  Se198  1  0.58917517  0.91801790  0.80526541  1
  Se  Se199  1  0.90786315  0.24591093  0.30841294  1
  Se  Se200  1  0.91599942  0.24179499  0.81152454  1
  Se  Se201  1  0.91897111  0.58583900  0.30153575  1
  Se  Se202  1  0.90486898  0.57103496  0.81001614  1
  Se  Se203  1  0.91703383  0.92127697  0.30147456  1
  Se  Se204  1  0.91162351  0.89930669  0.81272889  1
  Se  Se205  1  0.07670105  0.07935583  0.29538061  1
  Se  Se206  1  0.09537980  0.09352526  0.81187679  1
  Se  Se207  1  0.09125163  0.42258418  0.30994305  1
  Se  Se208  1  0.08712238  0.41843789  0.81539633  1
  Se  Se209  1  0.09183384  0.75418618  0.29815418  1
  Se  Se210  1  0.10083283  0.75687165  0.81849762  1
  Se  Se211  1  0.41384593  0.08073361  0.30360912  1
  Se  Se212  1  0.42911887  0.10318599  0.79638035  1
  Se  Se213  1  0.42035475  0.41406489  0.31278868  1
  Se  Se214  1  0.43211848  0.45292087  0.80523470  1
  Se  Se215  1  0.40941868  0.74144204  0.29609787  1
  Se  Se216  1  0.42034772  0.76052061  0.81714508  1
  Se  Se217  1  0.75641900  0.09255031  0.31221186  1
  Se  Se218  1  0.75898258  0.07493815  0.79846079  1
  Se  Se219  1  0.74758823  0.41646810  0.30146788  1
  Se  Se220  1  0.74660474  0.40933517  0.80230610  1
  Se  Se221  1  0.75298611  0.76052017  0.30913937  1
  Se  Se222  1  0.74352811  0.73883981  0.80630759  1
  Se  Se223  1  0.25132279  0.08058212  0.19149031  1
  Se  Se224  1  0.25464850  0.08249380  0.70513512  1
  Se  Se225  1  0.23583489  0.42291888  0.19133482  1
  Se  Se226  1  0.24941497  0.42001752  0.69886989  1
  Se  Se227  1  0.25424452  0.75125194  0.18670605  1
  Se  Se228  1  0.24858069  0.75864208  0.69555973  1
  Se  Se229  1  0.57804437  0.08777734  0.18870324  1
  Se  Se230  1  0.60940920  0.06715414  0.70201700  1
  Se  Se231  1  0.58471961  0.40856721  0.20219034  1
  Se  Se232  1  0.60147663  0.40262004  0.68912006  1
  Se  Se233  1  0.57641554  0.75101080  0.18700842  1
  Se  Se234  1  0.58013942  0.74889198  0.70186004  1
  Se  Se235  1  0.91367211  0.08264658  0.19470014  1
  Se  Se236  1  0.91819845  0.08101147  0.69132476  1
  Se  Se237  1  0.90955042  0.42163485  0.18745390  1
  Se  Se238  1  0.91435985  0.42367313  0.68789152  1
  Se  Se239  1  0.91793975  0.74947286  0.19880609  1
  Se  Se240  1  0.91346224  0.74768046  0.69267965  1
  Se  Se241  1  0.08698065  0.24867527  0.18223161  1
  Se  Se242  1  0.09901431  0.23864325  0.69491445  1
  Se  Se243  1  0.08264076  0.59034715  0.19897698  1
  Se  Se244  1  0.08527347  0.58077039  0.69776015  1
  Se  Se245  1  0.08169226  0.91973384  0.19281810  1
  Se  Se246  1  0.09321845  0.91218014  0.69488425  1
  Se  Se247  1  0.42305630  0.23936273  0.18541387  1
  Se  Se248  1  0.40331118  0.27970980  0.69691078  1
  Se  Se249  1  0.41775322  0.57449829  0.19463668  1
  Se  Se250  1  0.41818788  0.57805378  0.68179085  1
  Se  Se251  1  0.41269209  0.92040532  0.19230163  1
  Se  Se252  1  0.41683014  0.92232203  0.70372847  1
  Se  Se253  1  0.74386257  0.25297852  0.19409437  1
  Se  Se254  1  0.77495501  0.23236502  0.70166147  1
  Se  Se255  1  0.75391109  0.57759260  0.18804321  1
  Se  Se256  1  0.74632007  0.58404834  0.69330380  1
  Se  Se257  1  0.74853372  0.91188727  0.18806417  1
  Se  Se258  1  0.75263518  0.90956873  0.69861066  1
