# generated using pymatgen
data_In86Cu29Se144
_symmetry_space_group_name_H-M   'P 1'
_cell_length_a   17.61629159
_cell_length_b   17.61924773
_cell_length_c   23.47605770
_cell_angle_alpha   90.00625239
_cell_angle_beta   89.99290046
_cell_angle_gamma   90.01815942
_symmetry_Int_Tables_number   1
_chemical_formula_structural   In86Cu29Se144
_chemical_formula_sum   'In86 Cu29 Se144'
_cell_volume   7286.63461745
_cell_formula_units_Z   1
loop_
 _symmetry_equiv_pos_site_id
 _symmetry_equiv_pos_as_xyz
  1  'x, y, z'
loop_
 _atom_site_type_symbol
 _atom_site_label
 _atom_site_symmetry_multiplicity
 _atom_site_fract_x
 _atom_site_fract_y
 _atom_site_fract_z
 _atom_site_occupancy
  In  In0  1  -0.00106533  0.16430127  0.13383650  1
  In  In1  1  0.00924072  0.17693500  0.61779990  1
  In  In2  1  0.00078910  0.49868331  0.12536490  1
  In  In3  1  -0.00925239  0.49901543  0.61481755  1
  In  In4  1  0.02652440  0.81994175  0.15263598  1
  In  In5  1  -0.00202315  0.82223926  0.60309482  1
  In  In6  1  0.32437143  0.17738620  0.11787908  1
  In  In7  1  0.32890204  0.17728034  0.63042225  1
  In  In8  1  0.33081718  0.51891553  0.12895263  1
  In  In9  1  0.32258898  0.50811221  0.63322823  1
  In  In10  1  0.32310781  0.82288896  0.11865312  1
  In  In11  1  0.32290469  0.82493021  0.62100213  1
  In  In12  1  0.71149439  0.14823704  0.15060048  1
  In  In13  1  0.66871069  0.16394769  0.62082214  1
  In  In14  1  0.67374728  0.48312903  0.13560166  1
  In  In15  1  0.68444443  0.50425804  0.61783457  1
  In  In16  1  0.66925457  0.84729043  0.12461636  1
  In  In17  1  0.65729425  0.82525921  0.62105245  1
  In  In18  1  0.15919288  0.00686534  0.37855569  1
  In  In19  1  0.16646944  -0.00206299  0.88741805  1
  In  In20  1  0.14048355  0.35377670  0.38080936  1
  In  In21  1  0.16043443  0.33532083  0.87279908  1
  In  In22  1  0.16061519  0.66406993  0.37340263  1
  In  In23  1  0.17257788  0.65828612  0.87858174  1
  In  In24  1  0.51650394  -0.00622843  0.37238507  1
  In  In25  1  0.49413614  -0.00094544  0.88570556  1
  In  In26  1  0.50349483  0.32562560  0.37672532  1
  In  In27  1  0.50045710  0.34824684  0.87604636  1
  In  In28  1  0.49594511  0.67855699  0.37072142  1
  In  In29  1  0.50048262  0.66816707  0.87127705  1
  In  In30  1  0.83243300  0.00365393  0.36749055  1
  In  In31  1  0.84334885  0.00587615  0.88072767  1
  In  In32  1  0.84548051  0.33107259  0.36235413  1
  In  In33  1  0.83947471  0.32908693  0.88479102  1
  In  In34  1  0.86436107  0.64842688  0.40074861  1
  In  In35  1  0.81923877  0.66564389  0.87546004  1
  In  In36  1  -0.00236995  0.16695407  0.36990441  1
  In  In37  1  -0.01231745  0.17483323  0.88431332  1
  In  In38  1  -0.00199732  0.50084668  0.36377543  1
  In  In39  1  0.00960288  0.49241314  0.88369168  1
  In  In40  1  0.00237480  0.83086815  0.37601262  1
  In  In41  1  -0.00091264  0.84070277  0.88031577  1
  In  In42  1  0.32384731  0.15914075  0.37625595  1
  In  In43  1  0.31694785  0.16768702  0.87767135  1
  In  In44  1  0.30806869  0.51498837  0.38558007  1
  In  In45  1  0.32218395  0.49344661  0.86354944  1
  In  In46  1  0.30907843  0.79808570  0.35122591  1
  In  In47  1  0.33582961  0.83059922  0.87915573  1
  In  In48  1  0.69589461  0.18896172  0.34490266  1
  In  In49  1  0.67539723  0.17424801  0.88316311  1
  In  In50  1  0.70557282  0.50324469  0.36256422  1
  In  In51  1  0.66220696  0.50657465  0.88072290  1
  In  In52  1  0.67354457  0.85175202  0.36170704  1
  In  In53  1  0.66983204  0.81535011  0.87909031  1
  In  In54  1  0.16232105  -0.00598009  0.12948492  1
  In  In55  1  0.15833638  -0.00744272  0.61434180  1
  In  In56  1  0.15304153  0.32632945  0.11662654  1
  In  In57  1  0.16052130  0.33536935  0.62602114  1
  In  In58  1  0.16939441  0.66952103  0.12673940  1
  In  In59  1  0.17516836  0.67118699  0.60594035  1
  In  In60  1  0.52369129  -0.00437631  0.11936014  1
  In  In61  1  0.50317341  -0.00464546  0.62504651  1
  In  In62  1  0.50299510  0.33905660  0.12438453  1
  In  In63  1  0.49748430  0.32286448  0.62565951  1
  In  In64  1  0.48338528  0.66557934  0.12750747  1
  In  In65  1  0.49900593  0.66972843  0.63115603  1
  In  In66  1  0.84240509  -0.00089883  0.14188020  1
  In  In67  1  0.84006212  0.00777781  0.61313695  1
  In  In68  1  0.84535154  0.33626179  0.13224371  1
  In  In69  1  0.84519972  0.33946917  0.61714620  1
  In  In70  1  0.84919436  0.66536674  0.13075802  1
  In  In71  1  0.82928822  0.66068547  0.61505862  1
  In  In72  1  0.50584350  0.16778815  0.00266219  1
  In  In73  1  0.32555542  -0.00570512  0.74479928  1
  In  In74  1  0.49799852  0.83971948  0.49570737  1
  In  In75  1  0.34059902  -0.00620027  0.25026922  1
  In  In76  1  0.50120177  0.15872384  0.50472465  1
  In  In77  1  0.00152539  0.00256496  0.74931054  1
  In  In78  1  -0.00193665  0.66138378  0.74491069  1
  In  In79  1  0.67259901  0.67304115  0.24943273  1
  In  In80  1  0.49940783  0.50471233  0.00186280  1
  In  In81  1  0.83668375  0.84069790  0.00929440  1
  In  In82  1  0.50296948  0.49341701  0.49491039  1
  In  In83  1  0.66332092  0.34121756  0.74870718  1
  In  In84  1  0.66348054  -0.00347102  0.75228864  1
  In  In85  1  0.33443841  0.34475708  0.25470730  1
  Cu  Cu86  1  0.50404539  0.16470115  0.24443034  1
  Cu  Cu87  1  0.49868864  0.82241585  0.75685964  1
  Cu  Cu88  1  0.17229790  0.17436444  0.25351329  1
  Cu  Cu89  1  0.68052394  0.32445342  0.01353892  1
  Cu  Cu90  1  0.49366051  0.50626765  0.25796144  1
  Cu  Cu91  1  -0.00059392  0.33407626  0.00513854  1
  Cu  Cu92  1  0.00160660  -0.00041140  0.01108014  1
  Cu  Cu93  1  0.32420162  0.33986630  -0.00563420  1
  Cu  Cu94  1  0.83247390  0.50189696  0.74456296  1
  Cu  Cu95  1  0.15843245  0.17417550  0.75256173  1
  Cu  Cu96  1  0.32962120  -0.00196578  0.00447502  1
  Cu  Cu97  1  0.84017731  0.82642303  0.25807341  1
  Cu  Cu98  1  0.32714720  -0.00588381  0.49521474  1
  Cu  Cu99  1  0.82463966  0.83107166  0.74358260  1
  Cu  Cu100  1  0.16290586  0.50180080  0.24952778  1
  Cu  Cu101  1  0.83740859  0.17690091  0.75311281  1
  Cu  Cu102  1  0.67843793  0.01414752  0.48974330  1
  Cu  Cu103  1  -0.00540824  0.32795700  0.49489147  1
  Cu  Cu104  1  0.16327619  0.82464152  0.74304649  1
  Cu  Cu105  1  0.67107385  0.67088263  0.49654815  1
  Cu  Cu106  1  0.49830474  0.50459083  0.74993653  1
  Cu  Cu107  1  0.00220725  0.66965024  0.00892987  1
  Cu  Cu108  1  0.16100119  0.49816949  0.74803454  1
  Cu  Cu109  1  -0.00250787  -0.00124604  0.49093768  1
  Cu  Cu110  1  0.66609403  0.66092378  0.00245117  1
  Cu  Cu111  1  0.68249579  0.33255136  0.48732282  1
  Cu  Cu112  1  0.49003154  0.17025781  0.75538994  1
  Cu  Cu113  1  0.32733029  0.66899507  -0.00037378  1
  Cu  Cu114  1  0.32387838  0.32929975  0.50493951  1
  Se  Se115  1  0.08429007  0.08486741  0.06370444  1
  Se  Se116  1  0.07768464  0.08045658  0.55059056  1
  Se  Se117  1  0.08475370  0.42296615  0.05096832  1
  Se  Se118  1  0.07621758  0.40959323  0.55336613  1
  Se  Se119  1  0.08237398  0.75605901  0.06136976  1
  Se  Se120  1  0.08500957  0.74373925  0.53953827  1
  Se  Se121  1  0.41226334  0.07887877  0.06199974  1
  Se  Se122  1  0.40281637  0.07041052  0.56229747  1
  Se  Se123  1  0.40383564  0.41379744  0.05858769  1
  Se  Se124  1  0.41285672  0.40784177  0.55844722  1
  Se  Se125  1  0.41631012  0.74759507  0.05083182  1
  Se  Se126  1  0.41437724  0.74260220  0.55428323  1
  Se  Se127  1  0.76024909  0.07054391  0.06608357  1
  Se  Se128  1  0.75517685  0.09515080  0.54984512  1
  Se  Se129  1  0.75877012  0.41726105  0.06073844  1
  Se  Se130  1  0.75616865  0.41584499  0.54902963  1
  Se  Se131  1  0.74798327  0.74069286  0.06312715  1
  Se  Se132  1  0.74821352  0.75596301  0.55308534  1
  Se  Se133  1  0.24365004  0.25271312  0.04612705  1
  Se  Se134  1  0.24268375  0.24559143  0.55855237  1
  Se  Se135  1  0.24662159  0.58418968  0.05336594  1
  Se  Se136  1  0.25791660  0.57438642  0.55030741  1
  Se  Se137  1  0.24366996  0.91680035  0.05691414  1
  Se  Se138  1  0.24801134  0.91065428  0.55172385  1
  Se  Se139  1  0.59426197  0.24691806  0.06958673  1
  Se  Se140  1  0.59623663  0.26290717  0.55095420  1
  Se  Se141  1  0.59051088  0.58391671  0.06821227  1
  Se  Se142  1  0.58734831  0.59166445  0.55635422  1
  Se  Se143  1  0.58894548  0.91042206  0.04552675  1
  Se  Se144  1  0.59699823  0.93422895  0.55126288  1
  Se  Se145  1  0.92102540  0.24937556  0.06149976  1
  Se  Se146  1  0.91344645  0.24447329  0.55020794  1
  Se  Se147  1  0.91735326  0.58263696  0.05530511  1
  Se  Se148  1  0.92244927  0.59327994  0.54806381  1
  Se  Se149  1  0.93249895  0.91423186  0.07401432  1
  Se  Se150  1  0.91413748  0.91781905  0.54662672  1
  Se  Se151  1  0.08029394  0.24663877  0.44198818  1
  Se  Se152  1  0.08140418  0.25339364  0.94580383  1
  Se  Se153  1  0.10517262  0.54987295  0.43059963  1
  Se  Se154  1  0.08114957  0.58889179  0.94808818  1
  Se  Se155  1  0.08727731  0.91450457  0.44556885  1
  Se  Se156  1  0.08015788  0.91529029  0.95263865  1
  Se  Se157  1  0.40753221  0.25145924  0.44669979  1
  Se  Se158  1  0.41361577  0.25846475  0.94115666  1
  Se  Se159  1  0.41638511  0.59233501  0.44268328  1
  Se  Se160  1  0.40548269  0.58535055  0.93876829  1
  Se  Se161  1  0.40986395  0.92402341  0.43232160  1
  Se  Se162  1  0.41207368  0.91533372  0.95080335  1
  Se  Se163  1  0.76056391  0.24760216  0.43339421  1
  Se  Se164  1  0.76021085  0.24422851  0.95490193  1
  Se  Se165  1  0.75181202  0.57714897  0.45126163  1
  Se  Se166  1  0.75150124  0.57945855  0.95007067  1
  Se  Se167  1  0.75128659  0.92009950  0.44012567  1
  Se  Se168  1  0.74809667  0.91905925  0.93863673  1
  Se  Se169  1  0.24498869  0.08545366  0.44984251  1
  Se  Se170  1  0.24859403  0.08481954  0.95243197  1
  Se  Se171  1  0.24570177  0.41093425  0.44725102  1
  Se  Se172  1  0.24333826  0.42269063  0.94002947  1
  Se  Se173  1  0.25018182  0.74439883  0.44075335  1
  Se  Se174  1  0.24452292  0.75329044  0.94481402  1
  Se  Se175  1  0.59374548  0.09267172  0.43375755  1
  Se  Se176  1  0.59720558  0.07485625  0.94459702  1
  Se  Se177  1  0.60018291  0.41545095  0.43195144  1
  Se  Se178  1  0.59651996  0.40384046  0.95309317  1
  Se  Se179  1  0.59401807  0.75236967  0.43741417  1
  Se  Se180  1  0.58166079  0.74138070  0.94766568  1
  Se  Se181  1  0.91463475  0.08360116  0.43960043  1
  Se  Se182  1  0.91904085  0.08175345  0.95471608  1
  Se  Se183  1  0.92030693  0.41325218  0.43608555  1
  Se  Se184  1  0.91686038  0.41871989  0.95039061  1
  Se  Se185  1  0.91218482  0.76726230  0.45089350  1
  Se  Se186  1  0.91881034  0.74394354  0.94416505  1
  Se  Se187  1  0.24410587  0.25701391  0.31584653  1
  Se  Se188  1  0.24805928  0.25221771  0.80479712  1
  Se  Se189  1  0.24891383  0.58490905  0.30023988  1
  Se  Se190  1  0.24436932  0.58537205  0.79863314  1
  Se  Se191  1  0.23910384  0.91543585  0.30580277  1
  Se  Se192  1  0.23488507  0.90914902  0.80687298  1
  Se  Se193  1  0.57791672  0.25463522  0.29910865  1
  Se  Se194  1  0.57853049  0.24404043  0.81210765  1
  Se  Se195  1  0.58600087  0.57940059  0.31417709  1
  Se  Se196  1  0.58448523  0.58088050  0.80606352  1
  Se  Se197  1  0.57092203  0.90657970  0.29502138  1
  Se  Se198  1  0.57337412  0.90936852  0.81384771  1
  Se  Se199  1  0.90067553  0.22308902  0.29645385  1
  Se  Se200  1  0.91911833  0.25790272  0.80776060  1
  Se  Se201  1  0.89911584  0.58137468  0.30757403  1
  Se  Se202  1  0.91060357  0.57728090  0.81086340  1
  Se  Se203  1  0.92196228  0.91781011  0.30599079  1
  Se  Se204  1  0.90481745  0.90920903  0.80481872  1
  Se  Se205  1  0.08841322  0.08726555  0.30290664  1
  Se  Se206  1  0.08730524  0.08807359  0.81469193  1
  Se  Se207  1  0.07536492  0.41287076  0.29231067  1
  Se  Se208  1  0.07682221  0.41750596  0.80281450  1
  Se  Se209  1  0.07679847  0.74481463  0.30534322  1
  Se  Se210  1  0.08127131  0.75453553  0.80919994  1
  Se  Se211  1  0.42654290  0.09270533  0.31032127  1
  Se  Se212  1  0.41478881  0.08259352  0.81065888  1
  Se  Se213  1  0.41695747  0.43022874  0.32320426  1
  Se  Se214  1  0.41868899  0.41619376  0.80129636  1
  Se  Se215  1  0.43627483  0.77312579  0.30094798  1
  Se  Se216  1  0.40726492  0.74576574  0.80608805  1
  Se  Se217  1  0.72541019  0.05940391  0.30186705  1
  Se  Se218  1  0.75761792  0.09163056  0.80751451  1
  Se  Se219  1  0.74435740  0.39605391  0.29454858  1
  Se  Se220  1  0.75528923  0.42372775  0.81084092  1
  Se  Se221  1  0.76315686  0.74516582  0.31963819  1
  Se  Se222  1  0.74750340  0.74829300  0.80032713  1
  Se  Se223  1  0.25313885  0.09442861  0.19506545  1
  Se  Se224  1  0.23214721  0.08778422  0.69139678  1
  Se  Se225  1  0.24303108  0.42093053  0.18751207  1
  Se  Se226  1  0.24750848  0.41321873  0.69645225  1
  Se  Se227  1  0.25534829  0.74629599  0.19700431  1
  Se  Se228  1  0.24457084  0.74139634  0.69041082  1
  Se  Se229  1  0.58898796  0.08380954  0.19284736  1
  Se  Se230  1  0.57267892  0.09384451  0.69539570  1
  Se  Se231  1  0.56924202  0.42265473  0.19997657  1
  Se  Se232  1  0.57696924  0.42931118  0.68417547  1
  Se  Se233  1  0.58079357  0.75313137  0.18571120  1
  Se  Se234  1  0.58575615  0.74951485  0.69883534  1
  Se  Se235  1  0.89924640  0.10788832  0.20574895  1
  Se  Se236  1  0.91125610  0.09384802  0.69142307  1
  Se  Se237  1  0.93898134  0.40766199  0.19975065  1
  Se  Se238  1  0.91689628  0.41986168  0.69239500  1
  Se  Se239  1  0.92319171  0.74194624  0.20635007  1
  Se  Se240  1  0.91197293  0.75745348  0.68597688  1
  Se  Se241  1  0.08720371  0.25237166  0.19742592  1
  Se  Se242  1  0.07571827  0.25451341  0.69715850  1
  Se  Se243  1  0.08317442  0.58577331  0.19275276  1
  Se  Se244  1  0.08893290  0.57836847  0.68269691  1
  Se  Se245  1  0.07495533  0.93736573  0.20699343  1
  Se  Se246  1  0.07904020  0.90362339  0.68673171  1
  Se  Se247  1  0.41730919  0.24654895  0.19246880  1
  Se  Se248  1  0.41284484  0.25443959  0.70046934  1
  Se  Se249  1  0.41076531  0.58938630  0.20541439  1
  Se  Se250  1  0.41452169  0.58683854  0.69707438  1
  Se  Se251  1  0.41989208  0.91588968  0.17731801  1
  Se  Se252  1  0.42441104  0.90278618  0.69204256  1
  Se  Se253  1  0.73661357  0.27819364  0.19695601  1
  Se  Se254  1  0.75270731  0.24863515  0.69101105  1
  Se  Se255  1  0.76090468  0.57528064  0.19591844  1
  Se  Se256  1  0.75099358  0.58793709  0.69356313  1
  Se  Se257  1  0.75729528  0.90599044  0.20144504  1
  Se  Se258  1  0.75379291  0.91810866  0.68447636  1
