# generated using pymatgen
data_In86Cu29Se144
_symmetry_space_group_name_H-M   'P 1'
_cell_length_a   17.59810404
_cell_length_b   17.59056203
_cell_length_c   23.46124574
_cell_angle_alpha   90.01595314
_cell_angle_beta   89.98676708
_cell_angle_gamma   89.98494789
_symmetry_Int_Tables_number   1
_chemical_formula_structural   In86Cu29Se144
_chemical_formula_sum   'In86 Cu29 Se144'
_cell_volume   7262.67519197
_cell_formula_units_Z   1
loop_
 _symmetry_equiv_pos_site_id
 _symmetry_equiv_pos_as_xyz
  1  'x, y, z'
loop_
 _atom_site_type_symbol
 _atom_site_label
 _atom_site_symmetry_multiplicity
 _atom_site_fract_x
 _atom_site_fract_y
 _atom_site_fract_z
 _atom_site_occupancy
  In  In0  1  0.00180379  0.17612845  0.13381794  1
  In  In1  1  0.01747770  0.18924474  0.59882610  1
  In  In2  1  0.00599297  0.48805076  0.13211189  1
  In  In3  1  -0.00475791  0.50256507  0.63009323  1
  In  In4  1  0.00685575  0.82797409  0.12634596  1
  In  In5  1  -0.01242838  0.82749774  0.62689819  1
  In  In6  1  0.32224988  0.15306620  0.12802281  1
  In  In7  1  0.34244748  0.17665077  0.62297219  1
  In  In8  1  0.33880241  0.49681513  0.10866551  1
  In  In9  1  0.32569047  0.47874118  0.62538474  1
  In  In10  1  0.34066011  0.84183269  0.11812627  1
  In  In11  1  0.32772961  0.83427417  0.62924997  1
  In  In12  1  0.67692386  0.16855655  0.11916068  1
  In  In13  1  0.66613466  0.16872301  0.62319766  1
  In  In14  1  0.65700263  0.50482461  0.12960609  1
  In  In15  1  0.67480931  0.50955785  0.61645547  1
  In  In16  1  0.64775458  0.83339586  0.12358014  1
  In  In17  1  0.67515732  0.83215431  0.63506013  1
  In  In18  1  0.17815843  0.02349450  0.35421956  1
  In  In19  1  0.15169736  -0.00117182  0.88473117  1
  In  In20  1  0.14339711  0.32751270  0.37376580  1
  In  In21  1  0.17937711  0.34099797  0.86362936  1
  In  In22  1  0.16196079  0.67778265  0.37342180  1
  In  In23  1  0.16072178  0.66968132  0.88131404  1
  In  In24  1  0.50554808  0.01648840  0.36928719  1
  In  In25  1  0.51014725  -0.00585715  0.88712406  1
  In  In26  1  0.51067242  0.32886932  0.37717023  1
  In  In27  1  0.49369664  0.33619360  0.88725489  1
  In  In28  1  0.51117026  0.65032830  0.38015654  1
  In  In29  1  0.50356464  0.65982852  0.87760819  1
  In  In30  1  0.84712324  -0.00117698  0.37158316  1
  In  In31  1  0.83318395  0.01745927  0.88072668  1
  In  In32  1  0.83517715  0.33668116  0.38251785  1
  In  In33  1  0.83305196  0.31584341  0.87558558  1
  In  In34  1  0.82392080  0.65335633  0.36448137  1
  In  In35  1  0.83190917  0.66515631  0.86648939  1
  In  In36  1  -0.00134014  0.17102672  0.37972201  1
  In  In37  1  -0.00616609  0.16532327  0.87338404  1
  In  In38  1  -0.02160134  0.47965411  0.36388537  1
  In  In39  1  0.00769387  0.50458528  0.87179264  1
  In  In40  1  -0.00056238  0.83582798  0.36378750  1
  In  In41  1  0.01173421  0.83641539  0.88087273  1
  In  In42  1  0.34090463  0.16700437  0.37513367  1
  In  In43  1  0.33906907  0.19266106  0.87450253  1
  In  In44  1  0.34164585  0.50601810  0.37966970  1
  In  In45  1  0.33717905  0.48175778  0.88641772  1
  In  In46  1  0.32292990  0.84029253  0.37007437  1
  In  In47  1  0.32875310  0.84013107  0.88363771  1
  In  In48  1  0.65762939  0.17768816  0.38007869  1
  In  In49  1  0.67147113  0.15914497  0.88540743  1
  In  In50  1  0.67384131  0.50110666  0.37757339  1
  In  In51  1  0.65302681  0.50302105  0.87118968  1
  In  In52  1  0.67804915  0.82475243  0.36989923  1
  In  In53  1  0.66258882  0.82836879  0.87105545  1
  In  In54  1  0.17513495  0.00209639  0.13171853  1
  In  In55  1  0.15228526  0.01082867  0.62616865  1
  In  In56  1  0.15463940  0.32567867  0.12302685  1
  In  In57  1  0.17205408  0.32149778  0.63585989  1
  In  In58  1  0.16215945  0.65627479  0.11915493  1
  In  In59  1  0.15861142  0.65014304  0.62824329  1
  In  In60  1  0.49675034  -0.01083261  0.11707827  1
  In  In61  1  0.50385469  0.02139326  0.62593405  1
  In  In62  1  0.50731313  0.34406011  0.11820487  1
  In  In63  1  0.49699344  0.32790069  0.62191946  1
  In  In64  1  0.49957437  0.66651032  0.12003150  1
  In  In65  1  0.51551392  0.66134120  0.63022278  1
  In  In66  1  0.83536627  0.01947243  0.11930621  1
  In  In67  1  0.82593770  0.00041099  0.62702970  1
  In  In68  1  0.84068602  0.31769618  0.13214457  1
  In  In69  1  0.84862397  0.34602093  0.60929193  1
  In  In70  1  0.83351505  0.66036832  0.13271799  1
  In  In71  1  0.83511917  0.66182806  0.62980653  1
  In  In72  1  -0.00491883  0.00313229  0.75681029  1
  In  In73  1  0.33404741  0.00668208  0.75058417  1
  In  In74  1  0.16455686  0.49485127  0.49593857  1
  In  In75  1  0.33427491  0.66027426  0.76352761  1
  In  In76  1  0.16615949  0.84062594  0.50063004  1
  In  In77  1  0.50439668  0.83741864  0.49263570  1
  In  In78  1  0.33668618  0.67076549  0.24917321  1
  In  In79  1  0.83070042  0.83937914  0.00648001  1
  In  In80  1  0.66946434  -0.00138649  0.24311553  1
  In  In81  1  0.83140364  0.49523379  0.00441094  1
  In  In82  1  0.17175234  0.17085457  0.00020452  1
  In  In83  1  0.32541916  0.33001392  0.24393862  1
  In  In84  1  0.83384268  0.83316273  0.50035742  1
  In  In85  1  0.66733339  0.33541248  0.75014366  1
  Cu  Cu86  1  0.49711699  0.83027711  0.24351337  1
  Cu  Cu87  1  0.83556612  0.82861337  0.24501888  1
  Cu  Cu88  1  0.00539876  0.00843085  0.49076398  1
  Cu  Cu89  1  0.67003287  0.32909002  -0.00210622  1
  Cu  Cu90  1  0.83135013  0.17194514  0.25390435  1
  Cu  Cu91  1  0.50604131  0.49615172  0.25179331  1
  Cu  Cu92  1  0.83520041  0.16728536  0.74776746  1
  Cu  Cu93  1  0.33138481  0.67122357  -0.00197845  1
  Cu  Cu94  1  0.33323870  0.00210483  0.00140855  1
  Cu  Cu95  1  0.15959530  0.82511609  0.75703393  1
  Cu  Cu96  1  0.34688778  0.66519641  0.50296350  1
  Cu  Cu97  1  0.83480210  0.49704540  0.74418700  1
  Cu  Cu98  1  0.50334171  0.17009730  0.75080613  1
  Cu  Cu99  1  0.33247122  0.01460825  0.49703053  1
  Cu  Cu100  1  0.00331304  0.66840106  -0.00030570  1
  Cu  Cu101  1  0.16441436  0.83666842  0.24663718  1
  Cu  Cu102  1  0.66508187  0.33691200  0.49989559  1
  Cu  Cu103  1  0.83088969  0.49360755  0.25119615  1
  Cu  Cu104  1  -0.00614137  0.66059984  0.49832756  1
  Cu  Cu105  1  0.50841070  0.84055112  0.75322580  1
  Cu  Cu106  1  0.66224976  0.00521921  0.50153638  1
  Cu  Cu107  1  0.49742752  0.49960575  0.75259496  1
  Cu  Cu108  1  0.33658925  0.32899704  0.49905185  1
  Cu  Cu109  1  0.82992108  0.83058360  0.75065850  1
  Cu  Cu110  1  0.16234017  0.50261130  0.24692682  1
  Cu  Cu111  1  0.00062426  0.33222009  0.00452008  1
  Cu  Cu112  1  0.49759125  0.16796260  0.25053837  1
  Cu  Cu113  1  0.65831471  0.66552076  -0.00040893  1
  Cu  Cu114  1  0.15861218  0.49262175  0.75098979  1
  Se  Se115  1  0.08387295  0.08584940  0.06398958  1
  Se  Se116  1  0.09417614  0.08604689  0.54295843  1
  Se  Se117  1  0.08433171  0.41821375  0.05366627  1
  Se  Se118  1  0.08534279  0.41323755  0.56654131  1
  Se  Se119  1  0.08717010  0.74996096  0.05310140  1
  Se  Se120  1  0.07696602  0.74106504  0.55679253  1
  Se  Se121  1  0.41290445  0.08364630  0.05795770  1
  Se  Se122  1  0.42003972  0.09061409  0.55196799  1
  Se  Se123  1  0.42543747  0.41750278  0.04470261  1
  Se  Se124  1  0.41604522  0.41482267  0.55310248  1
  Se  Se125  1  0.41777357  0.75068465  0.05260072  1
  Se  Se126  1  0.41707619  0.75258808  0.56239880  1
  Se  Se127  1  0.74011478  0.07435867  0.04849864  1
  Se  Se128  1  0.74877997  0.08252989  0.55564301  1
  Se  Se129  1  0.74464683  0.40646858  0.06553187  1
  Se  Se130  1  0.75152603  0.42153586  0.54899431  1
  Se  Se131  1  0.74315142  0.73865338  0.06042285  1
  Se  Se132  1  0.74390105  0.74419802  0.55936574  1
  Se  Se133  1  0.26200045  0.26003097  0.06063151  1
  Se  Se134  1  0.25128582  0.25303503  0.55623465  1
  Se  Se135  1  0.25025699  0.58361835  0.04899482  1
  Se  Se136  1  0.25782001  0.58709405  0.55759202  1
  Se  Se137  1  0.24772239  0.92145173  0.05535690  1
  Se  Se138  1  0.25881666  0.93220940  0.55995269  1
  Se  Se139  1  0.58671230  0.25038191  0.05516421  1
  Se  Se140  1  0.58411157  0.25051440  0.55363612  1
  Se  Se141  1  0.57927078  0.57786115  0.05257869  1
  Se  Se142  1  0.57563952  0.57938603  0.55322914  1
  Se  Se143  1  0.58631609  0.91701183  0.04807043  1
  Se  Se144  1  0.58884059  0.92061757  0.56280690  1
  Se  Se145  1  0.91947622  0.24553826  0.05559356  1
  Se  Se146  1  0.89249411  0.22830559  0.55234728  1
  Se  Se147  1  0.92484942  0.58629558  0.05973254  1
  Se  Se148  1  0.91498917  0.58197897  0.55740656  1
  Se  Se149  1  0.92691291  0.92558328  0.06095445  1
  Se  Se150  1  0.92918135  0.92774903  0.55480216  1
  Se  Se151  1  0.07593480  0.25365346  0.45228494  1
  Se  Se152  1  0.07977512  0.25684303  0.93906069  1
  Se  Se153  1  0.07700594  0.58683709  0.43591590  1
  Se  Se154  1  0.08324301  0.57922139  0.94865609  1
  Se  Se155  1  0.08342895  0.92348119  0.43277692  1
  Se  Se156  1  0.08521665  0.91176411  0.95598721  1
  Se  Se157  1  0.42209198  0.24947950  0.44388054  1
  Se  Se158  1  0.42531585  0.24123483  0.95427555  1
  Se  Se159  1  0.42593901  0.57747889  0.45254368  1
  Se  Se160  1  0.41169320  0.58543454  0.94333952  1
  Se  Se161  1  0.40814949  0.92843040  0.43807400  1
  Se  Se162  1  0.41745827  0.91545311  0.95092932  1
  Se  Se163  1  0.74750106  0.25119174  0.44767576  1
  Se  Se164  1  0.75747446  0.24333849  0.95212204  1
  Se  Se165  1  0.75629781  0.58560505  0.44544187  1
  Se  Se166  1  0.74436308  0.58744176  0.94197048  1
  Se  Se167  1  0.74178411  0.92551614  0.44024371  1
  Se  Se168  1  0.74476588  0.92094426  0.93901320  1
  Se  Se169  1  0.24699618  0.08850918  0.43950314  1
  Se  Se170  1  0.25985987  0.08082977  0.93566684  1
  Se  Se171  1  0.25609825  0.40507055  0.43506240  1
  Se  Se172  1  0.24081611  0.40884699  0.94853913  1
  Se  Se173  1  0.26136484  0.74352333  0.44617098  1
  Se  Se174  1  0.24511121  0.75376111  0.94734327  1
  Se  Se175  1  0.57883611  0.08739953  0.44771474  1
  Se  Se176  1  0.56526310  0.10272304  0.94809978  1
  Se  Se177  1  0.58358784  0.42011190  0.44443339  1
  Se  Se178  1  0.59014598  0.41752930  0.94676933  1
  Se  Se179  1  0.59898757  0.74214586  0.44443891  1
  Se  Se180  1  0.58082576  0.75077945  0.94376544  1
  Se  Se181  1  0.90943081  0.08553983  0.44637643  1
  Se  Se182  1  0.93678258  0.07147266  0.94555230  1
  Se  Se183  1  0.92029121  0.41785073  0.45113037  1
  Se  Se184  1  0.92020417  0.40937257  0.94092723  1
  Se  Se185  1  0.92161431  0.74628086  0.43659867  1
  Se  Se186  1  0.91510216  0.74320896  0.94309779  1
  Se  Se187  1  0.24140308  0.24623618  0.31062653  1
  Se  Se188  1  0.24803424  0.24356613  0.79876732  1
  Se  Se189  1  0.24450381  0.57755770  0.30897575  1
  Se  Se190  1  0.24001296  0.56923009  0.81539791  1
  Se  Se191  1  0.25197234  0.91991183  0.29586933  1
  Se  Se192  1  0.23960298  0.91400678  0.80849516  1
  Se  Se193  1  0.58393209  0.25014301  0.30059375  1
  Se  Se194  1  0.58180810  0.24886649  0.81433616  1
  Se  Se195  1  0.58919240  0.58082711  0.30368080  1
  Se  Se196  1  0.58123451  0.58845631  0.79883586  1
  Se  Se197  1  0.57877436  0.90859526  0.30713175  1
  Se  Se198  1  0.58715329  0.92603430  0.80722179  1
  Se  Se199  1  0.91377283  0.25294989  0.31015352  1
  Se  Se200  1  0.91883764  0.24976338  0.80079734  1
  Se  Se201  1  0.91837382  0.58241842  0.29794846  1
  Se  Se202  1  0.91582265  0.57829111  0.80347632  1
  Se  Se203  1  0.91522552  0.91695294  0.29546667  1
  Se  Se204  1  0.90759887  0.90854088  0.81527488  1
  Se  Se205  1  0.05567064  0.07053122  0.30930335  1
  Se  Se206  1  0.09584733  0.09118530  0.80692174  1
  Se  Se207  1  0.08120725  0.41647706  0.29904726  1
  Se  Se208  1  0.07444750  0.40878182  0.80329489  1
  Se  Se209  1  0.08356333  0.74943476  0.29815216  1
  Se  Se210  1  0.07483424  0.74359170  0.80831055  1
  Se  Se211  1  0.41323112  0.08294640  0.29953025  1
  Se  Se212  1  0.42463623  0.08954848  0.81320688  1
  Se  Se213  1  0.41787249  0.41851236  0.30690456  1
  Se  Se214  1  0.42113686  0.41495069  0.80952021  1
  Se  Se215  1  0.42712638  0.75447381  0.31513817  1
  Se  Se216  1  0.42208584  0.76383503  0.81121475  1
  Se  Se217  1  0.75035117  0.08699238  0.31135777  1
  Se  Se218  1  0.75165441  0.09020111  0.80598850  1
  Se  Se219  1  0.75032386  0.41242556  0.30890501  1
  Se  Se220  1  0.75909405  0.42345024  0.81306290  1
  Se  Se221  1  0.74968310  0.74541375  0.29536147  1
  Se  Se222  1  0.74460809  0.74619452  0.80152892  1
  Se  Se223  1  0.24113262  0.09107945  0.20519853  1
  Se  Se224  1  0.24461706  0.09259592  0.68893818  1
  Se  Se225  1  0.24486755  0.42929255  0.18482694  1
  Se  Se226  1  0.24988529  0.41106144  0.70401003  1
  Se  Se227  1  0.24638770  0.75494365  0.18663652  1
  Se  Se228  1  0.24195189  0.74758248  0.69600976  1
  Se  Se229  1  0.57566543  0.08735068  0.18737458  1
  Se  Se230  1  0.58993368  0.08854278  0.69961680  1
  Se  Se231  1  0.58622585  0.41061869  0.19799200  1
  Se  Se232  1  0.57879954  0.42426977  0.68877621  1
  Se  Se233  1  0.57995327  0.74304697  0.19513376  1
  Se  Se234  1  0.58498045  0.75179716  0.69957843  1
  Se  Se235  1  0.91225324  0.08971853  0.19720262  1
  Se  Se236  1  0.91687900  0.08861076  0.68726668  1
  Se  Se237  1  0.91552861  0.41131615  0.19753272  1
  Se  Se238  1  0.91681703  0.40976426  0.69510975  1
  Se  Se239  1  0.92148935  0.74555451  0.19418101  1
  Se  Se240  1  0.91579252  0.74654809  0.70021690  1
  Se  Se241  1  0.08649416  0.25475916  0.20252476  1
  Se  Se242  1  0.07221615  0.24234353  0.69121563  1
  Se  Se243  1  0.07957138  0.58719175  0.19506988  1
  Se  Se244  1  0.07730767  0.58257012  0.70302851  1
  Se  Se245  1  0.08136440  0.91966986  0.19383691  1
  Se  Se246  1  0.08563869  0.90689052  0.69313849  1
  Se  Se247  1  0.42224490  0.24662946  0.18542458  1
  Se  Se248  1  0.41936459  0.25361471  0.69881816  1
  Se  Se249  1  0.41995359  0.57187230  0.19147784  1
  Se  Se250  1  0.41350484  0.57587427  0.69080872  1
  Se  Se251  1  0.41625034  0.91842809  0.19487450  1
  Se  Se252  1  0.42656303  0.91409070  0.69021025  1
  Se  Se253  1  0.74395342  0.24791185  0.19845937  1
  Se  Se254  1  0.75946466  0.25299598  0.68783488  1
  Se  Se255  1  0.74805700  0.57825280  0.19806177  1
  Se  Se256  1  0.74717050  0.58121672  0.69699614  1
  Se  Se257  1  0.75757286  0.90827667  0.18193117  1
  Se  Se258  1  0.75052692  0.92213523  0.70215924  1
