# generated using pymatgen
data_In86Cu29Se144
_symmetry_space_group_name_H-M   'P 1'
_cell_length_a   17.56973125
_cell_length_b   17.57252232
_cell_length_c   23.42762528
_cell_angle_alpha   90.02714933
_cell_angle_beta   90.03062116
_cell_angle_gamma   89.99227517
_symmetry_Int_Tables_number   1
_chemical_formula_structural   In86Cu29Se144
_chemical_formula_sum   'In86 Cu29 Se144'
_cell_volume   7233.14841778
_cell_formula_units_Z   1
loop_
 _symmetry_equiv_pos_site_id
 _symmetry_equiv_pos_as_xyz
  1  'x, y, z'
loop_
 _atom_site_type_symbol
 _atom_site_label
 _atom_site_symmetry_multiplicity
 _atom_site_fract_x
 _atom_site_fract_y
 _atom_site_fract_z
 _atom_site_occupancy
  In  In0  1  -0.01749016  0.17065047  0.13870825  1
  In  In1  1  -0.01121585  0.16383004  0.62771047  1
  In  In2  1  -0.00021804  0.51787459  0.13674842  1
  In  In3  1  0.00714193  0.50589849  0.61693315  1
  In  In4  1  -0.00112559  0.83508043  0.13076282  1
  In  In5  1  -0.01424856  0.83795516  0.63834022  1
  In  In6  1  0.32197341  0.16363176  0.12662322  1
  In  In7  1  0.35027716  0.16585850  0.61916159  1
  In  In8  1  0.34113093  0.49849489  0.12633151  1
  In  In9  1  0.32555792  0.48945295  0.61830949  1
  In  In10  1  0.33459722  0.83302333  0.12670926  1
  In  In11  1  0.33082563  0.83905705  0.62551757  1
  In  In12  1  0.69411730  0.15327651  0.14564266  1
  In  In13  1  0.66490770  0.18069375  0.63036871  1
  In  In14  1  0.66078344  0.49258527  0.12411665  1
  In  In15  1  0.65941730  0.49293294  0.61596693  1
  In  In16  1  0.67883236  0.84245554  0.11639174  1
  In  In17  1  0.67691834  0.82667623  0.62580161  1
  In  In18  1  0.15708191  -0.01770987  0.35462451  1
  In  In19  1  0.14739568  -0.00120519  0.87836935  1
  In  In20  1  0.16067657  0.35192591  0.37173454  1
  In  In21  1  0.17074816  0.31543412  0.86949577  1
  In  In22  1  0.13890815  0.63401474  0.33782905  1
  In  In23  1  0.16610894  0.68252671  0.87906844  1
  In  In24  1  0.50624286  0.00863629  0.36637316  1
  In  In25  1  0.48982853  -0.00000274  0.88003704  1
  In  In26  1  0.50983902  0.32152070  0.38318251  1
  In  In27  1  0.51604038  0.34128951  0.86137752  1
  In  In28  1  0.48991687  0.66421500  0.37507482  1
  In  In29  1  0.50107002  0.66191164  0.88727010  1
  In  In30  1  0.82220482  -0.01203983  0.36693262  1
  In  In31  1  0.84500836  -0.00784797  0.88956099  1
  In  In32  1  0.84052773  0.33715431  0.36374330  1
  In  In33  1  0.82231145  0.34234350  0.88192056  1
  In  In34  1  0.83942380  0.65965187  0.37897881  1
  In  In35  1  0.84042397  0.66599952  0.87941292  1
  In  In36  1  -0.02064282  0.16358027  0.35748036  1
  In  In37  1  0.00123099  0.14007504  0.87324732  1
  In  In38  1  -0.00571991  0.49900326  0.37061634  1
  In  In39  1  -0.01815847  0.49928393  0.87626374  1
  In  In40  1  -0.00372038  0.81764122  0.36356046  1
  In  In41  1  -0.00138698  0.83680893  0.88141013  1
  In  In42  1  0.34629092  0.16771114  0.37498631  1
  In  In43  1  0.32257031  0.17109166  0.86914104  1
  In  In44  1  0.32546875  0.50831777  0.38189008  1
  In  In45  1  0.34495211  0.50142145  0.87303613  1
  In  In46  1  0.32191504  0.81945065  0.35469276  1
  In  In47  1  0.33111306  0.83097535  0.88867586  1
  In  In48  1  0.66294729  0.15241868  0.36566308  1
  In  In49  1  0.66764835  0.18290991  0.87466959  1
  In  In50  1  0.67701472  0.48947321  0.38271978  1
  In  In51  1  0.67193676  0.49448836  0.88021297  1
  In  In52  1  0.67250887  0.85604076  0.37619284  1
  In  In53  1  0.67336665  0.82568243  0.88781527  1
  In  In54  1  0.17240783  -0.01602019  0.14135224  1
  In  In55  1  0.15923150  -0.01493021  0.62061219  1
  In  In56  1  0.16203712  0.32511710  0.12758499  1
  In  In57  1  0.16062561  0.34740999  0.62312626  1
  In  In58  1  0.15163533  0.69120460  0.14980514  1
  In  In59  1  0.15818094  0.65332082  0.62187874  1
  In  In60  1  0.51448362  -0.00333241  0.12934423  1
  In  In61  1  0.49466874  0.00325731  0.61823839  1
  In  In62  1  0.50788159  0.34656396  0.12069659  1
  In  In63  1  0.49874880  0.33220905  0.62409982  1
  In  In64  1  0.49148434  0.65980704  0.12157918  1
  In  In65  1  0.51452069  0.66458554  0.62265242  1
  In  In66  1  0.83863015  -0.00258911  0.13031670  1
  In  In67  1  0.84115419  0.00353751  0.62867725  1
  In  In68  1  0.82967711  0.33765706  0.12472193  1
  In  In69  1  0.82200953  0.32935723  0.62392815  1
  In  In70  1  0.84611509  0.67762428  0.11802254  1
  In  In71  1  0.84797432  0.67358369  0.61546375  1
  In  In72  1  0.32828329  0.66638253  0.74594848  1
  In  In73  1  0.32307529  0.01061166  0.75265416  1
  In  In74  1  0.66469371  0.66787543  0.24657584  1
  In  In75  1  -0.00133438  0.33078875  0.74993231  1
  In  In76  1  0.33242185  0.33422316  0.25164441  1
  In  In77  1  0.15774268  0.16068481  0.00355423  1
  In  In78  1  0.16445360  0.82110528  0.48638820  1
  In  In79  1  0.66945058  0.00318263  0.74642327  1
  In  In80  1  0.82380663  0.16465597  0.49924899  1
  In  In81  1  0.16731545  0.50480258  0.00879033  1
  In  In82  1  0.50411858  0.17183601  -0.00103654  1
  In  In83  1  0.16898554  0.17165712  0.48817826  1
  In  In84  1  0.50200223  0.83259004  0.49405539  1
  In  In85  1  0.67730503  0.66271461  0.75736490  1
  Cu  Cu86  1  0.83459861  0.16369828  0.75396392  1
  Cu  Cu87  1  0.33970456  0.34173935  -0.00610701  1
  Cu  Cu88  1  0.32948809  0.67017202  0.00646364  1
  Cu  Cu89  1  0.67306847  0.00254223  0.00766182  1
  Cu  Cu90  1  0.66646874  0.33370967  0.49971877  1
  Cu  Cu91  1  0.82704354  0.49948099  0.75089343  1
  Cu  Cu92  1  0.33885326  -0.00027481  0.48697035  1
  Cu  Cu93  1  0.00102694  -0.00450887  0.00962152  1
  Cu  Cu94  1  -0.01041875  0.33218088  0.00335908  1
  Cu  Cu95  1  0.50199974  0.83865418  0.24721853  1
  Cu  Cu96  1  0.00283595  0.67037213  0.00612807  1
  Cu  Cu97  1  0.50148544  0.49403891  0.25228688  1
  Cu  Cu98  1  0.33342655  0.66026163  0.49823889  1
  Cu  Cu99  1  0.16068978  0.16500779  0.24911144  1
  Cu  Cu100  1  0.33361160  -0.00648771  0.00575656  1
  Cu  Cu101  1  0.50097904  0.49170051  0.74587597  1
  Cu  Cu102  1  0.50079776  0.16919259  0.25009865  1
  Cu  Cu103  1  0.16046902  0.50167483  0.74555984  1
  Cu  Cu104  1  0.66391153  0.66228909  0.00541670  1
  Cu  Cu105  1  0.66785265  0.33365540  0.00230164  1
  Cu  Cu106  1  0.15258853  0.83624096  0.75429255  1
  Cu  Cu107  1  0.67292855  0.66516521  0.49946995  1
  Cu  Cu108  1  0.83577935  0.50398098  0.24925244  1
  Cu  Cu109  1  -0.00047180  0.34138183  0.49184423  1
  Cu  Cu110  1  -0.00545726  -0.00209946  0.50223741  1
  Cu  Cu111  1  0.33764662  0.33620037  0.49780576  1
  Cu  Cu112  1  0.83259204  0.83088107  0.24583844  1
  Cu  Cu113  1  0.00400141  0.66464737  0.49146036  1
  Cu  Cu114  1  0.49943434  0.83667007  0.75924303  1
  Se  Se115  1  0.07720006  0.07707958  0.07304145  1
  Se  Se116  1  0.07854586  0.08267871  0.55441317  1
  Se  Se117  1  0.07390468  0.41019197  0.06146730  1
  Se  Se118  1  0.08540114  0.42061398  0.54605327  1
  Se  Se119  1  0.08509656  0.75128823  0.06224054  1
  Se  Se120  1  0.07541008  0.74744482  0.55833148  1
  Se  Se121  1  0.41251986  0.08166395  0.05983578  1
  Se  Se122  1  0.41867634  0.08110697  0.54350197  1
  Se  Se123  1  0.41997095  0.42161787  0.05112302  1
  Se  Se124  1  0.42096700  0.41875780  0.55285465  1
  Se  Se125  1  0.41889592  0.75341515  0.05464799  1
  Se  Se126  1  0.40925872  0.74388399  0.55953792  1
  Se  Se127  1  0.75721454  0.08469693  0.06008431  1
  Se  Se128  1  0.73956522  0.07841142  0.56588036  1
  Se  Se129  1  0.75046586  0.42218801  0.05239740  1
  Se  Se130  1  0.75363713  0.41590955  0.55081208  1
  Se  Se131  1  0.75230728  0.74843267  0.05087843  1
  Se  Se132  1  0.75412914  0.75166462  0.55107033  1
  Se  Se133  1  0.25759449  0.25968810  0.05152547  1
  Se  Se134  1  0.25165620  0.25681283  0.55668604  1
  Se  Se135  1  0.24973069  0.59612458  0.07117033  1
  Se  Se136  1  0.24708881  0.58133040  0.55298310  1
  Se  Se137  1  0.24635760  0.91633948  0.05958133  1
  Se  Se138  1  0.25686105  0.91931033  0.54636282  1
  Se  Se139  1  0.59621383  0.24813513  0.06533443  1
  Se  Se140  1  0.58422408  0.24992506  0.55386889  1
  Se  Se141  1  0.57957091  0.57814651  0.05567665  1
  Se  Se142  1  0.58326735  0.58356709  0.54747720  1
  Se  Se143  1  0.58277121  0.91754449  0.05125482  1
  Se  Se144  1  0.59008502  0.91701947  0.55971413  1
  Se  Se145  1  0.91240415  0.24708888  0.05908223  1
  Se  Se146  1  0.92353893  0.25809433  0.55364697  1
  Se  Se147  1  0.92149570  0.58041648  0.05460896  1
  Se  Se148  1  0.92008546  0.58181542  0.54694146  1
  Se  Se149  1  0.91351286  0.91108046  0.05844293  1
  Se  Se150  1  0.91625671  0.91556614  0.55883179  1
  Se  Se151  1  0.06855564  0.25258897  0.43063149  1
  Se  Se152  1  0.07122668  0.25432634  0.94159075  1
  Se  Se153  1  0.08588281  0.58380796  0.43446597  1
  Se  Se154  1  0.07698956  0.58752628  0.94196048  1
  Se  Se155  1  0.07302833  0.92123003  0.43834682  1
  Se  Se156  1  0.08534747  0.91393423  0.95469304  1
  Se  Se157  1  0.41887698  0.24548063  0.45112851  1
  Se  Se158  1  0.41442204  0.25688333  0.93467515  1
  Se  Se159  1  0.42238278  0.57823367  0.44952586  1
  Se  Se160  1  0.40873566  0.58346551  0.95142347  1
  Se  Se161  1  0.41054250  0.91104584  0.42799976  1
  Se  Se162  1  0.42019958  0.91378759  0.95217031  1
  Se  Se163  1  0.74420972  0.25653735  0.43463547  1
  Se  Se164  1  0.75183476  0.24854378  0.95087831  1
  Se  Se165  1  0.75603812  0.57972749  0.44808903  1
  Se  Se166  1  0.74799760  0.58729457  0.94420887  1
  Se  Se167  1  0.75350389  0.92416428  0.45128750  1
  Se  Se168  1  0.75291805  0.91444620  0.95367742  1
  Se  Se169  1  0.24870532  0.07152627  0.42930673  1
  Se  Se170  1  0.25602685  0.07573363  0.94359461  1
  Se  Se171  1  0.24832860  0.41563054  0.44718188  1
  Se  Se172  1  0.24778722  0.41448153  0.93804529  1
  Se  Se173  1  0.25593139  0.73147810  0.43172534  1
  Se  Se174  1  0.24312214  0.75353271  0.95635248  1
  Se  Se175  1  0.58581422  0.07954664  0.44188211  1
  Se  Se176  1  0.59438808  0.07696807  0.94105114  1
  Se  Se177  1  0.58112483  0.41847565  0.44873253  1
  Se  Se178  1  0.58202497  0.41249686  0.94523500  1
  Se  Se179  1  0.59555125  0.74381237  0.43477331  1
  Se  Se180  1  0.58114594  0.74919461  0.95261436  1
  Se  Se181  1  0.91872089  0.07915678  0.44048762  1
  Se  Se182  1  0.92193891  0.08481668  0.95633018  1
  Se  Se183  1  0.90919424  0.41914137  0.44101405  1
  Se  Se184  1  0.90982677  0.42008878  0.95133175  1
  Se  Se185  1  0.91880039  0.75201988  0.44411561  1
  Se  Se186  1  0.91787409  0.75086054  0.95007223  1
  Se  Se187  1  0.24101067  0.24362618  0.31233593  1
  Se  Se188  1  0.25488767  0.25279416  0.79412573  1
  Se  Se189  1  0.26652253  0.58300698  0.29951001  1
  Se  Se190  1  0.23981403  0.57917440  0.81042616  1
  Se  Se191  1  0.26446827  0.92691901  0.29408388  1
  Se  Se192  1  0.24424506  0.90811508  0.81253612  1
  Se  Se193  1  0.58440156  0.25021853  0.30443591  1
  Se  Se194  1  0.58569852  0.24461925  0.79763380  1
  Se  Se195  1  0.58290744  0.57589324  0.31153572  1
  Se  Se196  1  0.57400121  0.57656783  0.80886271  1
  Se  Se197  1  0.58761283  0.92018565  0.29978667  1
  Se  Se198  1  0.58416813  0.91328195  0.81597049  1
  Se  Se199  1  0.90976083  0.25353196  0.28943960  1
  Se  Se200  1  0.91305405  0.24493372  0.81696151  1
  Se  Se201  1  0.91763759  0.59047538  0.30088310  1
  Se  Se202  1  0.91137587  0.58295167  0.80243709  1
  Se  Se203  1  0.91594590  0.91182717  0.30234930  1
  Se  Se204  1  0.93432605  0.93554606  0.81370210  1
  Se  Se205  1  0.07559155  0.08110450  0.29947462  1
  Se  Se206  1  0.11211136  0.10375626  0.80710068  1
  Se  Se207  1  0.07450590  0.41684149  0.29944684  1
  Se  Se208  1  0.08642951  0.42250088  0.81282446  1
  Se  Se209  1  0.11188608  0.77135245  0.30575481  1
  Se  Se210  1  0.07563460  0.74918044  0.80852485  1
  Se  Se211  1  0.41438549  0.08510088  0.29914027  1
  Se  Se212  1  0.42593171  0.09307468  0.80661538  1
  Se  Se213  1  0.42284503  0.41625081  0.31648559  1
  Se  Se214  1  0.41356284  0.41455482  0.80082220  1
  Se  Se215  1  0.42600304  0.74616894  0.29712473  1
  Se  Se216  1  0.41846009  0.75103049  0.81294698  1
  Se  Se217  1  0.76855884  0.09475502  0.30252720  1
  Se  Se218  1  0.75654137  0.08363313  0.81617410  1
  Se  Se219  1  0.74953140  0.42241160  0.30090135  1
  Se  Se220  1  0.74543247  0.41494549  0.80360479  1
  Se  Se221  1  0.75257185  0.75484453  0.31085940  1
  Se  Se222  1  0.76275839  0.76267506  0.80976581  1
  Se  Se223  1  0.25076254  0.08404863  0.20075027  1
  Se  Se224  1  0.24311995  0.08581591  0.67706508  1
  Se  Se225  1  0.24185087  0.42170155  0.19145656  1
  Se  Se226  1  0.24691234  0.41896586  0.69626791  1
  Se  Se227  1  0.27040768  0.74273522  0.20006060  1
  Se  Se228  1  0.23400671  0.76055331  0.69028848  1
  Se  Se229  1  0.58695027  0.08312468  0.20095294  1
  Se  Se230  1  0.57161842  0.08871356  0.69142260  1
  Se  Se231  1  0.58644545  0.41298170  0.20035832  1
  Se  Se232  1  0.58813751  0.41357029  0.69220414  1
  Se  Se233  1  0.58009243  0.75847436  0.18381179  1
  Se  Se234  1  0.57934288  0.75688683  0.69923962  1
  Se  Se235  1  0.90540342  0.08347463  0.20592522  1
  Se  Se236  1  0.92023986  0.08131337  0.70312197  1
  Se  Se237  1  0.91702367  0.42079796  0.19290690  1
  Se  Se238  1  0.91087296  0.42193443  0.68839039  1
  Se  Se239  1  0.91951583  0.74466014  0.19951749  1
  Se  Se240  1  0.91746379  0.73733892  0.69904118  1
  Se  Se241  1  0.07903514  0.25202202  0.19899303  1
  Se  Se242  1  0.08852833  0.24397299  0.68764009  1
  Se  Se243  1  0.09174278  0.58185651  0.20832000  1
  Se  Se244  1  0.07431735  0.58500809  0.69719821  1
  Se  Se245  1  0.07281957  0.91830114  0.20413308  1
  Se  Se246  1  0.07683208  0.92405502  0.69923644  1
  Se  Se247  1  0.42281644  0.24774979  0.18618130  1
  Se  Se248  1  0.41118286  0.25428521  0.69227014  1
  Se  Se249  1  0.42144611  0.57822287  0.19849855  1
  Se  Se250  1  0.42384435  0.57901329  0.68807469  1
  Se  Se251  1  0.41922437  0.92188206  0.19277004  1
  Se  Se252  1  0.42129023  0.91399040  0.69675794  1
  Se  Se253  1  0.73430723  0.27566362  0.19621384  1
  Se  Se254  1  0.75384606  0.25043467  0.70215677  1
  Se  Se255  1  0.75716149  0.58289890  0.18558641  1
  Se  Se256  1  0.75308124  0.57831935  0.68423669  1
  Se  Se257  1  0.74705539  0.91597411  0.19687068  1
  Se  Se258  1  0.76251387  0.90644439  0.69716535  1
