# generated using pymatgen
data_In86Cu29Se144
_symmetry_space_group_name_H-M   'P 1'
_cell_length_a   17.56710001
_cell_length_b   17.57250008
_cell_length_c   23.43152096
_cell_angle_alpha   90.00078705
_cell_angle_beta   89.99388081
_cell_angle_gamma   90.00165630
_symmetry_Int_Tables_number   1
_chemical_formula_structural   In86Cu29Se144
_chemical_formula_sum   'In86 Cu29 Se144'
_cell_volume   7233.26048176
_cell_formula_units_Z   1
loop_
 _symmetry_equiv_pos_site_id
 _symmetry_equiv_pos_as_xyz
  1  'x, y, z'
loop_
 _atom_site_type_symbol
 _atom_site_label
 _atom_site_symmetry_multiplicity
 _atom_site_fract_x
 _atom_site_fract_y
 _atom_site_fract_z
 _atom_site_occupancy
  In  In0  1  -0.01383414  0.17355263  0.13254206  1
  In  In1  1  -0.00862746  0.16422727  0.61989527  1
  In  In2  1  -0.00331767  0.49265782  0.13010936  1
  In  In3  1  -0.01059273  0.49823894  0.61023600  1
  In  In4  1  0.00425466  0.84972666  0.12477244  1
  In  In5  1  0.00304653  0.83435163  0.62837209  1
  In  In6  1  0.34605911  0.16810695  0.12771844  1
  In  In7  1  0.34223833  0.15599262  0.62688086  1
  In  In8  1  0.33692438  0.50630622  0.12758404  1
  In  In9  1  0.34247176  0.50532906  0.61257112  1
  In  In10  1  0.34235411  0.81482724  0.12825402  1
  In  In11  1  0.35803876  0.81227996  0.65200187  1
  In  In12  1  0.66827475  0.17198608  0.12270496  1
  In  In13  1  0.66405045  0.15823318  0.61472959  1
  In  In14  1  0.64055057  0.52925320  0.16750193  1
  In  In15  1  0.66941633  0.50598783  0.61402383  1
  In  In16  1  0.64963518  0.82345994  0.10500860  1
  In  In17  1  0.63902853  0.85565502  0.65655900  1
  In  In18  1  0.16465417  0.01382618  0.37423588  1
  In  In19  1  0.16028958  -0.01340401  0.86913875  1
  In  In20  1  0.18700623  0.34439904  0.36100124  1
  In  In21  1  0.17789985  0.34267872  0.88344902  1
  In  In22  1  0.16643479  0.65289683  0.37517140  1
  In  In23  1  0.17879872  0.65616403  0.88287459  1
  In  In24  1  0.50774332  -0.00157290  0.38293264  1
  In  In25  1  0.50658740  0.00007588  0.87440502  1
  In  In26  1  0.50365984  0.34027773  0.37261199  1
  In  In27  1  0.50310008  0.33457676  0.88622471  1
  In  In28  1  0.50122975  0.66153283  0.37138686  1
  In  In29  1  0.50226015  0.66699704  0.87051981  1
  In  In30  1  0.84209348  0.00771493  0.37647812  1
  In  In31  1  0.80017100  -0.05151499  0.82731868  1
  In  In32  1  0.82448224  0.33391650  0.37495713  1
  In  In33  1  0.82748254  0.33347920  0.87807915  1
  In  In34  1  0.81153322  0.66296916  0.36674073  1
  In  In35  1  0.83004169  0.68504840  0.87842785  1
  In  In36  1  -0.01019967  0.16689120  0.37405438  1
  In  In37  1  0.00658852  0.15536449  0.87881910  1
  In  In38  1  0.00740065  0.48991889  0.37576075  1
  In  In39  1  0.00924432  0.51465161  0.87889464  1
  In  In40  1  -0.00683784  0.84329699  0.36901131  1
  In  In41  1  -0.01578133  0.83771795  0.87742332  1
  In  In42  1  0.33552060  0.17627571  0.37325749  1
  In  In43  1  0.35423753  0.16677340  0.88019573  1
  In  In44  1  0.33921972  0.50005937  0.37334822  1
  In  In45  1  0.33335957  0.50884141  0.88045240  1
  In  In46  1  0.35268308  0.83380201  0.37396737  1
  In  In47  1  0.35927747  0.85064981  0.85252286  1
  In  In48  1  0.64917123  0.19047531  0.40169031  1
  In  In49  1  0.66998627  0.14399578  0.87784651  1
  In  In50  1  0.66297241  0.50071246  0.37387410  1
  In  In51  1  0.64959277  0.49851106  0.87494455  1
  In  In52  1  0.66145543  0.81869834  0.36896881  1
  In  In53  1  0.66092265  0.82875730  0.87028455  1
  In  In54  1  0.14949710  -0.01149301  0.12534897  1
  In  In55  1  0.18007656  -0.00641011  0.63336570  1
  In  In56  1  0.15619267  0.34577370  0.13239350  1
  In  In57  1  0.15751247  0.33842096  0.61643991  1
  In  In58  1  0.20399158  0.67229615  0.13338808  1
  In  In59  1  0.17285666  0.66511948  0.62108379  1
  In  In60  1  0.50562022  0.00375195  0.10597212  1
  In  In61  1  0.49955771  0.00071399  0.62624619  1
  In  In62  1  0.50316833  0.34163025  0.13556557  1
  In  In63  1  0.51093797  0.33415398  0.60520154  1
  In  In64  1  0.49855506  0.66328066  0.12364815  1
  In  In65  1  0.49942095  0.66648260  0.62872163  1
  In  In66  1  0.83560272  0.00617903  0.12220410  1
  In  In67  1  0.82456088  -0.00097757  0.63650211  1
  In  In68  1  0.81354376  0.35624456  0.15704369  1
  In  In69  1  0.81843425  0.33093393  0.59564568  1
  In  In70  1  0.81148624  0.66594216  0.12914897  1
  In  In71  1  0.82426776  0.66548086  0.62083517  1
  In  In72  1  0.00263074  0.66972134  0.25332440  1
  In  In73  1  -0.00000856  0.67055081  0.75224425  1
  In  In74  1  0.82748194  0.49787310  0.01398407  1
  In  In75  1  -0.00401626  0.33151956  0.73840890  1
  In  In76  1  0.67767118  0.00644190  0.24639950  1
  In  In77  1  0.66523222  0.32695042  0.73630589  1
  In  In78  1  0.17218006  0.16878531  0.00357786  1
  In  In79  1  0.17128641  0.82841333  0.50858170  1
  In  In80  1  0.83522733  0.16509907  0.00288511  1
  In  In81  1  0.32640167  -0.00399627  0.24319772  1
  In  In82  1  0.17347063  0.17423900  0.49571171  1
  In  In83  1  0.17975567  0.82431046  0.00479446  1
  In  In84  1  0.82245101  0.82704047  0.50150488  1
  In  In85  1  0.33367091  0.32684798  0.74760824  1
  Cu  Cu86  1  -0.01311984  -0.00148126  -0.00075132  1
  Cu  Cu87  1  0.33623788  0.66471939  0.50140588  1
  Cu  Cu88  1  0.34956628  -0.00570157  0.50585631  1
  Cu  Cu89  1  0.66322439  0.65860995  0.00209269  1
  Cu  Cu90  1  0.00268404  0.34139214  0.49060934  1
  Cu  Cu91  1  0.17464100  0.50579909  0.24917063  1
  Cu  Cu92  1  0.82895126  0.83550238  0.24656272  1
  Cu  Cu93  1  0.00759498  0.67161411  0.00339518  1
  Cu  Cu94  1  0.83300930  0.16678503  0.25749428  1
  Cu  Cu95  1  0.16434332  0.82812805  0.75053192  1
  Cu  Cu96  1  0.15541507  0.16506482  0.25184105  1
  Cu  Cu97  1  0.16950520  0.15590504  0.75375920  1
  Cu  Cu98  1  0.00372271  -0.00061472  0.50318932  1
  Cu  Cu99  1  0.34000857  0.33768768  0.49070510  1
  Cu  Cu100  1  0.65333242  0.67057564  0.50038161  1
  Cu  Cu101  1  0.34823337  0.66679292  -0.00165514  1
  Cu  Cu102  1  -0.01457709  0.65788939  0.49156646  1
  Cu  Cu103  1  0.49333207  0.50587481  0.74782929  1
  Cu  Cu104  1  0.82529121  0.50409865  0.74253707  1
  Cu  Cu105  1  -0.00347272  0.33952983  0.01063793  1
  Cu  Cu106  1  0.50282933  0.82696748  0.24461474  1
  Cu  Cu107  1  0.65492971  0.33516269  0.01024925  1
  Cu  Cu108  1  0.49938225  0.16799552  0.25332750  1
  Cu  Cu109  1  0.67118273  -0.00755508  0.50783094  1
  Cu  Cu110  1  0.33464314  -0.00416705  -0.00490025  1
  Cu  Cu111  1  0.84123004  0.15880431  0.74668116  1
  Cu  Cu112  1  0.50829016  0.16190127  0.75121778  1
  Cu  Cu113  1  0.16514197  0.49882423  0.74906976  1
  Cu  Cu114  1  0.33582693  0.34915617  0.00655484  1
  Se  Se115  1  0.06850547  0.08275081  0.05688911  1
  Se  Se116  1  0.09186449  0.07762745  0.55923635  1
  Se  Se117  1  0.08442007  0.42547211  0.05521149  1
  Se  Se118  1  0.08522283  0.42402827  0.54572976  1
  Se  Se119  1  0.08760062  0.74330019  0.06964672  1
  Se  Se120  1  0.06596441  0.73634270  0.55469154  1
  Se  Se121  1  0.40963969  0.08727706  0.04848895  1
  Se  Se122  1  0.42738248  0.08953240  0.55238038  1
  Se  Se123  1  0.42456435  0.42314608  0.06209144  1
  Se  Se124  1  0.42294271  0.42102439  0.54447360  1
  Se  Se125  1  0.42727615  0.75422671  0.05088705  1
  Se  Se126  1  0.41152711  0.74922759  0.56056327  1
  Se  Se127  1  0.73592753  0.07323443  0.05318112  1
  Se  Se128  1  0.76072595  0.07551714  0.55504795  1
  Se  Se129  1  0.73408165  0.41349037  0.07192633  1
  Se  Se130  1  0.72728700  0.41387135  0.53827493  1
  Se  Se131  1  0.75191632  0.74563167  0.04775738  1
  Se  Se132  1  0.72559279  0.75327423  0.56476986  1
  Se  Se133  1  0.25597720  0.26227209  0.06397392  1
  Se  Se134  1  0.26551829  0.25997145  0.55989942  1
  Se  Se135  1  0.25913056  0.58965695  0.05234724  1
  Se  Se136  1  0.24576454  0.58180572  0.54854473  1
  Se  Se137  1  0.26107708  0.92360512  0.06444612  1
  Se  Se138  1  0.26752447  0.91449804  0.56371389  1
  Se  Se139  1  0.57249519  0.24919464  0.06207358  1
  Se  Se140  1  0.60082175  0.25263062  0.54503479  1
  Se  Se141  1  0.59536131  0.57667781  0.06778094  1
  Se  Se142  1  0.57264809  0.58423946  0.55345165  1
  Se  Se143  1  0.58385210  0.91960335  0.03934992  1
  Se  Se144  1  0.58634802  0.91213281  0.56242204  1
  Se  Se145  1  0.90636320  0.26638937  0.06628035  1
  Se  Se146  1  0.92726561  0.25391879  0.54703367  1
  Se  Se147  1  0.92339047  0.59465429  0.06441692  1
  Se  Se148  1  0.89901891  0.58128987  0.54827334  1
  Se  Se149  1  0.90900773  0.91325582  0.05448865  1
  Se  Se150  1  0.91913393  0.91772859  0.55839624  1
  Se  Se151  1  0.08651188  0.26051577  0.43258579  1
  Se  Se152  1  0.07488510  0.26049626  0.94563580  1
  Se  Se153  1  0.08098454  0.58028052  0.44633815  1
  Se  Se154  1  0.09014966  0.58435562  0.95464169  1
  Se  Se155  1  0.08287000  0.91949476  0.44429141  1
  Se  Se156  1  0.08057700  0.91648727  0.95029009  1
  Se  Se157  1  0.42235245  0.24886603  0.44256024  1
  Se  Se158  1  0.41289089  0.25869813  0.95376950  1
  Se  Se159  1  0.41862907  0.58350350  0.44462844  1
  Se  Se160  1  0.42930188  0.57981872  0.94539976  1
  Se  Se161  1  0.42819165  0.90951826  0.44978501  1
  Se  Se162  1  0.41863945  0.91439438  0.94136945  1
  Se  Se163  1  0.77812273  0.22799131  0.44458625  1
  Se  Se164  1  0.73630253  0.25811125  0.94675063  1
  Se  Se165  1  0.74050058  0.59074053  0.44569395  1
  Se  Se166  1  0.74725066  0.58251366  0.93976813  1
  Se  Se167  1  0.74203310  0.91965324  0.43489564  1
  Se  Se168  1  0.75381785  0.91717021  0.92796317  1
  Se  Se169  1  0.26637673  0.07324823  0.44565275  1
  Se  Se170  1  0.25029487  0.07452475  0.93658638  1
  Se  Se171  1  0.25012660  0.41978811  0.44320071  1
  Se  Se172  1  0.25028446  0.42881735  0.95310990  1
  Se  Se173  1  0.25718174  0.74622936  0.44005092  1
  Se  Se174  1  0.27190735  0.75134850  0.93644747  1
  Se  Se175  1  0.58668519  0.07671653  0.45524952  1
  Se  Se176  1  0.56606747  0.09870990  0.94500864  1
  Se  Se177  1  0.59127265  0.41130323  0.44520861  1
  Se  Se178  1  0.57981801  0.42329528  0.95434304  1
  Se  Se179  1  0.57444584  0.75406147  0.44266903  1
  Se  Se180  1  0.58642978  0.74229413  0.94361495  1
  Se  Se181  1  0.92144007  0.08365129  0.45117809  1
  Se  Se182  1  0.90976403  0.07295572  0.93532244  1
  Se  Se183  1  0.91075026  0.42048981  0.44213097  1
  Se  Se184  1  0.92150840  0.41705174  0.94270393  1
  Se  Se185  1  0.91446224  0.74582274  0.43361264  1
  Se  Se186  1  0.92013054  0.75026973  0.95192558  1
  Se  Se187  1  0.25171835  0.24174114  0.29718672  1
  Se  Se188  1  0.24333260  0.24085801  0.81447921  1
  Se  Se189  1  0.25702206  0.58751295  0.30387792  1
  Se  Se190  1  0.24896461  0.57800398  0.80433987  1
  Se  Se191  1  0.24759143  0.91487703  0.31633610  1
  Se  Se192  1  0.24889242  0.91722858  0.79785703  1
  Se  Se193  1  0.58467645  0.24317289  0.31057212  1
  Se  Se194  1  0.58313479  0.24814530  0.81162242  1
  Se  Se195  1  0.59371228  0.59192239  0.30221323  1
  Se  Se196  1  0.58511405  0.58221011  0.79912458  1
  Se  Se197  1  0.57911976  0.91508004  0.30248626  1
  Se  Se198  1  0.57737542  0.91296939  0.80223420  1
  Se  Se199  1  0.91614133  0.25583789  0.30531192  1
  Se  Se200  1  0.91207945  0.24559641  0.80928898  1
  Se  Se201  1  0.91448369  0.57911689  0.31172231  1
  Se  Se202  1  0.90677161  0.57540554  0.80918598  1
  Se  Se203  1  0.90757976  0.92068983  0.30040943  1
  Se  Se204  1  0.94088304  0.92748937  0.79882430  1
  Se  Se205  1  0.07375492  0.08206542  0.30509674  1
  Se  Se206  1  0.08004068  0.07730896  0.80381321  1
  Se  Se207  1  0.08948890  0.42047239  0.29951069  1
  Se  Se208  1  0.08476360  0.41661125  0.80778339  1
  Se  Se209  1  0.09284520  0.75921120  0.31382088  1
  Se  Se210  1  0.09067154  0.75236988  0.81906640  1
  Se  Se211  1  0.42083304  0.07955279  0.30878101  1
  Se  Se212  1  0.41937710  0.08442586  0.80399725  1
  Se  Se213  1  0.40779246  0.40644760  0.30491082  1
  Se  Se214  1  0.42214630  0.41689234  0.80928269  1
  Se  Se215  1  0.41913608  0.74755731  0.29996870  1
  Se  Se216  1  0.40620580  0.73157790  0.80086387  1
  Se  Se217  1  0.74625022  0.09567975  0.31883567  1
  Se  Se218  1  0.74789809  0.08355063  0.79632468  1
  Se  Se219  1  0.73736160  0.40880354  0.30531139  1
  Se  Se220  1  0.75041043  0.41804393  0.80383804  1
  Se  Se221  1  0.74325577  0.74931756  0.29290714  1
  Se  Se222  1  0.75123983  0.74860283  0.80171830  1
  Se  Se223  1  0.23497159  0.09032584  0.18504753  1
  Se  Se224  1  0.25950776  0.08209598  0.69963636  1
  Se  Se225  1  0.25343798  0.41878933  0.19506269  1
  Se  Se226  1  0.24426515  0.41927220  0.68731995  1
  Se  Se227  1  0.23920750  0.78109468  0.20173796  1
  Se  Se228  1  0.24332201  0.74006809  0.69880786  1
  Se  Se229  1  0.57258245  0.08549205  0.18950095  1
  Se  Se230  1  0.59117152  0.08347448  0.69265946  1
  Se  Se231  1  0.59773586  0.40149530  0.20904735  1
  Se  Se232  1  0.57209530  0.42485337  0.68621892  1
  Se  Se233  1  0.58887866  0.74942696  0.18885320  1
  Se  Se234  1  0.56594536  0.74968864  0.70634025  1
  Se  Se235  1  0.90965539  0.08211008  0.19920283  1
  Se  Se236  1  0.92631452  0.07733480  0.69391136  1
  Se  Se237  1  0.93214322  0.41076077  0.20577523  1
  Se  Se238  1  0.89902544  0.41832022  0.68092803  1
  Se  Se239  1  0.91190209  0.75545468  0.18740529  1
  Se  Se240  1  0.90739644  0.75466947  0.69129280  1
  Se  Se241  1  0.07855846  0.25169591  0.19580910  1
  Se  Se242  1  0.09567351  0.23677317  0.68909195  1
  Se  Se243  1  0.09546325  0.58615956  0.18780468  1
  Se  Se244  1  0.07912498  0.57302780  0.68807213  1
  Se  Se245  1  0.07755827  0.91928213  0.20461627  1
  Se  Se246  1  0.08631768  0.91441685  0.69577371  1
  Se  Se247  1  0.41604126  0.25219508  0.20077978  1
  Se  Se248  1  0.43519665  0.24766814  0.68834560  1
  Se  Se249  1  0.40683674  0.59945216  0.19571767  1
  Se  Se250  1  0.40534469  0.58242410  0.69366772  1
  Se  Se251  1  0.43021631  0.91757338  0.18608753  1
  Se  Se252  1  0.41171325  0.93139777  0.69907045  1
  Se  Se253  1  0.74443445  0.24055942  0.20148934  1
  Se  Se254  1  0.76674497  0.24210952  0.68209078  1
  Se  Se255  1  0.78021322  0.55532606  0.19612505  1
  Se  Se256  1  0.74062950  0.58593854  0.69133044  1
  Se  Se257  1  0.74786038  0.90829602  0.18125970  1
  Se  Se258  1  0.76000177  0.90673391  0.70724911  1
