# generated using pymatgen
data_In86Cu29Se144
_symmetry_space_group_name_H-M   'P 1'
_cell_length_a   17.60820178
_cell_length_b   17.60883913
_cell_length_c   23.45870271
_cell_angle_alpha   89.97887862
_cell_angle_beta   89.96810462
_cell_angle_gamma   90.00759395
_symmetry_Int_Tables_number   1
_chemical_formula_structural   In86Cu29Se144
_chemical_formula_sum   'In86 Cu29 Se144'
_cell_volume   7273.60350063
_cell_formula_units_Z   1
loop_
 _symmetry_equiv_pos_site_id
 _symmetry_equiv_pos_as_xyz
  1  'x, y, z'
loop_
 _atom_site_type_symbol
 _atom_site_label
 _atom_site_symmetry_multiplicity
 _atom_site_fract_x
 _atom_site_fract_y
 _atom_site_fract_z
 _atom_site_occupancy
  In  In0  1  0.00940859  0.16223619  0.14057221  1
  In  In1  1  0.02205849  0.16310813  0.61405334  1
  In  In2  1  -0.00641003  0.50021372  0.13688613  1
  In  In3  1  0.00419480  0.50245421  0.60399767  1
  In  In4  1  -0.00361903  0.83707185  0.13710251  1
  In  In5  1  0.00270934  0.83800916  0.61717844  1
  In  In6  1  0.32846675  0.16736659  0.12325782  1
  In  In7  1  0.34114758  0.16622008  0.62639134  1
  In  In8  1  0.32594568  0.49813259  0.12802869  1
  In  In9  1  0.32595345  0.48988437  0.61402889  1
  In  In10  1  0.36166261  0.83560027  0.11874381  1
  In  In11  1  0.35177453  0.86931294  0.58779030  1
  In  In12  1  0.65326576  0.17106583  0.13465271  1
  In  In13  1  0.64858959  0.16261823  0.61968832  1
  In  In14  1  0.67464938  0.48913245  0.13400898  1
  In  In15  1  0.66930065  0.50379955  0.61344152  1
  In  In16  1  0.64918563  0.84680851  0.14029400  1
  In  In17  1  0.66922984  0.84867914  0.62657024  1
  In  In18  1  0.17036917  0.00019653  0.38407852  1
  In  In19  1  0.18026511  -0.00115285  0.87344282  1
  In  In20  1  0.16262600  0.32649736  0.38420513  1
  In  In21  1  0.17371983  0.31607322  0.87902848  1
  In  In22  1  0.15473932  0.67067803  0.37649142  1
  In  In23  1  0.16301271  0.67726088  0.86860494  1
  In  In24  1  0.49389045  -0.00147951  0.38317673  1
  In  In25  1  0.49550196  0.00709002  0.87715726  1
  In  In26  1  0.49716550  0.33216971  0.37126510  1
  In  In27  1  0.48280981  0.32702012  0.87333605  1
  In  In28  1  0.50620627  0.66322504  0.37572100  1
  In  In29  1  0.51029191  0.66011063  0.87860781  1
  In  In30  1  0.83757878  0.01662003  0.35144305  1
  In  In31  1  0.82459041  0.01003750  0.87880289  1
  In  In32  1  0.85102765  0.34356822  0.35954216  1
  In  In33  1  0.84173826  0.34152615  0.88402419  1
  In  In34  1  0.82699454  0.65738251  0.36868024  1
  In  In35  1  0.82556682  0.66071254  0.88423648  1
  In  In36  1  0.00927210  0.17161482  0.37283071  1
  In  In37  1  0.00225709  0.17791245  0.87899930  1
  In  In38  1  -0.00354181  0.49096184  0.37973797  1
  In  In39  1  -0.00028833  0.49086165  0.88119317  1
  In  In40  1  0.01894563  0.84656046  0.37036835  1
  In  In41  1  0.00858068  0.83576754  0.87575451  1
  In  In42  1  0.33318923  0.16586509  0.37925963  1
  In  In43  1  0.33771120  0.16334433  0.87678777  1
  In  In44  1  0.34128244  0.48841554  0.37911348  1
  In  In45  1  0.34401862  0.49255124  0.87107940  1
  In  In46  1  0.32277828  0.84856482  0.39206887  1
  In  In47  1  0.32772142  0.85019586  0.87367122  1
  In  In48  1  0.65856320  0.15976910  0.36336459  1
  In  In49  1  0.66135588  0.15071274  0.87716653  1
  In  In50  1  0.66591672  0.49629670  0.37081727  1
  In  In51  1  0.67216622  0.50705984  0.88283644  1
  In  In52  1  0.66398379  0.83137095  0.36981143  1
  In  In53  1  0.64879642  0.84420646  0.88483180  1
  In  In54  1  0.15955609  0.01075706  0.13201648  1
  In  In55  1  0.20930551  0.03921535  0.56679011  1
  In  In56  1  0.18562368  0.31394899  0.14403785  1
  In  In57  1  0.17504503  0.34249375  0.61321125  1
  In  In58  1  0.16479462  0.65851920  0.13394175  1
  In  In59  1  0.17358652  0.66753916  0.61341129  1
  In  In60  1  0.49273267  -0.00253076  0.12789656  1
  In  In61  1  0.50121292  -0.00035581  0.62204757  1
  In  In62  1  0.49904432  0.32717396  0.13137437  1
  In  In63  1  0.48767047  0.31706908  0.61252665  1
  In  In64  1  0.49683334  0.69246266  0.12704243  1
  In  In65  1  0.49963622  0.67091345  0.61618934  1
  In  In66  1  0.82739973  0.01424195  0.14460019  1
  In  In67  1  0.82797958  -0.00330802  0.62411035  1
  In  In68  1  0.82142614  0.33147381  0.14281146  1
  In  In69  1  0.83099164  0.34119812  0.61801658  1
  In  In70  1  0.83869362  0.65954592  0.13292038  1
  In  In71  1  0.84134756  0.66472396  0.61893096  1
  In  In72  1  0.50555105  0.49690643  0.00394566  1
  In  In73  1  0.66566773  0.67451386  0.75920785  1
  In  In74  1  0.00444704  0.00244418  0.74025369  1
  In  In75  1  0.17040216  0.83589173  -0.00423817  1
  In  In76  1  0.83905966  0.17784724  0.48326619  1
  In  In77  1  0.16678768  0.49476826  0.00920779  1
  In  In78  1  0.83318013  0.83288464  0.00901474  1
  In  In79  1  0.33367485  0.67279872  0.74859557  1
  In  In80  1  0.33365223  0.67022011  0.25230817  1
  In  In81  1  -0.00110226  0.33298259  0.74446380  1
  In  In82  1  0.66252328  0.33336443  0.74570909  1
  In  In83  1  -0.00045806  0.66591638  0.73384556  1
  In  In84  1  0.82871212  0.83277489  0.49279028  1
  In  In85  1  0.82314794  0.17106228  0.01994325  1
  Cu  Cu86  1  0.49498870  0.15659365  0.74911278  1
  Cu  Cu87  1  0.82649339  0.84699852  0.75335307  1
  Cu  Cu88  1  0.49401563  0.84297401  0.74827618  1
  Cu  Cu89  1  0.66479458  0.33706076  0.49309553  1
  Cu  Cu90  1  0.66929254  0.00564551  0.49452123  1
  Cu  Cu91  1  0.33542699  0.66078955  0.49303495  1
  Cu  Cu92  1  0.33592704  0.33352080  0.49626013  1
  Cu  Cu93  1  0.50316469  0.49976732  0.25274056  1
  Cu  Cu94  1  0.66290822  0.66443231  0.49096599  1
  Cu  Cu95  1  0.49333841  0.84152117  0.25762153  1
  Cu  Cu96  1  0.17254937  0.16465771  0.25941940  1
  Cu  Cu97  1  0.82595486  0.16215139  0.74823489  1
  Cu  Cu98  1  -0.01188467  0.65885622  0.49097418  1
  Cu  Cu99  1  0.00242343  0.66205459  0.01010511  1
  Cu  Cu100  1  0.83530999  0.82450948  0.25372159  1
  Cu  Cu101  1  -0.00028268  0.33838325  0.00814226  1
  Cu  Cu102  1  -0.00099755  0.01465768  0.01172319  1
  Cu  Cu103  1  0.17912727  0.15703992  0.74428667  1
  Cu  Cu104  1  0.49324832  0.48972835  0.74161240  1
  Cu  Cu105  1  0.66981240  0.33116638  0.00904355  1
  Cu  Cu106  1  0.48612399  0.16386749  0.25167660  1
  Cu  Cu107  1  0.83463343  0.50668617  0.75136745  1
  Cu  Cu108  1  0.83236454  0.50038507  0.25404560  1
  Cu  Cu109  1  0.67381490  0.66096260  0.00868163  1
  Cu  Cu110  1  0.16077937  0.49508668  0.25542168  1
  Cu  Cu111  1  0.17361789  0.84226639  0.73455077  1
  Cu  Cu112  1  0.33210473  0.00402872  0.00134136  1
  Cu  Cu113  1  0.17564551  0.83908600  0.25513203  1
  Cu  Cu114  1  0.17419870  0.48930984  0.74460697  1
  Se  Se115  1  0.08697054  0.09586034  0.05876968  1
  Se  Se116  1  0.07616003  0.08628127  0.53180846  1
  Se  Se117  1  0.08179491  0.40852657  0.07262517  1
  Se  Se118  1  0.07761581  0.40496037  0.54617400  1
  Se  Se119  1  0.08056944  0.74986244  0.06268590  1
  Se  Se120  1  0.06516547  0.73353999  0.55599140  1
  Se  Se121  1  0.41494023  0.08367852  0.05734287  1
  Se  Se122  1  0.42276957  0.08686294  0.55579834  1
  Se  Se123  1  0.40956703  0.41117794  0.06002022  1
  Se  Se124  1  0.42190101  0.41817207  0.54876043  1
  Se  Se125  1  0.41197886  0.73994950  0.04572247  1
  Se  Se126  1  0.41542047  0.74762277  0.54648269  1
  Se  Se127  1  0.73404178  0.07141510  0.06697640  1
  Se  Se128  1  0.75095708  0.08744705  0.55303018  1
  Se  Se129  1  0.75594580  0.41029848  0.06154679  1
  Se  Se130  1  0.74963569  0.41766851  0.54659696  1
  Se  Se131  1  0.74251356  0.74791762  0.07082589  1
  Se  Se132  1  0.73917052  0.74345734  0.55808725  1
  Se  Se133  1  0.24392493  0.25241065  0.05673388  1
  Se  Se134  1  0.25842774  0.24950499  0.55473397  1
  Se  Se135  1  0.25751016  0.59603925  0.05745793  1
  Se  Se136  1  0.24919622  0.57845221  0.54635854  1
  Se  Se137  1  0.25358064  0.92204324  0.06266092  1
  Se  Se138  1  0.21703339  0.89265166  0.54722392  1
  Se  Se139  1  0.58140849  0.25026863  0.05771678  1
  Se  Se140  1  0.58481543  0.25005589  0.54575308  1
  Se  Se141  1  0.58798673  0.58686039  0.06919583  1
  Se  Se142  1  0.58069025  0.58453896  0.54987893  1
  Se  Se143  1  0.56613708  0.90288879  0.06125877  1
  Se  Se144  1  0.59089504  0.92004455  0.55147413  1
  Se  Se145  1  0.92418237  0.25656418  0.07115419  1
  Se  Se146  1  0.92201516  0.25287244  0.55990233  1
  Se  Se147  1  0.91835600  0.57936340  0.06059943  1
  Se  Se148  1  0.90333322  0.57697611  0.54446950  1
  Se  Se149  1  0.91930277  0.92998249  0.06605166  1
  Se  Se150  1  0.91851910  0.92704065  0.55084236  1
  Se  Se151  1  0.09222333  0.23146101  0.45284779  1
  Se  Se152  1  0.07984731  0.25495383  0.95185517  1
  Se  Se153  1  0.08149589  0.57944222  0.44442046  1
  Se  Se154  1  0.08218072  0.59138297  0.94260953  1
  Se  Se155  1  0.10146978  0.90100522  0.45215613  1
  Se  Se156  1  0.07261129  0.93396852  0.94539388  1
  Se  Se157  1  0.42084154  0.24985655  0.44519283  1
  Se  Se158  1  0.41461186  0.24794811  0.94755361  1
  Se  Se159  1  0.42226282  0.57935171  0.44279563  1
  Se  Se160  1  0.41155431  0.58564763  0.94262922  1
  Se  Se161  1  0.41984194  0.91522928  0.45834524  1
  Se  Se162  1  0.41306194  0.91880736  0.94579397  1
  Se  Se163  1  0.73985276  0.25958790  0.42787149  1
  Se  Se164  1  0.74650354  0.25364984  0.94197201  1
  Se  Se165  1  0.74784054  0.57964044  0.44221891  1
  Se  Se166  1  0.75683971  0.57562615  0.95777481  1
  Se  Se167  1  0.75114032  0.93106168  0.43104110  1
  Se  Se168  1  0.74416736  0.92501158  0.95043318  1
  Se  Se169  1  0.26585475  0.07153960  0.45150770  1
  Se  Se170  1  0.24685524  0.08435537  0.94607927  1
  Se  Se171  1  0.24857464  0.41705225  0.44707020  1
  Se  Se172  1  0.25565473  0.41336657  0.94197643  1
  Se  Se173  1  0.24670817  0.74280561  0.44514337  1
  Se  Se174  1  0.25941815  0.74180961  0.93791735  1
  Se  Se175  1  0.58398321  0.08869683  0.44309295  1
  Se  Se176  1  0.57985821  0.08175921  0.94945820  1
  Se  Se177  1  0.57894467  0.41854715  0.44012464  1
  Se  Se178  1  0.59172711  0.40410935  0.93973703  1
  Se  Se179  1  0.58301377  0.75455068  0.44340968  1
  Se  Se180  1  0.59201537  0.73831818  0.94886514  1
  Se  Se181  1  0.91996806  0.07164075  0.43514328  1
  Se  Se182  1  0.91658543  0.08880687  0.94837754  1
  Se  Se183  1  0.91243212  0.40680361  0.44594328  1
  Se  Se184  1  0.91639326  0.42302994  0.95671113  1
  Se  Se185  1  0.92175536  0.74966006  0.43101081  1
  Se  Se186  1  0.92776433  0.74430610  0.94485094  1
  Se  Se187  1  0.25195811  0.25268839  0.31212223  1
  Se  Se188  1  0.25182078  0.24228033  0.80418181  1
  Se  Se189  1  0.24583310  0.57719338  0.31204873  1
  Se  Se190  1  0.24234255  0.57642997  0.80713545  1
  Se  Se191  1  0.25511994  0.92172737  0.31057966  1
  Se  Se192  1  0.25018229  0.92088391  0.79620677  1
  Se  Se193  1  0.57465977  0.24868931  0.29945451  1
  Se  Se194  1  0.57697611  0.24086011  0.80679733  1
  Se  Se195  1  0.58604148  0.58555387  0.30235280  1
  Se  Se196  1  0.57676922  0.56469382  0.80338347  1
  Se  Se197  1  0.57971682  0.92319818  0.30951403  1
  Se  Se198  1  0.57748978  0.91934610  0.80751117  1
  Se  Se199  1  0.90639907  0.22903679  0.30629682  1
  Se  Se200  1  0.90344566  0.24499905  0.80663831  1
  Se  Se201  1  0.92099407  0.57786037  0.30709157  1
  Se  Se202  1  0.91795132  0.58453567  0.81035584  1
  Se  Se203  1  0.91884213  0.91075819  0.30348758  1
  Se  Se204  1  0.91554806  0.91927877  0.81208361  1
  Se  Se205  1  0.08976053  0.07774832  0.31078452  1
  Se  Se206  1  0.08729044  0.09231857  0.80779353  1
  Se  Se207  1  0.08275505  0.40949307  0.31152654  1
  Se  Se208  1  0.09103045  0.41817163  0.80918885  1
  Se  Se209  1  0.08723107  0.75271012  0.29957971  1
  Se  Se210  1  0.08765771  0.76485954  0.79282197  1
  Se  Se211  1  0.41136947  0.07788236  0.31013321  1
  Se  Se212  1  0.40878683  0.07671176  0.80305179  1
  Se  Se213  1  0.41512763  0.41632180  0.30009896  1
  Se  Se214  1  0.41292504  0.40853464  0.79704118  1
  Se  Se215  1  0.41383401  0.76074094  0.31799391  1
  Se  Se216  1  0.42734783  0.75505691  0.81260426  1
  Se  Se217  1  0.74422248  0.09114406  0.28813414  1
  Se  Se218  1  0.74550605  0.08037143  0.80246734  1
  Se  Se219  1  0.74620073  0.41247365  0.30033533  1
  Se  Se220  1  0.75657981  0.42297024  0.80868489  1
  Se  Se221  1  0.74535720  0.74458222  0.30294142  1
  Se  Se222  1  0.75774089  0.76471774  0.81851881  1
  Se  Se223  1  0.25155550  0.08477932  0.19814835  1
  Se  Se224  1  0.24136354  0.07493521  0.67514572  1
  Se  Se225  1  0.25284813  0.41988513  0.20313499  1
  Se  Se226  1  0.25711340  0.40867032  0.69172632  1
  Se  Se227  1  0.25059399  0.76178793  0.18708122  1
  Se  Se228  1  0.25315040  0.75745996  0.68025111  1
  Se  Se229  1  0.57154946  0.08145635  0.19852228  1
  Se  Se230  1  0.58321195  0.07913141  0.69558038  1
  Se  Se231  1  0.58281316  0.41170070  0.19839618  1
  Se  Se232  1  0.57794306  0.41936708  0.68043958  1
  Se  Se233  1  0.57628566  0.75251941  0.20773771  1
  Se  Se234  1  0.57711950  0.75889972  0.69308916  1
  Se  Se235  1  0.93559895  0.06824866  0.20465601  1
  Se  Se236  1  0.91339110  0.09755510  0.68376518  1
  Se  Se237  1  0.91535454  0.41189475  0.20415894  1
  Se  Se238  1  0.91372095  0.43227172  0.68811228  1
  Se  Se239  1  0.92141775  0.74282201  0.20076394  1
  Se  Se240  1  0.90243293  0.76778985  0.69070065  1
  Se  Se241  1  0.08496116  0.25122661  0.20943250  1
  Se  Se242  1  0.09602634  0.24477503  0.69097783  1
  Se  Se243  1  0.08079810  0.58293976  0.20346902  1
  Se  Se244  1  0.09323952  0.56868823  0.68539929  1
  Se  Se245  1  0.08775205  0.91713990  0.19928142  1
  Se  Se246  1  0.09407387  0.92333888  0.67656639  1
  Se  Se247  1  0.40735271  0.25035243  0.19665284  1
  Se  Se248  1  0.42091531  0.24943732  0.69715579  1
  Se  Se249  1  0.42469411  0.58154918  0.18992649  1
  Se  Se250  1  0.41910877  0.57964872  0.68660433  1
  Se  Se251  1  0.40830302  0.91903433  0.20135141  1
  Se  Se252  1  0.41145485  0.91220831  0.68446665  1
  Se  Se253  1  0.76124875  0.22154079  0.20102673  1
  Se  Se254  1  0.75264282  0.24391763  0.68584905  1
  Se  Se255  1  0.74825004  0.58270942  0.19994283  1
  Se  Se256  1  0.75308555  0.58626588  0.69327046  1
  Se  Se257  1  0.75251261  0.91188304  0.20227905  1
  Se  Se258  1  0.74434753  0.92904052  0.70047879  1
