# generated using pymatgen
data_In86Cu29Se144
_symmetry_space_group_name_H-M   'P 1'
_cell_length_a   17.58094318
_cell_length_b   17.58397114
_cell_length_c   23.44677360
_cell_angle_alpha   89.99791312
_cell_angle_beta   89.97873376
_cell_angle_gamma   89.99679406
_symmetry_Int_Tables_number   1
_chemical_formula_structural   In86Cu29Se144
_chemical_formula_sum   'In86 Cu29 Se144'
_cell_volume   7248.40066936
_cell_formula_units_Z   1
loop_
 _symmetry_equiv_pos_site_id
 _symmetry_equiv_pos_as_xyz
  1  'x, y, z'
loop_
 _atom_site_type_symbol
 _atom_site_label
 _atom_site_symmetry_multiplicity
 _atom_site_fract_x
 _atom_site_fract_y
 _atom_site_fract_z
 _atom_site_occupancy
  In  In0  1  0.01353067  0.16845390  0.12282666  1
  In  In1  1  -0.00974876  0.17003657  0.63338015  1
  In  In2  1  -0.00996304  0.49685060  0.11948467  1
  In  In3  1  0.01167210  0.49930461  0.62391960  1
  In  In4  1  -0.00708960  0.84223056  0.12340246  1
  In  In5  1  0.00989752  0.82402285  0.63634295  1
  In  In6  1  0.33696174  0.16364028  0.12470228  1
  In  In7  1  0.33889272  0.16733201  0.62528499  1
  In  In8  1  0.31968103  0.50149470  0.12416926  1
  In  In9  1  0.34476377  0.50824308  0.61905733  1
  In  In10  1  0.34660451  0.83828418  0.12948011  1
  In  In11  1  0.32735847  0.82024537  0.61862378  1
  In  In12  1  0.65444079  0.17404398  0.12304289  1
  In  In13  1  0.66512560  0.15633219  0.63483247  1
  In  In14  1  0.66318701  0.50193611  0.12342911  1
  In  In15  1  0.65691889  0.51264784  0.63569217  1
  In  In16  1  0.66128512  0.83379877  0.12901809  1
  In  In17  1  0.65875352  0.83754338  0.62763323  1
  In  In18  1  0.17936370  -0.01441932  0.37550635  1
  In  In19  1  0.17394516  0.01048380  0.87916450  1
  In  In20  1  0.17956776  0.34467301  0.36512185  1
  In  In21  1  0.16802605  0.32805851  0.88459795  1
  In  In22  1  0.16925674  0.67065421  0.38141970  1
  In  In23  1  0.15655309  0.65952199  0.86788367  1
  In  In24  1  0.50149854  -0.00667917  0.36750827  1
  In  In25  1  0.50587937  -0.00943206  0.88341330  1
  In  In26  1  0.50102177  0.33761622  0.36607918  1
  In  In27  1  0.50733158  0.32165246  0.87799830  1
  In  In28  1  0.50447461  0.66193327  0.37831913  1
  In  In29  1  0.51035663  0.67474947  0.86908239  1
  In  In30  1  0.83210290  0.00565735  0.37247199  1
  In  In31  1  0.81610642  -0.01645746  0.87054179  1
  In  In32  1  0.82928540  0.32874044  0.36210104  1
  In  In33  1  0.82566393  0.35609547  0.87662323  1
  In  In34  1  0.82386841  0.67399156  0.37564884  1
  In  In35  1  0.83162983  0.66226934  0.87361234  1
  In  In36  1  -0.01325375  0.16857790  0.37059745  1
  In  In37  1  0.01230014  0.16461610  0.87690502  1
  In  In38  1  0.01229590  0.50342858  0.37662291  1
  In  In39  1  -0.01225552  0.51081036  0.88265600  1
  In  In40  1  0.01060987  0.84418223  0.37742241  1
  In  In41  1  -0.01203905  0.82059726  0.86738380  1
  In  In42  1  0.33579610  0.16595124  0.36470490  1
  In  In43  1  0.34920610  0.14025712  0.90328918  1
  In  In44  1  0.34118250  0.50373231  0.37639119  1
  In  In45  1  0.31862214  0.49732936  0.87682204  1
  In  In46  1  0.33126391  0.83846991  0.37282179  1
  In  In47  1  0.35851093  0.83139300  0.88316815  1
  In  In48  1  0.65818294  0.16115219  0.36254292  1
  In  In49  1  0.65285514  0.15687979  0.86401121  1
  In  In50  1  0.65775022  0.48946840  0.36736851  1
  In  In51  1  0.68748616  0.51569895  0.85503147  1
  In  In52  1  0.65908342  0.82686473  0.36410574  1
  In  In53  1  0.65949679  0.82687455  0.87982118  1
  In  In54  1  0.16478793  0.01015473  0.12550082  1
  In  In55  1  0.17907468  -0.01710053  0.62996344  1
  In  In56  1  0.16656887  0.33415385  0.12934833  1
  In  In57  1  0.15259018  0.34385448  0.62406377  1
  In  In58  1  0.17739349  0.66110261  0.12156956  1
  In  In59  1  0.17135417  0.66643594  0.62734400  1
  In  In60  1  0.49504685  0.00267498  0.12618187  1
  In  In61  1  0.52454988  -0.01726609  0.62570580  1
  In  In62  1  0.50648408  0.32334861  0.12762189  1
  In  In63  1  0.49389961  0.33688334  0.62536873  1
  In  In64  1  0.50957634  0.68761915  0.11709374  1
  In  In65  1  0.49957678  0.66742412  0.62522235  1
  In  In66  1  0.82685148  -0.02224471  0.11777795  1
  In  In67  1  0.83161128  0.00242497  0.63662963  1
  In  In68  1  0.82013223  0.34834477  0.12925914  1
  In  In69  1  0.82698205  0.33149067  0.62800872  1
  In  In70  1  0.81643041  0.65852076  0.11083215  1
  In  In71  1  0.82611462  0.67031863  0.64201312  1
  In  In72  1  0.34102479  0.66963517  0.24377975  1
  In  In73  1  -0.00221002  0.66799063  0.25713776  1
  In  In74  1  0.83320533  0.17008571  -0.00286391  1
  In  In75  1  -0.00553849  0.33827189  0.75425910  1
  In  In76  1  0.50468647  0.50313028  0.00129846  1
  In  In77  1  0.34027833  -0.00737122  0.76142177  1
  In  In78  1  0.83555022  0.83411306  0.50048371  1
  In  In79  1  0.16444991  0.16914888  0.50120019  1
  In  In80  1  0.83295524  0.50037120  0.51133892  1
  In  In81  1  0.49627088  0.16103303  0.49275241  1
  In  In82  1  0.82832353  0.16731822  0.50740408  1
  In  In83  1  0.33504634  0.33112833  0.75331762  1
  In  In84  1  -0.00145182  0.00529958  0.24795334  1
  In  In85  1  0.16658629  0.83245809  0.00361786  1
  Cu  Cu86  1  0.16597623  0.83027404  0.75052791  1
  Cu  Cu87  1  0.16522148  0.50392450  0.75086305  1
  Cu  Cu88  1  0.49843153  0.50203410  0.74676351  1
  Cu  Cu89  1  0.66061823  0.66240884  0.50128749  1
  Cu  Cu90  1  0.01108025  0.67145659  0.50649896  1
  Cu  Cu91  1  0.65644182  0.33038053  0.49408447  1
  Cu  Cu92  1  0.65998413  -0.00450733  0.00044899  1
  Cu  Cu93  1  0.32830896  0.34666181  0.49717556  1
  Cu  Cu94  1  0.17331865  0.16491184  0.76126202  1
  Cu  Cu95  1  0.00423807  0.33440428  0.00337674  1
  Cu  Cu96  1  0.00878406  -0.00484315  0.50713307  1
  Cu  Cu97  1  -0.00317898  -0.00564906  -0.00407219  1
  Cu  Cu98  1  0.33224466  0.66463396  0.00089646  1
  Cu  Cu99  1  0.83263597  0.16171731  0.75639758  1
  Cu  Cu100  1  -0.00215821  0.66204536  -0.00723645  1
  Cu  Cu101  1  0.00600223  0.34389079  0.49289592  1
  Cu  Cu102  1  0.83253426  0.17078986  0.24037369  1
  Cu  Cu103  1  0.16454038  0.49554948  0.25004402  1
  Cu  Cu104  1  0.82418115  0.82704370  0.24517267  1
  Cu  Cu105  1  0.49857428  0.49970973  0.24818341  1
  Cu  Cu106  1  0.34000129  -0.00883105  0.49892590  1
  Cu  Cu107  1  0.66908942  0.34016975  -0.00032477  1
  Cu  Cu108  1  0.33773589  0.66828422  0.50004775  1
  Cu  Cu109  1  0.49952262  0.16635974  0.24556189  1
  Cu  Cu110  1  0.16922584  0.16890078  0.24756099  1
  Cu  Cu111  1  0.82907188  0.49857014  0.24241727  1
  Cu  Cu112  1  0.32862618  0.32899279  0.00425514  1
  Cu  Cu113  1  0.82898104  0.83627072  0.75647595  1
  Cu  Cu114  1  0.50283382  0.82848451  0.75019188  1
  Se  Se115  1  0.07782420  0.07700905  0.05058286  1
  Se  Se116  1  0.08094868  0.08159451  0.56814722  1
  Se  Se117  1  0.08577713  0.41805424  0.05837230  1
  Se  Se118  1  0.08877506  0.42597789  0.54617522  1
  Se  Se119  1  0.07248689  0.73906499  0.06063776  1
  Se  Se120  1  0.09155693  0.75665689  0.55905205  1
  Se  Se121  1  0.42811689  0.09492858  0.05471463  1
  Se  Se122  1  0.41539089  0.07097647  0.56155288  1
  Se  Se123  1  0.41205833  0.41288181  0.06063112  1
  Se  Se124  1  0.42058243  0.41799024  0.55141858  1
  Se  Se125  1  0.41056448  0.75373067  0.05133361  1
  Se  Se126  1  0.42329969  0.75131985  0.55213173  1
  Se  Se127  1  0.74397577  0.07834872  0.05721472  1
  Se  Se128  1  0.74116112  0.06899113  0.55886139  1
  Se  Se129  1  0.74957477  0.42551140  0.05141292  1
  Se  Se130  1  0.73377021  0.40736295  0.55938895  1
  Se  Se131  1  0.76246089  0.77490547  0.05980582  1
  Se  Se132  1  0.74780781  0.73942264  0.55874686  1
  Se  Se133  1  0.24641837  0.24839273  0.06063889  1
  Se  Se134  1  0.25597377  0.26296138  0.56058942  1
  Se  Se135  1  0.24629923  0.57811472  0.04654419  1
  Se  Se136  1  0.25258430  0.58606773  0.55481898  1
  Se  Se137  1  0.25507931  0.92273857  0.06174966  1
  Se  Se138  1  0.25108495  0.91232616  0.55076849  1
  Se  Se139  1  0.58260289  0.25483207  0.04712746  1
  Se  Se140  1  0.58533820  0.24675668  0.55859867  1
  Se  Se141  1  0.59648965  0.60049655  0.05092190  1
  Se  Se142  1  0.57964808  0.57879804  0.55579294  1
  Se  Se143  1  0.57837218  0.91583983  0.05817736  1
  Se  Se144  1  0.58590379  0.90444076  0.54638955  1
  Se  Se145  1  0.91791778  0.25802444  0.06270183  1
  Se  Se146  1  0.92816389  0.26433090  0.55571386  1
  Se  Se147  1  0.91338457  0.58166322  0.04972437  1
  Se  Se148  1  0.92274479  0.59832433  0.56412702  1
  Se  Se149  1  0.91363716  0.90813869  0.04463932  1
  Se  Se150  1  0.92317478  0.92027839  0.56605050  1
  Se  Se151  1  0.07906380  0.25567810  0.43485775  1
  Se  Se152  1  0.08301545  0.24590634  0.95212982  1
  Se  Se153  1  0.08666780  0.58616204  0.44859856  1
  Se  Se154  1  0.08860572  0.57989210  0.94646048  1
  Se  Se155  1  0.09220476  0.91778592  0.45063353  1
  Se  Se156  1  0.07783329  0.91395952  0.93591109  1
  Se  Se157  1  0.40498022  0.25891158  0.43997587  1
  Se  Se158  1  0.41861747  0.25402560  0.95094331  1
  Se  Se159  1  0.42086378  0.58259148  0.44847736  1
  Se  Se160  1  0.41164570  0.58685146  0.93787961  1
  Se  Se161  1  0.42235527  0.91476416  0.44069332  1
  Se  Se162  1  0.39275066  0.94470469  0.94611638  1
  Se  Se163  1  0.74232903  0.25194790  0.43837946  1
  Se  Se164  1  0.74189321  0.25521542  0.93614528  1
  Se  Se165  1  0.74402382  0.58207074  0.44313057  1
  Se  Se166  1  0.74939946  0.57761602  0.94182236  1
  Se  Se167  1  0.74796759  0.91810811  0.43705329  1
  Se  Se168  1  0.74448886  0.91088439  0.94929961  1
  Se  Se169  1  0.26109757  0.08141347  0.44466703  1
  Se  Se170  1  0.23408717  0.08987689  0.95861763  1
  Se  Se171  1  0.24591882  0.42708741  0.44214750  1
  Se  Se172  1  0.24780724  0.41523720  0.95182724  1
  Se  Se173  1  0.25613292  0.75285885  0.44533190  1
  Se  Se174  1  0.25214172  0.74428365  0.93777874  1
  Se  Se175  1  0.59455054  0.07456868  0.44059102  1
  Se  Se176  1  0.58494068  0.08565884  0.94679390  1
  Se  Se177  1  0.57598406  0.41640962  0.44242302  1
  Se  Se178  1  0.59246851  0.42024066  0.93560884  1
  Se  Se179  1  0.58841349  0.74991812  0.44331979  1
  Se  Se180  1  0.56107144  0.76269531  0.94774846  1
  Se  Se181  1  0.92596842  0.07555989  0.44914510  1
  Se  Se182  1  0.91582088  0.07451387  0.93590394  1
  Se  Se183  1  0.91226671  0.41427720  0.43766536  1
  Se  Se184  1  0.91827511  0.41521173  0.95035369  1
  Se  Se185  1  0.92980268  0.74272287  0.44059451  1
  Se  Se186  1  0.91316586  0.74776637  0.94468192  1
  Se  Se187  1  0.25401613  0.25262175  0.29957234  1
  Se  Se188  1  0.25699356  0.23946601  0.82024935  1
  Se  Se189  1  0.24477152  0.58319708  0.30550080  1
  Se  Se190  1  0.25257929  0.58467785  0.80261649  1
  Se  Se191  1  0.26078861  0.92349263  0.29874793  1
  Se  Se192  1  0.24528775  0.90311210  0.81703474  1
  Se  Se193  1  0.58241079  0.25328156  0.29821201  1
  Se  Se194  1  0.58791221  0.25785158  0.80044940  1
  Se  Se195  1  0.58070204  0.58226456  0.30311813  1
  Se  Se196  1  0.58314305  0.58734052  0.79788135  1
  Se  Se197  1  0.60292372  0.93316114  0.30110579  1
  Se  Se198  1  0.58051690  0.91278164  0.80780096  1
  Se  Se199  1  0.91814064  0.25018192  0.29502829  1
  Se  Se200  1  0.90926495  0.24574831  0.81676953  1
  Se  Se201  1  0.90404738  0.57286332  0.31216919  1
  Se  Se202  1  0.91816063  0.58282338  0.80465355  1
  Se  Se203  1  0.90889321  0.90546256  0.30538840  1
  Se  Se204  1  0.91760685  0.92068960  0.80426545  1
  Se  Se205  1  0.09168447  0.08916717  0.31280582  1
  Se  Se206  1  0.08527518  0.07816129  0.80501973  1
  Se  Se207  1  0.07746651  0.41542846  0.30300061  1
  Se  Se208  1  0.09039111  0.42114857  0.81370231  1
  Se  Se209  1  0.09469686  0.76123001  0.30693722  1
  Se  Se210  1  0.07886760  0.74574733  0.79953427  1
  Se  Se211  1  0.42000067  0.08165916  0.30131295  1
  Se  Se212  1  0.42655233  0.09066143  0.81413903  1
  Se  Se213  1  0.41200053  0.42015964  0.30142483  1
  Se  Se214  1  0.42333542  0.42415725  0.81262176  1
  Se  Se215  1  0.42651710  0.75433451  0.30867235  1
  Se  Se216  1  0.41470033  0.74850750  0.80225085  1
  Se  Se217  1  0.75701460  0.08740156  0.30048968  1
  Se  Se218  1  0.74489149  0.07573062  0.80204104  1
  Se  Se219  1  0.74601160  0.41442757  0.29798648  1
  Se  Se220  1  0.74462662  0.40656772  0.79457715  1
  Se  Se221  1  0.74464545  0.74041790  0.29858079  1
  Se  Se222  1  0.74677931  0.75130810  0.80911099  1
  Se  Se223  1  0.25098687  0.08349563  0.19609573  1
  Se  Se224  1  0.25117300  0.08764484  0.69660652  1
  Se  Se225  1  0.25284450  0.41607926  0.19868468  1
  Se  Se226  1  0.24528472  0.42166360  0.69113637  1
  Se  Se227  1  0.24218236  0.75842125  0.19044615  1
  Se  Se228  1  0.25305085  0.74938478  0.69798949  1
  Se  Se229  1  0.58552318  0.08415950  0.19363489  1
  Se  Se230  1  0.57517152  0.07840227  0.69848023  1
  Se  Se231  1  0.58265856  0.41762389  0.19221045  1
  Se  Se232  1  0.57851874  0.41393200  0.69511256  1
  Se  Se233  1  0.58111576  0.75028291  0.19888075  1
  Se  Se234  1  0.58633943  0.74526835  0.69557190  1
  Se  Se235  1  0.90801154  0.08586469  0.18049527  1
  Se  Se236  1  0.92008745  0.08227562  0.70350054  1
  Se  Se237  1  0.91896632  0.41610495  0.19593252  1
  Se  Se238  1  0.90994295  0.42669471  0.68962876  1
  Se  Se239  1  0.91072898  0.74911996  0.18869262  1
  Se  Se240  1  0.91495436  0.75443095  0.70314352  1
  Se  Se241  1  0.08106892  0.25106501  0.19875584  1
  Se  Se242  1  0.09366719  0.24487391  0.69894428  1
  Se  Se243  1  0.08644964  0.58051894  0.19180121  1
  Se  Se244  1  0.08287600  0.58544324  0.69557113  1
  Se  Se245  1  0.08876641  0.91039665  0.19320927  1
  Se  Se246  1  0.08599011  0.92017337  0.70061907  1
  Se  Se247  1  0.41422453  0.25167040  0.19568262  1
  Se  Se248  1  0.42761694  0.23769595  0.69729489  1
  Se  Se249  1  0.42767864  0.57915268  0.18042966  1
  Se  Se250  1  0.41386018  0.58705194  0.69627153  1
  Se  Se251  1  0.41953495  0.92041867  0.20061878  1
  Se  Se252  1  0.41914589  0.90684691  0.68970741  1
  Se  Se253  1  0.74387519  0.25248312  0.19096858  1
  Se  Se254  1  0.75424503  0.24231930  0.69593744  1
  Se  Se255  1  0.74739674  0.58548556  0.19238273  1
  Se  Se256  1  0.75442837  0.57366557  0.70296475  1
  Se  Se257  1  0.74596603  0.92054552  0.19851004  1
  Se  Se258  1  0.74611522  0.91418928  0.69747723  1
