# generated using pymatgen
data_In86Cu29Se144
_symmetry_space_group_name_H-M   'P 1'
_cell_length_a   17.58767749
_cell_length_b   17.59434979
_cell_length_c   23.44698559
_cell_angle_alpha   90.02552355
_cell_angle_beta   89.97488323
_cell_angle_gamma   90.02216671
_symmetry_Int_Tables_number   1
_chemical_formula_structural   In86Cu29Se144
_chemical_formula_sum   'In86 Cu29 Se144'
_cell_volume   7255.52118051
_cell_formula_units_Z   1
loop_
 _symmetry_equiv_pos_site_id
 _symmetry_equiv_pos_as_xyz
  1  'x, y, z'
loop_
 _atom_site_type_symbol
 _atom_site_label
 _atom_site_symmetry_multiplicity
 _atom_site_fract_x
 _atom_site_fract_y
 _atom_site_fract_z
 _atom_site_occupancy
  In  In0  1  0.00628573  0.15804713  0.12891672  1
  In  In1  1  0.00023115  0.16360793  0.62844310  1
  In  In2  1  -0.01521976  0.49976772  0.12669754  1
  In  In3  1  0.00224946  0.50964654  0.62024192  1
  In  In4  1  0.00407065  0.84493162  0.12407091  1
  In  In5  1  -0.00075348  0.83301375  0.63022292  1
  In  In6  1  0.34747749  0.17300321  0.11912473  1
  In  In7  1  0.34010430  0.15338035  0.62410176  1
  In  In8  1  0.33281756  0.50570906  0.13504469  1
  In  In9  1  0.35878102  0.50245295  0.60831330  1
  In  In10  1  0.33973529  0.81847515  0.12698582  1
  In  In11  1  0.33452230  0.83626156  0.62058147  1
  In  In12  1  0.66150481  0.17118578  0.13045741  1
  In  In13  1  0.65160786  0.17005810  0.65040175  1
  In  In14  1  0.66760370  0.48742333  0.12448537  1
  In  In15  1  0.65340359  0.48571849  0.61188845  1
  In  In16  1  0.67376444  0.83953892  0.11724139  1
  In  In17  1  0.65582912  0.84776478  0.63125567  1
  In  In18  1  0.15420863  -0.00429250  0.38016856  1
  In  In19  1  0.17940016  0.00521245  0.86988534  1
  In  In20  1  0.16763523  0.33554328  0.36523307  1
  In  In21  1  0.15985288  0.33177639  0.87930364  1
  In  In22  1  0.19373903  0.66752194  0.37975932  1
  In  In23  1  0.17609702  0.67788214  0.86378318  1
  In  In24  1  0.50693335  -0.00477328  0.37994006  1
  In  In25  1  0.49420754  0.00353125  0.86853954  1
  In  In26  1  0.49940843  0.32837050  0.37968481  1
  In  In27  1  0.49835017  0.31232708  0.87010107  1
  In  In28  1  0.48681065  0.66983631  0.38812130  1
  In  In29  1  0.49683418  0.67929935  0.87230119  1
  In  In30  1  0.83677998  0.00554218  0.36852520  1
  In  In31  1  0.82200724  -0.01359762  0.86976964  1
  In  In32  1  0.83244170  0.33385123  0.37094027  1
  In  In33  1  0.82577935  0.34305049  0.87794283  1
  In  In34  1  0.81820119  0.66181455  0.37869543  1
  In  In35  1  0.83683658  0.66156592  0.87738570  1
  In  In36  1  -0.00373975  0.16272540  0.36690533  1
  In  In37  1  0.01713422  0.16323693  0.88055103  1
  In  In38  1  0.00262226  0.48779304  0.37258138  1
  In  In39  1  -0.01259782  0.49861370  0.87491321  1
  In  In40  1  0.00411408  0.84661686  0.37553547  1
  In  In41  1  -0.00442339  0.82408435  0.86948883  1
  In  In42  1  0.33785473  0.18746077  0.37783851  1
  In  In43  1  0.34795330  0.15338814  0.89087929  1
  In  In44  1  0.34012747  0.50212659  0.37608469  1
  In  In45  1  0.33080486  0.50807007  0.87078007  1
  In  In46  1  0.34051942  0.82077523  0.39042766  1
  In  In47  1  0.34349858  0.83613315  0.86454200  1
  In  In48  1  0.66354854  0.16640319  0.36994395  1
  In  In49  1  0.64524976  0.14573174  0.85630596  1
  In  In50  1  0.66424298  0.48483308  0.39257709  1
  In  In51  1  0.67843505  0.49946051  0.87095188  1
  In  In52  1  0.65450151  0.83583684  0.37654365  1
  In  In53  1  0.65069993  0.84904481  0.87902591  1
  In  In54  1  0.15223063  -0.00111366  0.12584755  1
  In  In55  1  0.17423170  -0.00812443  0.62908223  1
  In  In56  1  0.17843008  0.32423745  0.13450572  1
  In  In57  1  0.17526600  0.33055951  0.62057280  1
  In  In58  1  0.17914106  0.67716127  0.12674555  1
  In  In59  1  0.15779277  0.67547879  0.62971849  1
  In  In60  1  0.51069328  0.00805852  0.12055421  1
  In  In61  1  0.49687577  -0.00248142  0.62156267  1
  In  In62  1  0.51121681  0.33002206  0.13494279  1
  In  In63  1  0.50876362  0.32868900  0.61548192  1
  In  In64  1  0.48842322  0.67166906  0.12412921  1
  In  In65  1  0.48775236  0.67406692  0.62463078  1
  In  In66  1  0.83821074  -0.00142493  0.12675028  1
  In  In67  1  0.83641658  0.00121596  0.63528696  1
  In  In68  1  0.82270374  0.34075926  0.12943889  1
  In  In69  1  0.80771230  0.32912045  0.61611623  1
  In  In70  1  0.83334458  0.66289669  0.11238086  1
  In  In71  1  0.84372056  0.66127624  0.62464202  1
  In  In72  1  0.82570035  0.16446449  0.49360830  1
  In  In73  1  0.50380048  0.50049798  0.00071986  1
  In  In74  1  -0.00643863  0.33820223  0.75403161  1
  In  In75  1  0.66331123  0.67092176  0.74397809  1
  In  In76  1  0.33531848  0.33265585  0.74293200  1
  In  In77  1  0.65848503  0.66396460  0.25533311  1
  In  In78  1  0.82670475  0.16854962  -0.00233385  1
  In  In79  1  0.33255276  0.00070203  0.25247993  1
  In  In80  1  0.16827211  0.50258895  0.49096721  1
  In  In81  1  0.17623040  0.16444562  0.50479147  1
  In  In82  1  0.82824351  0.83071423  0.51076084  1
  In  In83  1  0.16448684  0.50101571  0.00716094  1
  In  In84  1  0.00475109  0.66727639  0.24489318  1
  In  In85  1  0.17135060  0.83851749  -0.00319083  1
  Cu  Cu86  1  -0.00041545  0.66475741  -0.00644055  1
  Cu  Cu87  1  0.66430209  0.32908842  0.00198484  1
  Cu  Cu88  1  0.66827855  0.00205203  0.50568644  1
  Cu  Cu89  1  0.66846405  0.66849723  -0.00762514  1
  Cu  Cu90  1  0.49800754  0.49810404  0.25667546  1
  Cu  Cu91  1  0.17046759  0.51099665  0.74372538  1
  Cu  Cu92  1  0.17209693  0.16625757  0.75491994  1
  Cu  Cu93  1  0.17195536  0.83208548  0.25068214  1
  Cu  Cu94  1  0.33436250  -0.00111838  -0.00334072  1
  Cu  Cu95  1  0.16913352  0.49452305  0.25336964  1
  Cu  Cu96  1  0.33847887  -0.00106934  0.50207576  1
  Cu  Cu97  1  0.33476014  0.33111055  0.00606309  1
  Cu  Cu98  1  -0.00232065  0.67033877  0.50172737  1
  Cu  Cu99  1  0.66010515  -0.00242478  -0.00716783  1
  Cu  Cu100  1  0.49975694  0.83565990  0.25792789  1
  Cu  Cu101  1  0.50197893  0.49919218  0.74021337  1
  Cu  Cu102  1  0.16580549  0.16501485  0.25025721  1
  Cu  Cu103  1  0.83328697  0.49949285  0.74809844  1
  Cu  Cu104  1  -0.00421600  -0.00235051  0.00154716  1
  Cu  Cu105  1  0.83507458  0.82676637  0.75327765  1
  Cu  Cu106  1  0.50117768  0.17193365  0.25034997  1
  Cu  Cu107  1  0.82769906  0.49620081  0.25327795  1
  Cu  Cu108  1  0.83265460  0.84316294  0.24599170  1
  Cu  Cu109  1  -0.00109424  0.32794517  0.00087085  1
  Cu  Cu110  1  0.83867257  0.16441410  0.75121388  1
  Cu  Cu111  1  -0.00411070  0.32885528  0.49265296  1
  Cu  Cu112  1  0.83131435  0.16991773  0.24735963  1
  Cu  Cu113  1  0.16577090  0.83708459  0.74762827  1
  Cu  Cu114  1  0.65877796  0.66325129  0.50204238  1
  Se  Se115  1  0.08110207  0.08201589  0.05125238  1
  Se  Se116  1  0.08007188  0.07765000  0.55927068  1
  Se  Se117  1  0.07661933  0.40735220  0.06493434  1
  Se  Se118  1  0.07843260  0.40690851  0.55373912  1
  Se  Se119  1  0.07894920  0.74307966  0.05631550  1
  Se  Se120  1  0.07721059  0.75298556  0.55637052  1
  Se  Se121  1  0.41930045  0.08072004  0.05182374  1
  Se  Se122  1  0.42387805  0.08587453  0.54831889  1
  Se  Se123  1  0.41384140  0.41433126  0.06463188  1
  Se  Se124  1  0.43257839  0.41219194  0.54251420  1
  Se  Se125  1  0.42093166  0.75494794  0.05004246  1
  Se  Se126  1  0.41409699  0.75335467  0.55028086  1
  Se  Se127  1  0.73919076  0.07646565  0.05757344  1
  Se  Se128  1  0.74662927  0.08141842  0.56597562  1
  Se  Se129  1  0.74991723  0.41530968  0.04987072  1
  Se  Se130  1  0.75747171  0.42835085  0.54644865  1
  Se  Se131  1  0.75084834  0.75034293  0.04951180  1
  Se  Se132  1  0.73524418  0.74060564  0.56810633  1
  Se  Se133  1  0.24887286  0.24703228  0.05603876  1
  Se  Se134  1  0.27151143  0.25906932  0.55514794  1
  Se  Se135  1  0.26287913  0.59291901  0.05616953  1
  Se  Se136  1  0.24619380  0.58512228  0.56259633  1
  Se  Se137  1  0.25841863  0.92360286  0.06464599  1
  Se  Se138  1  0.24797623  0.91911593  0.55048698  1
  Se  Se139  1  0.58076251  0.24937694  0.05741796  1
  Se  Se140  1  0.60485101  0.24194220  0.56195293  1
  Se  Se141  1  0.59396359  0.59213586  0.06134094  1
  Se  Se142  1  0.57338936  0.58727921  0.55893324  1
  Se  Se143  1  0.58039137  0.91482457  0.05170787  1
  Se  Se144  1  0.58144139  0.91443543  0.55072626  1
  Se  Se145  1  0.91638550  0.25196593  0.06291700  1
  Se  Se146  1  0.92026730  0.25257136  0.55826732  1
  Se  Se147  1  0.91902291  0.57851895  0.04738816  1
  Se  Se148  1  0.91526282  0.58078019  0.54779569  1
  Se  Se149  1  0.91353559  0.91378396  0.05372252  1
  Se  Se150  1  0.92104893  0.92642322  0.55919852  1
  Se  Se151  1  0.08228030  0.24925440  0.43859706  1
  Se  Se152  1  0.08898913  0.24829416  0.95344089  1
  Se  Se153  1  0.07464383  0.59522713  0.43396181  1
  Se  Se154  1  0.08471204  0.58761282  0.93560797  1
  Se  Se155  1  0.08461315  0.91070231  0.45258492  1
  Se  Se156  1  0.07717077  0.92276080  0.93697211  1
  Se  Se157  1  0.43839054  0.22888140  0.44953931  1
  Se  Se158  1  0.42205829  0.25146384  0.95317382  1
  Se  Se159  1  0.39171801  0.59607643  0.45134178  1
  Se  Se160  1  0.41260727  0.58944308  0.94280987  1
  Se  Se161  1  0.42313738  0.91542590  0.44895059  1
  Se  Se162  1  0.41497264  0.91797867  0.93983863  1
  Se  Se163  1  0.73718821  0.26131844  0.44185332  1
  Se  Se164  1  0.73392078  0.24841477  0.93411836  1
  Se  Se165  1  0.74580480  0.58150074  0.45195168  1
  Se  Se166  1  0.75154264  0.57930784  0.94576746  1
  Se  Se167  1  0.74816767  0.92285392  0.44238606  1
  Se  Se168  1  0.74961170  0.91249407  0.94828518  1
  Se  Se169  1  0.26109464  0.07712206  0.43677518  1
  Se  Se170  1  0.24465877  0.08313416  0.95078709  1
  Se  Se171  1  0.25634820  0.40290900  0.44095840  1
  Se  Se172  1  0.25888610  0.41267472  0.94450355  1
  Se  Se173  1  0.23480185  0.76373223  0.45472090  1
  Se  Se174  1  0.26016365  0.74694752  0.94046708  1
  Se  Se175  1  0.59146761  0.08212861  0.44402021  1
  Se  Se176  1  0.57775592  0.08395985  0.94220443  1
  Se  Se177  1  0.55360806  0.42939732  0.45308082  1
  Se  Se178  1  0.58779998  0.40966560  0.93729076  1
  Se  Se179  1  0.58265729  0.75123711  0.44814937  1
  Se  Se180  1  0.58080489  0.75147936  0.94502299  1
  Se  Se181  1  0.92666182  0.07518673  0.44434247  1
  Se  Se182  1  0.91707153  0.07706116  0.93866355  1
  Se  Se183  1  0.91465829  0.41563981  0.44232480  1
  Se  Se184  1  0.91741006  0.41263981  0.94809320  1
  Se  Se185  1  0.91473859  0.74770174  0.43929890  1
  Se  Se186  1  0.91538216  0.75103407  0.94509145  1
  Se  Se187  1  0.25142972  0.24854332  0.30065001  1
  Se  Se188  1  0.24968781  0.25030383  0.81290912  1
  Se  Se189  1  0.25273169  0.57898963  0.30420522  1
  Se  Se190  1  0.25679139  0.58923995  0.79790787  1
  Se  Se191  1  0.24877720  0.91001394  0.31538929  1
  Se  Se192  1  0.25270156  0.91737166  0.80109367  1
  Se  Se193  1  0.58416582  0.25588211  0.30407430  1
  Se  Se194  1  0.59216268  0.25789184  0.79763673  1
  Se  Se195  1  0.57464815  0.57765170  0.32048939  1
  Se  Se196  1  0.57772500  0.57652281  0.80714151  1
  Se  Se197  1  0.58684453  0.92209246  0.30251685  1
  Se  Se198  1  0.58553566  0.92643065  0.80083637  1
  Se  Se199  1  0.91541603  0.25109202  0.30276994  1
  Se  Se200  1  0.91337618  0.24266450  0.81711659  1
  Se  Se201  1  0.90941013  0.58253253  0.30771153  1
  Se  Se202  1  0.91514675  0.58269374  0.80200252  1
  Se  Se203  1  0.91928570  0.91824288  0.30254130  1
  Se  Se204  1  0.91762918  0.91493178  0.80363145  1
  Se  Se205  1  0.08581721  0.07912258  0.30394136  1
  Se  Se206  1  0.08537864  0.08249933  0.80426000  1
  Se  Se207  1  0.07788563  0.41160405  0.29720811  1
  Se  Se208  1  0.09391693  0.42921302  0.80654792  1
  Se  Se209  1  0.09091167  0.75060486  0.31142668  1
  Se  Se210  1  0.08219146  0.74966090  0.79861005  1
  Se  Se211  1  0.42258901  0.09035471  0.31150874  1
  Se  Se212  1  0.41368263  0.09601121  0.80525297  1
  Se  Se213  1  0.41678761  0.41222698  0.30909278  1
  Se  Se214  1  0.42452980  0.42211987  0.80775993  1
  Se  Se215  1  0.41711988  0.75153971  0.31023991  1
  Se  Se216  1  0.40915631  0.73839262  0.79780619  1
  Se  Se217  1  0.75021664  0.08517355  0.30245073  1
  Se  Se218  1  0.75329185  0.07854883  0.80041793  1
  Se  Se219  1  0.74191164  0.42086044  0.31030719  1
  Se  Se220  1  0.75022852  0.41354970  0.79837166  1
  Se  Se221  1  0.75538401  0.76086419  0.30662851  1
  Se  Se222  1  0.74847207  0.75334699  0.81349431  1
  Se  Se223  1  0.24630413  0.08777019  0.18734969  1
  Se  Se224  1  0.24955870  0.08592907  0.69511775  1
  Se  Se225  1  0.25660848  0.41427638  0.20007901  1
  Se  Se226  1  0.24931416  0.43009943  0.68420480  1
  Se  Se227  1  0.25820760  0.74709292  0.20324363  1
  Se  Se228  1  0.24921835  0.75557906  0.69239000  1
  Se  Se229  1  0.58231303  0.08389752  0.19896968  1
  Se  Se230  1  0.59619326  0.05038485  0.69618576  1
  Se  Se231  1  0.58649332  0.42154611  0.20195611  1
  Se  Se232  1  0.58274435  0.41163935  0.69138621  1
  Se  Se233  1  0.57887521  0.75800271  0.19228586  1
  Se  Se234  1  0.56542140  0.76425666  0.69748528  1
  Se  Se235  1  0.91579513  0.08330987  0.19674634  1
  Se  Se236  1  0.92537248  0.08285822  0.70120047  1
  Se  Se237  1  0.91297959  0.41559189  0.19938425  1
  Se  Se238  1  0.91019663  0.41885425  0.68381463  1
  Se  Se239  1  0.90800840  0.75529181  0.18776192  1
  Se  Se240  1  0.91620193  0.74582860  0.69662909  1
  Se  Se241  1  0.08152762  0.24838348  0.19689280  1
  Se  Se242  1  0.09297531  0.25063384  0.69626935  1
  Se  Se243  1  0.09572823  0.57415514  0.18627950  1
  Se  Se244  1  0.07568172  0.58661527  0.69615310  1
  Se  Se245  1  0.08408876  0.91400208  0.20113242  1
  Se  Se246  1  0.07999654  0.92061687  0.69700213  1
  Se  Se247  1  0.41498130  0.25271812  0.19753722  1
  Se  Se248  1  0.42797097  0.24122112  0.68967145  1
  Se  Se249  1  0.42290811  0.58569156  0.19980848  1
  Se  Se250  1  0.41376250  0.58049079  0.69265208  1
  Se  Se251  1  0.42393475  0.91344765  0.19164289  1
  Se  Se252  1  0.39162371  0.94039737  0.68653165  1
  Se  Se253  1  0.74502905  0.25436182  0.19777821  1
  Se  Se254  1  0.75652410  0.25111324  0.70126502  1
  Se  Se255  1  0.75502024  0.58192599  0.19174001  1
  Se  Se256  1  0.74913571  0.57429031  0.68640719  1
  Se  Se257  1  0.74549763  0.92132211  0.19263525  1
  Se  Se258  1  0.75487957  0.91038033  0.69805389  1
