# generated using pymatgen
data_In86Cu29Se144
_symmetry_space_group_name_H-M   'P 1'
_cell_length_a   17.58119597
_cell_length_b   17.57693494
_cell_length_c   23.43561261
_cell_angle_alpha   89.97958578
_cell_angle_beta   89.99817349
_cell_angle_gamma   89.99130993
_symmetry_Int_Tables_number   1
_chemical_formula_structural   In86Cu29Se144
_chemical_formula_sum   'In86 Cu29 Se144'
_cell_volume   7242.15536889
_cell_formula_units_Z   1
loop_
 _symmetry_equiv_pos_site_id
 _symmetry_equiv_pos_as_xyz
  1  'x, y, z'
loop_
 _atom_site_type_symbol
 _atom_site_label
 _atom_site_symmetry_multiplicity
 _atom_site_fract_x
 _atom_site_fract_y
 _atom_site_fract_z
 _atom_site_occupancy
  In  In0  1  0.01565411  0.16198343  0.12554930  1
  In  In1  1  -0.00143831  0.15924962  0.63114405  1
  In  In2  1  0.00401584  0.50036221  0.12458924  1
  In  In3  1  0.01692622  0.49317613  0.63037485  1
  In  In4  1  -0.01141146  0.81994212  0.11849438  1
  In  In5  1  0.01507990  0.82612244  0.63839870  1
  In  In6  1  0.33530524  0.16969473  0.12246845  1
  In  In7  1  0.32247804  0.17751188  0.62861730  1
  In  In8  1  0.33017108  0.49850866  0.12243298  1
  In  In9  1  0.31911597  0.50910832  0.64668306  1
  In  In10  1  0.32936992  0.83534217  0.11907214  1
  In  In11  1  0.33370403  0.83079151  0.63853814  1
  In  In12  1  0.64818012  0.17618245  0.11852094  1
  In  In13  1  0.67414496  0.17906115  0.63279482  1
  In  In14  1  0.66558356  0.49886071  0.09322252  1
  In  In15  1  0.65359537  0.49280045  0.63061165  1
  In  In16  1  0.67820299  0.83882133  0.11317427  1
  In  In17  1  0.65809868  0.83210154  0.63164909  1
  In  In18  1  0.17688731  -0.00528524  0.37139597  1
  In  In19  1  0.16770206  -0.00171953  0.87609695  1
  In  In20  1  0.16887027  0.33534253  0.37068129  1
  In  In21  1  0.18047603  0.32184137  0.88459728  1
  In  In22  1  0.16683324  0.66233997  0.36468102  1
  In  In23  1  0.16739970  0.66713988  0.87706842  1
  In  In24  1  0.49668868  -0.00134590  0.36174288  1
  In  In25  1  0.49301731  0.00657557  0.88306725  1
  In  In26  1  0.49608939  0.34695780  0.37366706  1
  In  In27  1  0.49517930  0.33523941  0.87809337  1
  In  In28  1  0.49741425  0.66445712  0.36543439  1
  In  In29  1  0.48934405  0.67156351  0.88790398  1
  In  In30  1  0.83514552  0.02169130  0.35696028  1
  In  In31  1  0.83134814  -0.01484906  0.87866495  1
  In  In32  1  0.83669252  0.32029784  0.36778348  1
  In  In33  1  0.83178045  0.35567576  0.88302243  1
  In  In34  1  0.83853051  0.65325531  0.36954657  1
  In  In35  1  0.83688466  0.65831905  0.88617637  1
  In  In36  1  -0.00244535  0.18096722  0.37002098  1
  In  In37  1  0.01700460  0.16843514  0.87627407  1
  In  In38  1  0.01194187  0.51048811  0.36127981  1
  In  In39  1  -0.00785085  0.51431354  0.88119652  1
  In  In40  1  0.01124987  0.82955698  0.36668454  1
  In  In41  1  0.00270144  0.83258429  0.87738524  1
  In  In42  1  0.32381222  0.16025441  0.37100956  1
  In  In43  1  0.33485600  0.16553214  0.87525428  1
  In  In44  1  0.32987722  0.49196766  0.36358565  1
  In  In45  1  0.33147870  0.49542691  0.87815309  1
  In  In46  1  0.32822726  0.83279538  0.35950653  1
  In  In47  1  0.33086602  0.83336119  0.87980152  1
  In  In48  1  0.67983922  0.16525241  0.36738154  1
  In  In49  1  0.64771257  0.17144461  0.88334327  1
  In  In50  1  0.65353335  0.50039179  0.37165957  1
  In  In51  1  0.66488679  0.49414399  0.89090544  1
  In  In52  1  0.65269819  0.83609817  0.36309272  1
  In  In53  1  0.67070250  0.81695638  0.89867277  1
  In  In54  1  0.17950316  0.01074567  0.11642067  1
  In  In55  1  0.16196939  0.00337418  0.63152697  1
  In  In56  1  0.16956957  0.33450829  0.12449880  1
  In  In57  1  0.17330745  0.34350638  0.61495173  1
  In  In58  1  0.16593113  0.66632742  0.12413068  1
  In  In59  1  0.17614311  0.65115326  0.63819916  1
  In  In60  1  0.49673139  0.00045943  0.12017003  1
  In  In61  1  0.49665684  -0.01255742  0.63150894  1
  In  In62  1  0.49778523  0.32693636  0.11059168  1
  In  In63  1  0.49784700  0.34423986  0.64014150  1
  In  In64  1  0.48807831  0.65714466  0.11193378  1
  In  In65  1  0.47454090  0.65773826  0.63279137  1
  In  In66  1  0.83278644  -0.02381934  0.13126757  1
  In  In67  1  0.83902391  0.01817474  0.63137543  1
  In  In68  1  0.82933723  0.34615693  0.12351321  1
  In  In69  1  0.82950314  0.32725391  0.63266307  1
  In  In70  1  0.84336938  0.67492580  0.11780000  1
  In  In71  1  0.83624259  0.68096639  0.62850825  1
  In  In72  1  0.66351503  0.65814502  0.76950019  1
  In  In73  1  0.83665319  0.16129520  0.00880457  1
  In  In74  1  0.49072058  0.83179274  0.51048633  1
  In  In75  1  0.50035216  0.17137035  0.51008813  1
  In  In76  1  0.17188470  0.82869047  0.49484028  1
  In  In77  1  0.00109308  -0.00543711  0.24455606  1
  In  In78  1  0.67764208  0.67720243  0.22618980  1
  In  In79  1  0.66128353  0.33407941  0.24450040  1
  In  In80  1  0.84081654  0.49518152  0.50381922  1
  In  In81  1  0.49242117  0.49779474  0.49966359  1
  In  In82  1  0.66188627  -0.00148259  0.75713818  1
  In  In83  1  0.84058989  0.84507510  0.49307993  1
  In  In84  1  0.83896191  0.17902713  0.49885657  1
  In  In85  1  0.00163352  0.33536566  0.75449108  1
  Cu  Cu86  1  0.01050421  0.33957822  0.49186002  1
  Cu  Cu87  1  0.32857609  0.33376610  0.49838649  1
  Cu  Cu88  1  0.33426865  0.33361511  0.00001749  1
  Cu  Cu89  1  0.84562064  0.83529912  0.75457604  1
  Cu  Cu90  1  0.16776154  0.83050668  0.24078123  1
  Cu  Cu91  1  0.00116896  0.00436069  0.50768580  1
  Cu  Cu92  1  0.17174468  0.17294352  0.24645234  1
  Cu  Cu93  1  0.66427192  -0.00204393  0.00122699  1
  Cu  Cu94  1  0.83240111  0.16945399  0.75922116  1
  Cu  Cu95  1  0.49224198  0.16699512  0.24365238  1
  Cu  Cu96  1  0.16537116  0.49926223  0.75931606  1
  Cu  Cu97  1  0.16813067  0.49756255  0.24358217  1
  Cu  Cu98  1  0.49422780  0.83783410  0.24000626  1
  Cu  Cu99  1  0.01021303  0.66017128  0.49724794  1
  Cu  Cu100  1  0.66341801  0.66734803  0.49983474  1
  Cu  Cu101  1  0.00698034  0.33983599  -0.00054890  1
  Cu  Cu102  1  0.00548894  0.66736843  0.00041348  1
  Cu  Cu103  1  0.50099608  0.50331101  0.23674587  1
  Cu  Cu104  1  0.17048281  0.16293805  0.75206961  1
  Cu  Cu105  1  0.33135823  -0.00049151  0.49765935  1
  Cu  Cu106  1  0.83688258  0.50049677  0.24280851  1
  Cu  Cu107  1  0.32239306  0.66508186  -0.00036589  1
  Cu  Cu108  1  0.67021855  0.00746843  0.48751830  1
  Cu  Cu109  1  0.16758026  0.83373753  0.75889314  1
  Cu  Cu110  1  0.00411038  -0.00493077  0.00262701  1
  Cu  Cu111  1  0.49940676  0.83031167  0.76305807  1
  Cu  Cu112  1  0.33616888  0.00163466  -0.00278862  1
  Cu  Cu113  1  0.49400192  0.16887735  0.75774445  1
  Cu  Cu114  1  0.82760210  0.50906784  0.75904121  1
  Se  Se115  1  0.08670938  0.08497759  0.04839782  1
  Se  Se116  1  0.08490216  0.08768028  0.55904369  1
  Se  Se117  1  0.08962594  0.42034711  0.05527792  1
  Se  Se118  1  0.08715825  0.42540388  0.54795857  1
  Se  Se119  1  0.08695302  0.75244129  0.05322481  1
  Se  Se120  1  0.08528964  0.74165569  0.56050759  1
  Se  Se121  1  0.41682746  0.08751215  0.05164281  1
  Se  Se122  1  0.41059880  0.07249107  0.56301625  1
  Se  Se123  1  0.41626907  0.42174473  0.05109300  1
  Se  Se124  1  0.40670626  0.41042479  0.56302684  1
  Se  Se125  1  0.40840525  0.75043001  0.04902617  1
  Se  Se126  1  0.39434591  0.73764209  0.55818441  1
  Se  Se127  1  0.74315045  0.07283755  0.06673594  1
  Se  Se128  1  0.74412497  0.08345212  0.55601431  1
  Se  Se129  1  0.75458690  0.40534221  0.04126168  1
  Se  Se130  1  0.74496725  0.40967129  0.56091958  1
  Se  Se131  1  0.74689758  0.74046690  0.05028959  1
  Se  Se132  1  0.74368650  0.75445829  0.55412974  1
  Se  Se133  1  0.24998179  0.25062655  0.05388633  1
  Se  Se134  1  0.24565961  0.24711558  0.54942290  1
  Se  Se135  1  0.24360670  0.57970307  0.05450782  1
  Se  Se136  1  0.25338491  0.57701706  0.56315934  1
  Se  Se137  1  0.24912792  0.91821197  0.04729286  1
  Se  Se138  1  0.25589743  0.91772171  0.56137060  1
  Se  Se139  1  0.59644745  0.26675744  0.04082842  1
  Se  Se140  1  0.59038518  0.26376735  0.56512805  1
  Se  Se141  1  0.58465083  0.59788954  0.03982468  1
  Se  Se142  1  0.58171446  0.59312229  0.56178143  1
  Se  Se143  1  0.57904468  0.91386463  0.05240623  1
  Se  Se144  1  0.59571484  0.92820258  0.55417299  1
  Se  Se145  1  0.92934782  0.25714459  0.06134827  1
  Se  Se146  1  0.93245046  0.26588307  0.56047028  1
  Se  Se147  1  0.92190857  0.58278762  0.05399590  1
  Se  Se148  1  0.92580175  0.59150904  0.56292996  1
  Se  Se149  1  0.91483991  0.91494278  0.05178558  1
  Se  Se150  1  0.92453942  0.92242211  0.56797828  1
  Se  Se151  1  0.08679537  0.24929147  0.44078411  1
  Se  Se152  1  0.08659919  0.24852549  0.95197898  1
  Se  Se153  1  0.09038620  0.58084345  0.43960489  1
  Se  Se154  1  0.08808394  0.58249317  0.94821526  1
  Se  Se155  1  0.07467741  0.92456121  0.44267225  1
  Se  Se156  1  0.08685357  0.91449269  0.94627480  1
  Se  Se157  1  0.41306591  0.25461088  0.44077930  1
  Se  Se158  1  0.41523363  0.24645835  0.94704617  1
  Se  Se159  1  0.40960863  0.58769828  0.43569623  1
  Se  Se160  1  0.40851865  0.57965226  0.95090865  1
  Se  Se161  1  0.41072801  0.91847485  0.43811072  1
  Se  Se162  1  0.41934762  0.91252685  0.94827430  1
  Se  Se163  1  0.73843301  0.26188603  0.44338564  1
  Se  Se164  1  0.75665997  0.24646813  0.93901523  1
  Se  Se165  1  0.74212815  0.58485899  0.44305035  1
  Se  Se166  1  0.74822418  0.58360387  0.95253006  1
  Se  Se167  1  0.74594686  0.92491365  0.42850853  1
  Se  Se168  1  0.75378073  0.91397798  0.95500115  1
  Se  Se169  1  0.24624097  0.08086742  0.44561228  1
  Se  Se170  1  0.25061797  0.08307051  0.94384586  1
  Se  Se171  1  0.25221757  0.41847040  0.44046006  1
  Se  Se172  1  0.24671808  0.41852343  0.95179101  1
  Se  Se173  1  0.26121639  0.74123483  0.43459965  1
  Se  Se174  1  0.24330713  0.75399949  0.94775108  1
  Se  Se175  1  0.58140980  0.08532503  0.43551053  1
  Se  Se176  1  0.57847571  0.08363713  0.95408469  1
  Se  Se177  1  0.59409273  0.40711797  0.44737805  1
  Se  Se178  1  0.58656348  0.39869368  0.95340079  1
  Se  Se179  1  0.58193374  0.74732677  0.44160211  1
  Se  Se180  1  0.58248416  0.73543087  0.96068164  1
  Se  Se181  1  0.92263000  0.07817058  0.44117495  1
  Se  Se182  1  0.92416447  0.07767099  0.94075670  1
  Se  Se183  1  0.92302127  0.41284689  0.43264333  1
  Se  Se184  1  0.92025252  0.42524124  0.95300017  1
  Se  Se185  1  0.92688764  0.74065788  0.43994108  1
  Se  Se186  1  0.91960405  0.75094269  0.94750054  1
  Se  Se187  1  0.25550305  0.25434323  0.30262854  1
  Se  Se188  1  0.25117849  0.24821885  0.80498524  1
  Se  Se189  1  0.25260193  0.58200023  0.29681105  1
  Se  Se190  1  0.25096116  0.58313055  0.80877147  1
  Se  Se191  1  0.24789192  0.91943361  0.29278913  1
  Se  Se192  1  0.25377931  0.91774580  0.80732030  1
  Se  Se193  1  0.57165521  0.24456058  0.30870676  1
  Se  Se194  1  0.58040504  0.25158665  0.80685073  1
  Se  Se195  1  0.58637126  0.58442221  0.29278142  1
  Se  Se196  1  0.56804717  0.57146013  0.82258291  1
  Se  Se197  1  0.58024841  0.92013547  0.29148768  1
  Se  Se198  1  0.58602540  0.90431033  0.82252608  1
  Se  Se199  1  0.90593130  0.23666452  0.29594263  1
  Se  Se200  1  0.91094674  0.25062967  0.81940348  1
  Se  Se201  1  0.92003480  0.58624864  0.29374751  1
  Se  Se202  1  0.91553781  0.59186458  0.80575427  1
  Se  Se203  1  0.90918974  0.90725741  0.30765150  1
  Se  Se204  1  0.92378882  0.92241325  0.80700053  1
  Se  Se205  1  0.09052901  0.08855186  0.30640394  1
  Se  Se206  1  0.08493876  0.08144759  0.80373463  1
  Se  Se207  1  0.08522849  0.41356942  0.29874640  1
  Se  Se208  1  0.08673541  0.41857032  0.82111119  1
  Se  Se209  1  0.08531598  0.74722854  0.29527101  1
  Se  Se210  1  0.08218718  0.74770230  0.80702002  1
  Se  Se211  1  0.41026635  0.08464634  0.30035624  1
  Se  Se212  1  0.41539844  0.07772147  0.80542040  1
  Se  Se213  1  0.42339673  0.41892146  0.29523336  1
  Se  Se214  1  0.39832859  0.39998452  0.80972076  1
  Se  Se215  1  0.41943899  0.75049429  0.29792124  1
  Se  Se216  1  0.41256117  0.74574544  0.81071788  1
  Se  Se217  1  0.73712940  0.08071270  0.29019650  1
  Se  Se218  1  0.75060824  0.08898148  0.81813011  1
  Se  Se219  1  0.75466552  0.42573684  0.30680544  1
  Se  Se220  1  0.74525921  0.42459367  0.81013841  1
  Se  Se221  1  0.75354365  0.74972792  0.30906179  1
  Se  Se222  1  0.75771566  0.75948436  0.81418884  1
  Se  Se223  1  0.25247608  0.08712536  0.19373929  1
  Se  Se224  1  0.25414374  0.08130338  0.69610925  1
  Se  Se225  1  0.25441472  0.41357639  0.19505630  1
  Se  Se226  1  0.23789081  0.40882533  0.70169804  1
  Se  Se227  1  0.25412787  0.74780914  0.19115674  1
  Se  Se228  1  0.24827858  0.74787323  0.70300203  1
  Se  Se229  1  0.57776272  0.08758691  0.18984301  1
  Se  Se230  1  0.57578218  0.09168885  0.69295156  1
  Se  Se231  1  0.58388856  0.42631374  0.17737960  1
  Se  Se232  1  0.59320547  0.41096705  0.70739922  1
  Se  Se233  1  0.56995464  0.75679146  0.17772388  1
  Se  Se234  1  0.57556071  0.74734015  0.69973950  1
  Se  Se235  1  0.91126933  0.08510325  0.18555285  1
  Se  Se236  1  0.91804023  0.08771217  0.70797606  1
  Se  Se237  1  0.92070916  0.41417937  0.19397599  1
  Se  Se238  1  0.90690407  0.42831820  0.69601025  1
  Se  Se239  1  0.90893330  0.75388479  0.19621099  1
  Se  Se240  1  0.92279502  0.74623470  0.70185624  1
  Se  Se241  1  0.08434975  0.25285383  0.19544690  1
  Se  Se242  1  0.09088932  0.24776763  0.69220986  1
  Se  Se243  1  0.08340831  0.58468573  0.19519027  1
  Se  Se244  1  0.08015299  0.58053748  0.70547332  1
  Se  Se245  1  0.08970324  0.91274967  0.17946657  1
  Se  Se246  1  0.08587471  0.91957536  0.70374763  1
  Se  Se247  1  0.41965471  0.25715043  0.18891414  1
  Se  Se248  1  0.41488550  0.24825367  0.69693879  1
  Se  Se249  1  0.41225591  0.58674651  0.19095541  1
  Se  Se250  1  0.43140852  0.56039855  0.70567325  1
  Se  Se251  1  0.40935000  0.92163853  0.18934395  1
  Se  Se252  1  0.41828012  0.91411097  0.70590615  1
  Se  Se253  1  0.75155013  0.24430232  0.18613904  1
  Se  Se254  1  0.75014804  0.25492850  0.70849370  1
  Se  Se255  1  0.75238271  0.56674307  0.17687690  1
  Se  Se256  1  0.75045061  0.58508849  0.69084430  1
  Se  Se257  1  0.74560630  0.90163143  0.19893976  1
  Se  Se258  1  0.75869457  0.91194192  0.69367130  1
