# generated using pymatgen
data_In86Cu29Se144
_symmetry_space_group_name_H-M   'P 1'
_cell_length_a   17.57327944
_cell_length_b   17.57452054
_cell_length_c   23.42561845
_cell_angle_alpha   89.99718081
_cell_angle_beta   89.99263911
_cell_angle_gamma   90.00269264
_symmetry_Int_Tables_number   1
_chemical_formula_structural   In86Cu29Se144
_chemical_formula_sum   'In86 Cu29 Se144'
_cell_volume   7234.81385119
_cell_formula_units_Z   1
loop_
 _symmetry_equiv_pos_site_id
 _symmetry_equiv_pos_as_xyz
  1  'x, y, z'
loop_
 _atom_site_type_symbol
 _atom_site_label
 _atom_site_symmetry_multiplicity
 _atom_site_fract_x
 _atom_site_fract_y
 _atom_site_fract_z
 _atom_site_occupancy
  In  In0  1  -0.01566268  0.16847727  0.11789252  1
  In  In1  1  -0.01399351  0.16469054  0.63030932  1
  In  In2  1  -0.00701314  0.50915093  0.12343411  1
  In  In3  1  0.01192115  0.51048142  0.61919545  1
  In  In4  1  0.00316432  0.82142158  0.13226236  1
  In  In5  1  0.00018915  0.82498671  0.63604946  1
  In  In6  1  0.33902870  0.16237251  0.12685405  1
  In  In7  1  0.34163733  0.17987437  0.63512496  1
  In  In8  1  0.33042272  0.48734285  0.12631464  1
  In  In9  1  0.32908760  0.50652968  0.62980897  1
  In  In10  1  0.33921824  0.84813239  0.12182806  1
  In  In11  1  0.31623099  0.82780115  0.61891621  1
  In  In12  1  0.66364744  0.16783607  0.11353177  1
  In  In13  1  0.65301556  0.17270646  0.64596122  1
  In  In14  1  0.67125210  0.50845406  0.11627754  1
  In  In15  1  0.66305863  0.49574411  0.62615111  1
  In  In16  1  0.66701618  0.83105449  0.14107732  1
  In  In17  1  0.67167473  0.83087572  0.63852747  1
  In  In18  1  0.15545350  -0.01391440  0.36610534  1
  In  In19  1  0.15059422  0.00154381  0.87384094  1
  In  In20  1  0.18360386  0.33580732  0.37763613  1
  In  In21  1  0.18111467  0.32334199  0.86657441  1
  In  In22  1  0.16358333  0.67892498  0.38467737  1
  In  In23  1  0.17153617  0.67434745  0.87121788  1
  In  In24  1  0.50190203  -0.00298630  0.36028068  1
  In  In25  1  0.51487417  0.00248027  0.87678933  1
  In  In26  1  0.49948995  0.34558056  0.37687042  1
  In  In27  1  0.50210608  0.33410790  0.86827827  1
  In  In28  1  0.49769594  0.65858656  0.37586155  1
  In  In29  1  0.49676980  0.65268515  0.86182177  1
  In  In30  1  0.82538185  -0.01591064  0.35590878  1
  In  In31  1  0.84582214  -0.00001042  0.87229647  1
  In  In32  1  0.83964154  0.33991747  0.37652015  1
  In  In33  1  0.82532508  0.34879605  0.88969474  1
  In  In34  1  0.82404965  0.65961134  0.36799696  1
  In  In35  1  0.82257379  0.65909138  0.86277593  1
  In  In36  1  0.00655206  0.15426103  0.37259828  1
  In  In37  1  0.00459593  0.15613064  0.87886813  1
  In  In38  1  -0.00601088  0.51292228  0.38190427  1
  In  In39  1  -0.01789761  0.49818340  0.87663923  1
  In  In40  1  0.00225520  0.83376319  0.36615616  1
  In  In41  1  0.00168474  0.84080071  0.87046281  1
  In  In42  1  0.33929366  0.17005814  0.36609424  1
  In  In43  1  0.33587424  0.18301884  0.86656096  1
  In  In44  1  0.34449300  0.49750894  0.38202503  1
  In  In45  1  0.34748779  0.50089603  0.86147035  1
  In  In46  1  0.32536697  0.82975344  0.37470561  1
  In  In47  1  0.33538318  0.81726836  0.87813989  1
  In  In48  1  0.67391787  0.15668342  0.37515392  1
  In  In49  1  0.66335115  0.17091354  0.87842788  1
  In  In50  1  0.65869118  0.50833246  0.38404192  1
  In  In51  1  0.66551955  0.49792531  0.86757577  1
  In  In52  1  0.66283979  0.82872140  0.35773888  1
  In  In53  1  0.67771365  0.82669584  0.86001971  1
  In  In54  1  0.17497656  -0.00907131  0.12660600  1
  In  In55  1  0.16692762  -0.01512982  0.62060216  1
  In  In56  1  0.17491231  0.34339430  0.12750067  1
  In  In57  1  0.15705339  0.34812738  0.62650794  1
  In  In58  1  0.14900582  0.66544405  0.12748345  1
  In  In59  1  0.16560999  0.66822477  0.62715265  1
  In  In60  1  0.49341557  0.00601255  0.12988223  1
  In  In61  1  0.50582524  0.00837551  0.62938799  1
  In  In62  1  0.49261036  0.32951910  0.11609380  1
  In  In63  1  0.46916003  0.36970309  0.67331846  1
  In  In64  1  0.51555423  0.66820034  0.12275906  1
  In  In65  1  0.51599322  0.64133861  0.64387252  1
  In  In66  1  0.82431967  0.00277386  0.13043347  1
  In  In67  1  0.83000397  -0.00293587  0.63903968  1
  In  In68  1  0.83635642  0.33180780  0.10302038  1
  In  In69  1  0.81757553  0.33895519  0.62994560  1
  In  In70  1  0.83311044  0.66693446  0.13109861  1
  In  In71  1  0.84687083  0.66288737  0.63512936  1
  In  In72  1  0.83285036  0.83230237  0.49870744  1
  In  In73  1  0.00162430  0.32947897  0.75519376  1
  In  In74  1  0.33053126  -0.00097422  0.74602922  1
  In  In75  1  0.83481040  0.83144718  0.00319437  1
  In  In76  1  0.66009692  0.32725546  0.24557194  1
  In  In77  1  0.15987000  0.49902149  0.00356768  1
  In  In78  1  0.49398448  0.82474271  0.50138133  1
  In  In79  1  0.33650105  0.66913233  0.25735749  1
  In  In80  1  0.00311077  0.33164484  0.24503854  1
  In  In81  1  0.50291234  0.17253666  0.51115796  1
  In  In82  1  0.16362050  0.16931355  0.49922617  1
  In  In83  1  0.16854085  0.16843265  -0.00899883  1
  In  In84  1  0.50596576  0.83201367  0.00018275  1
  In  In85  1  0.83004124  0.16686643  0.50195240  1
  Cu  Cu86  1  0.66093564  0.34282042  0.50628264  1
  Cu  Cu87  1  0.66853835  0.00145271  0.50448756  1
  Cu  Cu88  1  0.16483497  0.50762812  0.74731507  1
  Cu  Cu89  1  0.16635893  0.50110961  0.25117217  1
  Cu  Cu90  1  0.82596152  0.50134207  0.24850438  1
  Cu  Cu91  1  0.00276276  -0.00270314  -0.00196200  1
  Cu  Cu92  1  0.32592153  0.00193286  0.49539251  1
  Cu  Cu93  1  0.49388505  0.82727976  0.75117957  1
  Cu  Cu94  1  -0.00185720  -0.00706317  0.49343811  1
  Cu  Cu95  1  0.67118512  0.00207597  0.00116308  1
  Cu  Cu96  1  0.34070618  0.33875970  -0.00541941  1
  Cu  Cu97  1  0.83556448  0.16185705  0.75955333  1
  Cu  Cu98  1  -0.00604755  0.66871261  0.00308960  1
  Cu  Cu99  1  0.66951041  0.66024456  0.50316204  1
  Cu  Cu100  1  0.17058455  0.83118784  0.25024139  1
  Cu  Cu101  1  0.33552438  0.00500590  0.00375233  1
  Cu  Cu102  1  0.00367774  0.67044355  0.50469563  1
  Cu  Cu103  1  0.65866402  0.33802397  -0.00738759  1
  Cu  Cu104  1  0.33902189  0.34482567  0.50895918  1
  Cu  Cu105  1  0.17218725  0.15935783  0.24865270  1
  Cu  Cu106  1  0.49802986  0.16699969  0.24078173  1
  Cu  Cu107  1  0.83300282  0.49896397  0.74947540  1
  Cu  Cu108  1  -0.00202779  0.34618627  0.49971381  1
  Cu  Cu109  1  0.49903655  0.49903992  0.25360518  1
  Cu  Cu110  1  0.66653372  0.66116319  -0.00726723  1
  Cu  Cu111  1  0.33466661  0.65899006  0.50523253  1
  Cu  Cu112  1  0.33211340  0.66134885  -0.00782900  1
  Cu  Cu113  1  0.83125217  0.16179227  0.24415625  1
  Cu  Cu114  1  0.16480988  0.83101012  0.74958050  1
  Se  Se115  1  0.08488325  0.07953151  0.05780142  1
  Se  Se116  1  0.06988297  0.07894113  0.55650885  1
  Se  Se117  1  0.07094839  0.40561199  0.06177012  1
  Se  Se118  1  0.08882393  0.42482840  0.54803808  1
  Se  Se119  1  0.08131066  0.75087550  0.05281394  1
  Se  Se120  1  0.08228859  0.75561740  0.55974083  1
  Se  Se121  1  0.42164542  0.08720887  0.05334593  1
  Se  Se122  1  0.40369527  0.07630073  0.55976120  1
  Se  Se123  1  0.41760637  0.42501497  0.05051553  1
  Se  Se124  1  0.42174237  0.41552680  0.57233582  1
  Se  Se125  1  0.41043533  0.74105096  0.05692392  1
  Se  Se126  1  0.41659437  0.73476670  0.56859360  1
  Se  Se127  1  0.75703133  0.08439519  0.05301892  1
  Se  Se128  1  0.74115415  0.08372115  0.56654553  1
  Se  Se129  1  0.74461224  0.41908373  0.04694693  1
  Se  Se130  1  0.75356602  0.42257376  0.55304507  1
  Se  Se131  1  0.73654399  0.74472756  0.05855090  1
  Se  Se132  1  0.74549046  0.74431626  0.56228335  1
  Se  Se133  1  0.25751338  0.25895855  0.05444460  1
  Se  Se134  1  0.25558456  0.25802959  0.56109493  1
  Se  Se135  1  0.25342804  0.59012456  0.06150377  1
  Se  Se136  1  0.24453387  0.58171058  0.55734807  1
  Se  Se137  1  0.25096413  0.91593961  0.04876590  1
  Se  Se138  1  0.24542015  0.91260688  0.54450016  1
  Se  Se139  1  0.57934749  0.25205921  0.04828003  1
  Se  Se140  1  0.58879827  0.26235169  0.56967707  1
  Se  Se141  1  0.57940631  0.58188837  0.04690844  1
  Se  Se142  1  0.58190401  0.58124683  0.55596761  1
  Se  Se143  1  0.59410393  0.92004671  0.06280925  1
  Se  Se144  1  0.58696740  0.91620688  0.55979804  1
  Se  Se145  1  0.91974194  0.24636274  0.03986481  1
  Se  Se146  1  0.92068566  0.26254441  0.55852504  1
  Se  Se147  1  0.90760166  0.58685239  0.05424343  1
  Se  Se148  1  0.91701142  0.58762648  0.55540999  1
  Se  Se149  1  0.92478309  0.92096621  0.06291255  1
  Se  Se150  1  0.91780952  0.92332356  0.56157451  1
  Se  Se151  1  0.07209765  0.26078086  0.43832301  1
  Se  Se152  1  0.07953944  0.26503677  0.93784989  1
  Se  Se153  1  0.08611343  0.58625640  0.44934829  1
  Se  Se154  1  0.07573526  0.59039225  0.94053760  1
  Se  Se155  1  0.08259411  0.90908193  0.44329694  1
  Se  Se156  1  0.08463432  0.91167766  0.94676400  1
  Se  Se157  1  0.40976992  0.25725444  0.44621486  1
  Se  Se158  1  0.41938886  0.25164318  0.94128891  1
  Se  Se159  1  0.42360271  0.58185877  0.45208640  1
  Se  Se160  1  0.41744640  0.58112783  0.93969820  1
  Se  Se161  1  0.41496004  0.92578045  0.43981521  1
  Se  Se162  1  0.41260064  0.92182209  0.94086855  1
  Se  Se163  1  0.73770557  0.26139290  0.44319537  1
  Se  Se164  1  0.74792488  0.25047390  0.94933998  1
  Se  Se165  1  0.75555019  0.58198024  0.44773501  1
  Se  Se166  1  0.75077818  0.58006067  0.93905203  1
  Se  Se167  1  0.73993794  0.92058901  0.43912870  1
  Se  Se168  1  0.74405289  0.91713668  0.93994010  1
  Se  Se169  1  0.24987409  0.08249979  0.43389491  1
  Se  Se170  1  0.26027096  0.07715088  0.93406049  1
  Se  Se171  1  0.25404076  0.42099887  0.45080728  1
  Se  Se172  1  0.25410570  0.41777769  0.93835931  1
  Se  Se173  1  0.25830862  0.74970535  0.45236794  1
  Se  Se174  1  0.24522152  0.74988395  0.95016477  1
  Se  Se175  1  0.58298752  0.07700851  0.44453661  1
  Se  Se176  1  0.58437585  0.08533709  0.95135833  1
  Se  Se177  1  0.57617227  0.42209751  0.45076411  1
  Se  Se178  1  0.57788520  0.42261773  0.93888772  1
  Se  Se179  1  0.59494874  0.74478461  0.44115257  1
  Se  Se180  1  0.58961190  0.74540877  0.93307041  1
  Se  Se181  1  0.91197928  0.07233704  0.43743012  1
  Se  Se182  1  0.91704827  0.08098815  0.94897614  1
  Se  Se183  1  0.91037999  0.42566972  0.44773968  1
  Se  Se184  1  0.91923987  0.42087613  0.95576719  1
  Se  Se185  1  0.92231108  0.74289985  0.43885835  1
  Se  Se186  1  0.91634117  0.74292295  0.93617625  1
  Se  Se187  1  0.24799908  0.24962301  0.30191285  1
  Se  Se188  1  0.25063517  0.24580813  0.79079967  1
  Se  Se189  1  0.24475693  0.57837847  0.31548271  1
  Se  Se190  1  0.25020810  0.58455076  0.80494636  1
  Se  Se191  1  0.25467875  0.91574629  0.30198263  1
  Se  Se192  1  0.24615070  0.90912597  0.81165659  1
  Se  Se193  1  0.57318073  0.23939130  0.31229284  1
  Se  Se194  1  0.59360082  0.25525099  0.80428935  1
  Se  Se195  1  0.58384651  0.58187398  0.30546907  1
  Se  Se196  1  0.59684992  0.59013734  0.79730439  1
  Se  Se197  1  0.59804335  0.93061415  0.29627571  1
  Se  Se198  1  0.57677316  0.90793222  0.80611799  1
  Se  Se199  1  0.90996747  0.24071791  0.30727455  1
  Se  Se200  1  0.90959904  0.24876949  0.81946176  1
  Se  Se201  1  0.91490068  0.57815486  0.30242010  1
  Se  Se202  1  0.91970643  0.58257677  0.79920772  1
  Se  Se203  1  0.93580332  0.92933207  0.29933153  1
  Se  Se204  1  0.91448690  0.91319480  0.80022767  1
  Se  Se205  1  0.08260692  0.07893386  0.29791045  1
  Se  Se206  1  0.08751211  0.09212689  0.80261434  1
  Se  Se207  1  0.08603165  0.41912698  0.31266176  1
  Se  Se208  1  0.09054943  0.42645219  0.81281740  1
  Se  Se209  1  0.08889479  0.74490723  0.30313377  1
  Se  Se210  1  0.08008104  0.74897161  0.80390472  1
  Se  Se211  1  0.41609059  0.08381985  0.29767374  1
  Se  Se212  1  0.42141212  0.08234054  0.80911287  1
  Se  Se213  1  0.41329497  0.41549135  0.30397006  1
  Se  Se214  1  0.41475926  0.40552847  0.79322943  1
  Se  Se215  1  0.43072498  0.76245748  0.31031940  1
  Se  Se216  1  0.40930417  0.74330213  0.80146887  1
  Se  Se217  1  0.74491369  0.08207364  0.29748037  1
  Se  Se218  1  0.74984486  0.08217892  0.81388401  1
  Se  Se219  1  0.74804018  0.41817114  0.30841912  1
  Se  Se220  1  0.75590184  0.41184306  0.80436241  1
  Se  Se221  1  0.76543703  0.75902976  0.30062127  1
  Se  Se222  1  0.76898996  0.75854565  0.79053474  1
  Se  Se223  1  0.25597190  0.07805831  0.19347447  1
  Se  Se224  1  0.24094998  0.08756918  0.68454111  1
  Se  Se225  1  0.25243634  0.41543995  0.20408961  1
  Se  Se226  1  0.24442835  0.41818154  0.69722075  1
  Se  Se227  1  0.24917780  0.75091755  0.18778572  1
  Se  Se228  1  0.25057264  0.74858305  0.69787465  1
  Se  Se229  1  0.58824408  0.08983693  0.18940594  1
  Se  Se230  1  0.58809139  0.06859879  0.70692574  1
  Se  Se231  1  0.57625962  0.42312598  0.18719925  1
  Se  Se232  1  0.60698475  0.40293965  0.70146395  1
  Se  Se233  1  0.57803689  0.74613557  0.20136646  1
  Se  Se234  1  0.58487481  0.74637211  0.70241249  1
  Se  Se235  1  0.92034889  0.08279363  0.19302996  1
  Se  Se236  1  0.91811336  0.08007865  0.70405807  1
  Se  Se237  1  0.90301941  0.41614273  0.18889732  1
  Se  Se238  1  0.91973243  0.42134698  0.68932969  1
  Se  Se239  1  0.91740706  0.74396341  0.19920637  1
  Se  Se240  1  0.89087515  0.77453254  0.70027155  1
  Se  Se241  1  0.09304120  0.23870084  0.18533833  1
  Se  Se242  1  0.08808716  0.24244067  0.68967800  1
  Se  Se243  1  0.07769722  0.57798229  0.19897231  1
  Se  Se244  1  0.07761313  0.59047671  0.69791195  1
  Se  Se245  1  0.08766004  0.91245670  0.19428925  1
  Se  Se246  1  0.08437875  0.91810387  0.69672569  1
  Se  Se247  1  0.41475195  0.25591467  0.19315348  1
  Se  Se248  1  0.45199075  0.22527107  0.69576093  1
  Se  Se249  1  0.41919474  0.57881484  0.19101619  1
  Se  Se250  1  0.41470654  0.57526520  0.70496005  1
  Se  Se251  1  0.42432593  0.91066557  0.19594976  1
  Se  Se252  1  0.41897861  0.90537663  0.68511448  1
  Se  Se253  1  0.76026495  0.25004847  0.18452186  1
  Se  Se254  1  0.75806688  0.24547821  0.70186263  1
  Se  Se255  1  0.74193930  0.58372988  0.19521481  1
  Se  Se256  1  0.75147643  0.58049713  0.69275185  1
  Se  Se257  1  0.76200320  0.90831224  0.20006483  1
  Se  Se258  1  0.72372314  0.93978728  0.70020056  1
