# generated using pymatgen
data_In86Cu29Se144
_symmetry_space_group_name_H-M   'P 1'
_cell_length_a   17.57936903
_cell_length_b   17.57744851
_cell_length_c   23.44281229
_cell_angle_alpha   89.96849291
_cell_angle_beta   89.99156515
_cell_angle_gamma   90.01966857
_symmetry_Int_Tables_number   1
_chemical_formula_structural   In86Cu29Se144
_chemical_formula_sum   'In86 Cu29 Se144'
_cell_volume   7243.83804084
_cell_formula_units_Z   1
loop_
 _symmetry_equiv_pos_site_id
 _symmetry_equiv_pos_as_xyz
  1  'x, y, z'
loop_
 _atom_site_type_symbol
 _atom_site_label
 _atom_site_symmetry_multiplicity
 _atom_site_fract_x
 _atom_site_fract_y
 _atom_site_fract_z
 _atom_site_occupancy
  In  In0  1  -0.02814966  0.18588159  0.14075087  1
  In  In1  1  -0.00436869  0.16537402  0.62675892  1
  In  In2  1  0.00336871  0.49798522  0.13519500  1
  In  In3  1  0.00661378  0.49384601  0.62877770  1
  In  In4  1  -0.00962560  0.84729251  0.13554437  1
  In  In5  1  -0.01171956  0.84306979  0.63213015  1
  In  In6  1  0.35908275  0.16060828  0.11878873  1
  In  In7  1  0.34673746  0.15606175  0.63631729  1
  In  In8  1  0.34607692  0.50583234  0.12495716  1
  In  In9  1  0.33883509  0.49132090  0.62781448  1
  In  In10  1  0.32891208  0.83207217  0.12667929  1
  In  In11  1  0.34449125  0.82663449  0.63562940  1
  In  In12  1  0.66811407  0.16450684  0.13361739  1
  In  In13  1  0.65784611  0.15192996  0.61833361  1
  In  In14  1  0.67051572  0.49720165  0.13768203  1
  In  In15  1  0.66330045  0.51133955  0.61697594  1
  In  In16  1  0.67553786  0.82601585  0.13096244  1
  In  In17  1  0.67983989  0.84423607  0.61732279  1
  In  In18  1  0.15145480  0.01236736  0.37723432  1
  In  In19  1  0.16380005  -0.00093900  0.86577175  1
  In  In20  1  0.15205864  0.33537436  0.37379040  1
  In  In21  1  0.16423752  0.32943346  0.86810223  1
  In  In22  1  0.15950507  0.65070447  0.36217470  1
  In  In23  1  0.17075885  0.67053451  0.86862568  1
  In  In24  1  0.51083564  -0.01044991  0.38604235  1
  In  In25  1  0.50892935  0.00173348  0.86484840  1
  In  In26  1  0.51428675  0.32026977  0.38593491  1
  In  In27  1  0.49200423  0.33254556  0.87393696  1
  In  In28  1  0.49846468  0.67132872  0.37398998  1
  In  In29  1  0.49942577  0.68366196  0.86674217  1
  In  In30  1  0.82915238  -0.00031008  0.37489842  1
  In  In31  1  0.83498243  0.00127875  0.87668242  1
  In  In32  1  0.81537019  0.31192489  0.35134842  1
  In  In33  1  0.83466554  0.31418376  0.88242002  1
  In  In34  1  0.84131388  0.67637662  0.37033885  1
  In  In35  1  0.84570987  0.66761516  0.87908542  1
  In  In36  1  -0.05018419  0.14028059  0.33202103  1
  In  In37  1  -0.00616070  0.16311714  0.87269777  1
  In  In38  1  -0.00473734  0.48693519  0.36219686  1
  In  In39  1  0.00541746  0.50595175  0.87027446  1
  In  In40  1  -0.00670055  0.83158608  0.37652431  1
  In  In41  1  -0.00303466  0.83198950  0.87257568  1
  In  In42  1  0.33951782  0.17210902  0.38046872  1
  In  In43  1  0.33436762  0.16650782  0.86776996  1
  In  In44  1  0.33087382  0.51284975  0.37460312  1
  In  In45  1  0.33522399  0.49984137  0.86676407  1
  In  In46  1  0.34711211  0.83567514  0.37927717  1
  In  In47  1  0.35087236  0.84089414  0.85088399  1
  In  In48  1  0.67387667  0.16080228  0.37272672  1
  In  In49  1  0.68355511  0.15483915  0.88713026  1
  In  In50  1  0.65648251  0.49250445  0.37108242  1
  In  In51  1  0.66084660  0.48976007  0.88098915  1
  In  In52  1  0.66679749  0.83592613  0.37485535  1
  In  In53  1  0.66915416  0.85803508  0.87108700  1
  In  In54  1  0.16358330  -0.00700602  0.12411382  1
  In  In55  1  0.16463094  0.00271931  0.63338080  1
  In  In56  1  0.15507268  0.32653530  0.12088358  1
  In  In57  1  0.16410033  0.33568580  0.62888325  1
  In  In58  1  0.16670200  0.66552206  0.13894895  1
  In  In59  1  0.16539874  0.66724734  0.62828735  1
  In  In60  1  0.50745167  0.02922594  0.11825360  1
  In  In61  1  0.50273183  -0.00333421  0.62639870  1
  In  In62  1  0.51237340  0.32502273  0.13098509  1
  In  In63  1  0.49824302  0.32513608  0.61850274  1
  In  In64  1  0.50229216  0.66770220  0.13555730  1
  In  In65  1  0.49382981  0.66324865  0.61577924  1
  In  In66  1  0.83265380  0.00108117  0.12882900  1
  In  In67  1  0.83232349  -0.00199910  0.62618387  1
  In  In68  1  0.82665395  0.31939311  0.12957633  1
  In  In69  1  0.84807171  0.32505272  0.62739817  1
  In  In70  1  0.83073519  0.67476321  0.13229085  1
  In  In71  1  0.83083760  0.68292299  0.62423664  1
  In  In72  1  0.50825677  0.84032904  -0.01196870  1
  In  In73  1  0.16481073  0.16987684  0.50734782  1
  In  In74  1  0.16581892  0.50100560  0.01092662  1
  In  In75  1  0.16685613  0.83505598  0.49453237  1
  In  In76  1  0.15682979  0.16331093  -0.00485900  1
  In  In77  1  0.32288148  0.34607446  0.25379528  1
  In  In78  1  0.16732705  0.83671245  0.00011686  1
  In  In79  1  0.50247713  0.49264723  -0.00184761  1
  In  In80  1  0.66934310  0.33097856  0.75432622  1
  In  In81  1  0.83514228  0.48970014  0.01414680  1
  In  In82  1  0.82879784  0.49975425  0.49276598  1
  In  In83  1  0.16765114  0.49754641  0.49254878  1
  In  In84  1  0.33473323  -0.00626521  0.24681971  1
  In  In85  1  0.66698417  0.67260709  0.74247451  1
  Cu  Cu86  1  -0.00841205  0.67016195  0.50036329  1
  Cu  Cu87  1  -0.00003401  0.67804225  0.00227493  1
  Cu  Cu88  1  0.50593843  0.16395269  0.25626233  1
  Cu  Cu89  1  0.83526150  0.83844313  0.74982683  1
  Cu  Cu90  1  0.16815797  0.50310363  0.74879498  1
  Cu  Cu91  1  0.67386016  0.33013086  0.49388629  1
  Cu  Cu92  1  0.82757046  0.50701320  0.24886282  1
  Cu  Cu93  1  0.83039418  0.83415596  0.25283592  1
  Cu  Cu94  1  0.67165052  0.00419377  0.49945203  1
  Cu  Cu95  1  -0.01064005  0.00773899  0.00524523  1
  Cu  Cu96  1  0.67527645  0.66514123  0.00660531  1
  Cu  Cu97  1  0.33013815  0.32506513  -0.00661097  1
  Cu  Cu98  1  0.34500549  0.33165705  0.50325185  1
  Cu  Cu99  1  0.49654337  0.50370301  0.25502253  1
  Cu  Cu100  1  0.65816969  0.67448205  0.49556713  1
  Cu  Cu101  1  0.49981918  0.50234998  0.74608364  1
  Cu  Cu102  1  0.16334132  0.17381993  0.74970418  1
  Cu  Cu103  1  0.33837229  0.67808317  -0.00537434  1
  Cu  Cu104  1  0.84502795  0.49859751  0.75158944  1
  Cu  Cu105  1  0.33634436  0.66968225  0.49720495  1
  Cu  Cu106  1  0.16189799  0.16282182  0.24493047  1
  Cu  Cu107  1  0.50375416  0.16578202  0.74655697  1
  Cu  Cu108  1  0.50464051  0.83753914  0.25486516  1
  Cu  Cu109  1  0.16181178  0.83108963  0.74810069  1
  Cu  Cu110  1  0.16865466  0.82988334  0.25470091  1
  Cu  Cu111  1  -0.01024230  0.31983491  0.49323677  1
  Cu  Cu112  1  0.33879647  0.00163122  0.51079350  1
  Cu  Cu113  1  0.83202318  0.15893490  0.75241078  1
  Cu  Cu114  1  0.67279932  0.00186723  0.00307297  1
  Se  Se115  1  0.07209912  0.08373242  0.06604756  1
  Se  Se116  1  0.07497123  0.07135725  0.55800896  1
  Se  Se117  1  0.06449075  0.40820998  0.05396697  1
  Se  Se118  1  0.07324668  0.40358800  0.54940472  1
  Se  Se119  1  0.08219677  0.75029043  0.06616494  1
  Se  Se120  1  0.07708605  0.74736793  0.55806493  1
  Se  Se121  1  0.41102852  0.07104894  0.04197761  1
  Se  Se122  1  0.42441262  0.08846171  0.55741264  1
  Se  Se123  1  0.41006072  0.40218112  0.05823322  1
  Se  Se124  1  0.42364172  0.42165341  0.55371844  1
  Se  Se125  1  0.42251704  0.75029134  0.05663995  1
  Se  Se126  1  0.41299680  0.75590883  0.55234476  1
  Se  Se127  1  0.75084611  0.08568629  0.06033205  1
  Se  Se128  1  0.75678482  0.08527736  0.55346837  1
  Se  Se129  1  0.73135169  0.40446295  0.06238842  1
  Se  Se130  1  0.74860082  0.40777712  0.56130592  1
  Se  Se131  1  0.75640236  0.75286602  0.05529037  1
  Se  Se132  1  0.74919740  0.74974605  0.54815087  1
  Se  Se133  1  0.25490104  0.24803573  0.05872267  1
  Se  Se134  1  0.26205266  0.25579908  0.56468143  1
  Se  Se135  1  0.26181477  0.60003640  0.05820831  1
  Se  Se136  1  0.25408051  0.58769892  0.55560294  1
  Se  Se137  1  0.26366014  0.92793822  0.05417923  1
  Se  Se138  1  0.25224310  0.91933345  0.56273883  1
  Se  Se139  1  0.56151273  0.21995458  0.06601011  1
  Se  Se140  1  0.59029527  0.25094519  0.55264292  1
  Se  Se141  1  0.58847583  0.58655743  0.06086501  1
  Se  Se142  1  0.57919629  0.58436175  0.54579832  1
  Se  Se143  1  0.59008830  0.92012131  0.06144235  1
  Se  Se144  1  0.58645259  0.92120004  0.55287305  1
  Se  Se145  1  0.91095975  0.25106371  0.05434369  1
  Se  Se146  1  0.91169620  0.23914756  0.55164593  1
  Se  Se147  1  0.92563792  0.59258217  0.06247584  1
  Se  Se148  1  0.91886734  0.58261150  0.56027729  1
  Se  Se149  1  0.91300465  0.91602713  0.05687773  1
  Se  Se150  1  0.90147389  0.90306759  0.55748008  1
  Se  Se151  1  0.07463441  0.24169859  0.43695471  1
  Se  Se152  1  0.07187239  0.26201382  0.94097204  1
  Se  Se153  1  0.06722813  0.58517709  0.44031666  1
  Se  Se154  1  0.08293052  0.59577314  0.94636751  1
  Se  Se155  1  0.06926314  0.92825082  0.44689182  1
  Se  Se156  1  0.07368717  0.92961827  0.94509957  1
  Se  Se157  1  0.42442971  0.24205241  0.45303066  1
  Se  Se158  1  0.41524321  0.24417005  0.94185857  1
  Se  Se159  1  0.41848448  0.58441137  0.44471601  1
  Se  Se160  1  0.41720588  0.59141347  0.93894138  1
  Se  Se161  1  0.41773684  0.91706931  0.45395200  1
  Se  Se162  1  0.40860018  0.92343276  0.93429614  1
  Se  Se163  1  0.75735062  0.24840972  0.44088204  1
  Se  Se164  1  0.74795569  0.25044500  0.95512534  1
  Se  Se165  1  0.74008530  0.59302538  0.43568124  1
  Se  Se166  1  0.74943812  0.58064799  0.94460485  1
  Se  Se167  1  0.74976537  0.91625720  0.44543844  1
  Se  Se168  1  0.75398136  0.91722808  0.94864840  1
  Se  Se169  1  0.25744517  0.07570981  0.44614393  1
  Se  Se170  1  0.25044821  0.07680955  0.93780415  1
  Se  Se171  1  0.26087137  0.40210781  0.43916272  1
  Se  Se172  1  0.25301430  0.41565364  0.94180574  1
  Se  Se173  1  0.24982502  0.73818485  0.43417306  1
  Se  Se174  1  0.26098367  0.75728263  0.93419840  1
  Se  Se175  1  0.58759340  0.08746149  0.44570337  1
  Se  Se176  1  0.58477993  0.07358861  0.94363945  1
  Se  Se177  1  0.58551942  0.41816227  0.45088581  1
  Se  Se178  1  0.59272708  0.39248637  0.94905477  1
  Se  Se179  1  0.57542185  0.75932358  0.44347894  1
  Se  Se180  1  0.60193195  0.74132719  0.93750591  1
  Se  Se181  1  0.92026711  0.09024044  0.43203538  1
  Se  Se182  1  0.91112552  0.08995724  0.94693450  1
  Se  Se183  1  0.91329631  0.40516951  0.43454859  1
  Se  Se184  1  0.92011741  0.41867731  0.93831770  1
  Se  Se185  1  0.90956976  0.75510383  0.44937161  1
  Se  Se186  1  0.91595493  0.75826573  0.94893256  1
  Se  Se187  1  0.24154023  0.23885907  0.30895883  1
  Se  Se188  1  0.25274976  0.25357232  0.80113490  1
  Se  Se189  1  0.24933434  0.57423387  0.29713567  1
  Se  Se190  1  0.25264626  0.58561531  0.80188436  1
  Se  Se191  1  0.24334553  0.91509006  0.31638572  1
  Se  Se192  1  0.24671039  0.91767306  0.79724538  1
  Se  Se193  1  0.58845670  0.25021614  0.30680933  1
  Se  Se194  1  0.58247812  0.23914489  0.81352058  1
  Se  Se195  1  0.58220150  0.58739850  0.30586422  1
  Se  Se196  1  0.58306763  0.57681995  0.80766278  1
  Se  Se197  1  0.58709843  0.92399769  0.30508718  1
  Se  Se198  1  0.55947791  0.88846169  0.80410582  1
  Se  Se199  1  0.94463619  0.28200175  0.30444597  1
  Se  Se200  1  0.91279576  0.24869665  0.80271621  1
  Se  Se201  1  0.91523152  0.58334282  0.30362301  1
  Se  Se202  1  0.92040170  0.58940743  0.80403282  1
  Se  Se203  1  0.91497786  0.91542360  0.30635794  1
  Se  Se204  1  0.91828206  0.92064825  0.80590879  1
  Se  Se205  1  0.07885804  0.07813964  0.29594644  1
  Se  Se206  1  0.08097105  0.08777152  0.80284468  1
  Se  Se207  1  0.10530863  0.43315703  0.30110913  1
  Se  Se208  1  0.08520644  0.41977499  0.80318557  1
  Se  Se209  1  0.08045756  0.75194548  0.30783707  1
  Se  Se210  1  0.08000283  0.74895043  0.80451899  1
  Se  Se211  1  0.42080134  0.08293560  0.31231593  1
  Se  Se212  1  0.41837881  0.08307015  0.80049421  1
  Se  Se213  1  0.42498324  0.41621572  0.31694977  1
  Se  Se214  1  0.41976687  0.41625891  0.80072631  1
  Se  Se215  1  0.41550126  0.75477367  0.30291785  1
  Se  Se216  1  0.41299237  0.73698213  0.78930103  1
  Se  Se217  1  0.77011829  0.09861451  0.30220761  1
  Se  Se218  1  0.74642238  0.07781579  0.80559767  1
  Se  Se219  1  0.74392739  0.42054956  0.29939129  1
  Se  Se220  1  0.76118367  0.42354333  0.81265553  1
  Se  Se221  1  0.74655806  0.75019542  0.30526017  1
  Se  Se222  1  0.75551135  0.75486294  0.81061867  1
  Se  Se223  1  0.25120067  0.09207933  0.18589432  1
  Se  Se224  1  0.24735383  0.08734624  0.69956147  1
  Se  Se225  1  0.24111431  0.42483011  0.18058869  1
  Se  Se226  1  0.24945733  0.41662103  0.69591964  1
  Se  Se227  1  0.25584894  0.75167106  0.20064422  1
  Se  Se228  1  0.24776675  0.74833768  0.69647818  1
  Se  Se229  1  0.58573993  0.07731472  0.20342210  1
  Se  Se230  1  0.58725295  0.07848161  0.69784390  1
  Se  Se231  1  0.57737630  0.41829829  0.20082635  1
  Se  Se232  1  0.58472290  0.42284810  0.68924747  1
  Se  Se233  1  0.58623832  0.75121059  0.20050777  1
  Se  Se234  1  0.58087073  0.75692272  0.67928608  1
  Se  Se235  1  0.92406023  0.07222793  0.19931943  1
  Se  Se236  1  0.91672768  0.07968730  0.69619836  1
  Se  Se237  1  0.90277229  0.42048855  0.19121427  1
  Se  Se238  1  0.92259065  0.41204274  0.69713680  1
  Se  Se239  1  0.91848325  0.75180080  0.20112334  1
  Se  Se240  1  0.91571249  0.74806298  0.69995298  1
  Se  Se241  1  0.08041704  0.25410967  0.19804661  1
  Se  Se242  1  0.07847616  0.25199424  0.69330024  1
  Se  Se243  1  0.07667238  0.58786085  0.20143568  1
  Se  Se244  1  0.08181210  0.58398977  0.69545025  1
  Se  Se245  1  0.09000351  0.91662550  0.20004126  1
  Se  Se246  1  0.07904775  0.91866744  0.69868689  1
  Se  Se247  1  0.41664393  0.24533423  0.20231029  1
  Se  Se248  1  0.42188928  0.25566450  0.69800516  1
  Se  Se249  1  0.41371942  0.58677233  0.20145081  1
  Se  Se250  1  0.41778063  0.58445433  0.69127825  1
  Se  Se251  1  0.43127391  0.91380409  0.18487460  1
  Se  Se252  1  0.40326939  0.93448635  0.69423514  1
  Se  Se253  1  0.74842638  0.24564447  0.20472483  1
  Se  Se254  1  0.75269207  0.24028908  0.69050038  1
  Se  Se255  1  0.74362057  0.59412906  0.19967892  1
  Se  Se256  1  0.76141273  0.57404513  0.69066368  1
  Se  Se257  1  0.74844536  0.91806012  0.19818873  1
  Se  Se258  1  0.74710287  0.91903942  0.69868049  1
