# generated using pymatgen
data_In86Cu29Se144
_symmetry_space_group_name_H-M   'P 1'
_cell_length_a   17.57906860
_cell_length_b   17.57849821
_cell_length_c   23.44132714
_cell_angle_alpha   89.97664697
_cell_angle_beta   90.00850360
_cell_angle_gamma   90.01488709
_symmetry_Int_Tables_number   1
_chemical_formula_structural   In86Cu29Se144
_chemical_formula_sum   'In86 Cu29 Se144'
_cell_volume   7243.68856818
_cell_formula_units_Z   1
loop_
 _symmetry_equiv_pos_site_id
 _symmetry_equiv_pos_as_xyz
  1  'x, y, z'
loop_
 _atom_site_type_symbol
 _atom_site_label
 _atom_site_symmetry_multiplicity
 _atom_site_fract_x
 _atom_site_fract_y
 _atom_site_fract_z
 _atom_site_occupancy
  In  In0  1  -0.00089641  0.17291386  0.12994625  1
  In  In1  1  -0.00760633  0.19070337  0.62112316  1
  In  In2  1  -0.01135789  0.48956069  0.11742804  1
  In  In3  1  -0.02501832  0.47443759  0.60170499  1
  In  In4  1  0.00393600  0.83618239  0.12896377  1
  In  In5  1  0.00621189  0.82225048  0.62080068  1
  In  In6  1  0.32409581  0.18022997  0.12479453  1
  In  In7  1  0.33969615  0.15109256  0.62147560  1
  In  In8  1  0.33250138  0.50601525  0.11028270  1
  In  In9  1  0.33231614  0.51117208  0.62693992  1
  In  In10  1  0.33159566  0.82894633  0.11529412  1
  In  In11  1  0.34027841  0.84209933  0.60817044  1
  In  In12  1  0.67736031  0.16108535  0.13245394  1
  In  In13  1  0.67209066  0.16789593  0.61918721  1
  In  In14  1  0.66798834  0.49738324  0.12552548  1
  In  In15  1  0.67237550  0.48495392  0.64031790  1
  In  In16  1  0.66184991  0.84217271  0.13152818  1
  In  In17  1  0.66039962  0.84712436  0.63628538  1
  In  In18  1  0.14859647  0.00693386  0.37512654  1
  In  In19  1  0.17109615  -0.00737308  0.88654686  1
  In  In20  1  0.16569113  0.33703898  0.37462612  1
  In  In21  1  0.15247270  0.34278254  0.87989431  1
  In  In22  1  0.17124999  0.66221566  0.37545342  1
  In  In23  1  0.17150817  0.66373213  0.88827003  1
  In  In24  1  0.51307889  -0.01394220  0.38507173  1
  In  In25  1  0.49928958  -0.01193957  0.87557158  1
  In  In26  1  0.49804223  0.31781175  0.37930528  1
  In  In27  1  0.51770374  0.33707433  0.87240020  1
  In  In28  1  0.51792144  0.67051866  0.37412207  1
  In  In29  1  0.52172340  0.64918582  0.89337647  1
  In  In30  1  0.84838342  0.00888771  0.36276037  1
  In  In31  1  0.83459158  0.01008710  0.87312930  1
  In  In32  1  0.83722445  0.33763072  0.37795122  1
  In  In33  1  0.83253006  0.33164104  0.87651452  1
  In  In34  1  0.81890032  0.66580611  0.37319025  1
  In  In35  1  0.81147499  0.66423329  0.87158296  1
  In  In36  1  -0.00116792  0.16485014  0.36943503  1
  In  In37  1  -0.01370622  0.17488539  0.88306886  1
  In  In38  1  0.00496391  0.48756024  0.38238440  1
  In  In39  1  0.00380833  0.49060310  0.87827655  1
  In  In40  1  -0.00548895  0.85051781  0.37293840  1
  In  In41  1  0.00790160  0.83995934  0.87820903  1
  In  In42  1  0.33442616  0.17210112  0.37981131  1
  In  In43  1  0.33217007  0.15297109  0.87869246  1
  In  In44  1  0.32626640  0.48924981  0.37645222  1
  In  In45  1  0.33566482  0.50628783  0.88238911  1
  In  In46  1  0.33562333  0.83898933  0.38537414  1
  In  In47  1  0.34768052  0.81372628  0.89855993  1
  In  In48  1  0.67181613  0.16841481  0.37546767  1
  In  In49  1  0.67681326  0.17781041  0.86862700  1
  In  In50  1  0.67893805  0.50647486  0.37233129  1
  In  In51  1  0.66912930  0.49836934  0.87742401  1
  In  In52  1  0.66780160  0.82598067  0.36843571  1
  In  In53  1  0.65860425  0.82018687  0.86364720  1
  In  In54  1  0.15803265  0.00211423  0.12770708  1
  In  In55  1  0.17327717  -0.00792811  0.62213776  1
  In  In56  1  0.15147006  0.32419773  0.11620802  1
  In  In57  1  0.14832082  0.33462136  0.62719116  1
  In  In58  1  0.16744211  0.66724865  0.11196268  1
  In  In59  1  0.17076075  0.66474193  0.61884685  1
  In  In60  1  0.51565569  -0.00154060  0.12639373  1
  In  In61  1  0.51108544  0.00981218  0.61044377  1
  In  In62  1  0.49559390  0.34610840  0.12390916  1
  In  In63  1  0.52131677  0.33454930  0.62548260  1
  In  In64  1  0.50679164  0.67631147  0.11471447  1
  In  In65  1  0.49737303  0.67671473  0.62808386  1
  In  In66  1  0.81908788  0.00936049  0.13425920  1
  In  In67  1  0.81479855  -0.00061192  0.62422099  1
  In  In68  1  0.83426488  0.33335970  0.12733433  1
  In  In69  1  0.82878805  0.33191710  0.62177141  1
  In  In70  1  0.83470758  0.65097992  0.12502176  1
  In  In71  1  0.83325997  0.65730895  0.62807382  1
  In  In72  1  -0.00591997  0.66448416  0.24376954  1
  In  In73  1  0.50189572  0.50213341  0.50547278  1
  In  In74  1  0.33522369  -0.00408535  0.74796399  1
  In  In75  1  0.33888288  0.66803086  0.75375581  1
  In  In76  1  0.33252426  0.33302497  0.25268666  1
  In  In77  1  0.16532839  0.16443724  0.49709916  1
  In  In78  1  -0.00167128  0.66117653  0.74221114  1
  In  In79  1  -0.00676640  0.00314387  0.75216422  1
  In  In80  1  0.83362354  0.83407989  -0.00348096  1
  In  In81  1  0.33913432  0.33237311  0.75974508  1
  In  In82  1  0.83468858  0.83280849  0.49734459  1
  In  In83  1  0.33606684  0.00275288  0.24693506  1
  In  In84  1  0.33813219  0.66802551  0.23667383  1
  In  In85  1  0.49986592  0.16780991  -0.00037971  1
  Cu  Cu86  1  0.66764191  0.66409031  0.00062027  1
  Cu  Cu87  1  0.67238870  0.00362844  0.49671117  1
  Cu  Cu88  1  0.83372868  0.17473935  0.25211603  1
  Cu  Cu89  1  0.82885417  0.17266598  0.74808285  1
  Cu  Cu90  1  0.51021800  0.16152900  0.25499588  1
  Cu  Cu91  1  0.66670619  -0.00175662  0.00389159  1
  Cu  Cu92  1  0.50711351  0.83458680  0.74989116  1
  Cu  Cu93  1  0.15509951  0.17004015  0.75462392  1
  Cu  Cu94  1  0.33029403  0.33716650  -0.00101812  1
  Cu  Cu95  1  -0.00215057  0.00895066  0.00445510  1
  Cu  Cu96  1  0.51124365  0.16595621  0.74098534  1
  Cu  Cu97  1  0.50654799  0.82763582  0.25041362  1
  Cu  Cu98  1  0.33092165  0.33042682  0.50001612  1
  Cu  Cu99  1  0.51464468  0.49963438  0.24854405  1
  Cu  Cu100  1  0.67129073  0.33482599  0.00069212  1
  Cu  Cu101  1  0.17401205  0.82987706  0.75436232  1
  Cu  Cu102  1  0.15784215  0.84192567  0.25184853  1
  Cu  Cu103  1  0.33409686  0.66558353  0.49813098  1
  Cu  Cu104  1  -0.00143952  0.00434195  0.49630080  1
  Cu  Cu105  1  0.66548161  0.67091415  0.50041784  1
  Cu  Cu106  1  0.83223202  0.49293562  0.24949479  1
  Cu  Cu107  1  0.67003379  0.33269969  0.50020134  1
  Cu  Cu108  1  -0.00324456  0.33131616  0.00186664  1
  Cu  Cu109  1  0.32813208  0.00066207  0.00510478  1
  Cu  Cu110  1  -0.00315711  0.66266757  0.00173530  1
  Cu  Cu111  1  0.83217217  0.49359914  0.75006700  1
  Cu  Cu112  1  0.16402883  0.49242448  0.24461564  1
  Cu  Cu113  1  0.15742422  0.49622495  0.74930933  1
  Cu  Cu114  1  0.00858300  0.66289468  0.49772265  1
  Se  Se115  1  0.08204875  0.09008511  0.05865245  1
  Se  Se116  1  0.07405571  0.08023057  0.56432718  1
  Se  Se117  1  0.08303992  0.41995831  0.04920914  1
  Se  Se118  1  0.09423622  0.42356857  0.55127338  1
  Se  Se119  1  0.07315538  0.75213959  0.05439144  1
  Se  Se120  1  0.08991291  0.74935863  0.54946741  1
  Se  Se121  1  0.41095356  0.08022972  0.06535250  1
  Se  Se122  1  0.40368224  0.06618272  0.54817704  1
  Se  Se123  1  0.41953819  0.41919128  0.04708021  1
  Se  Se124  1  0.41083738  0.40835884  0.56374845  1
  Se  Se125  1  0.40851862  0.74232589  0.04949035  1
  Se  Se126  1  0.42184570  0.74645899  0.54929719  1
  Se  Se127  1  0.74890780  0.08466143  0.05382472  1
  Se  Se128  1  0.75653696  0.08783682  0.54794001  1
  Se  Se129  1  0.75350607  0.41738534  0.05640369  1
  Se  Se130  1  0.74398393  0.42177992  0.55640915  1
  Se  Se131  1  0.74717941  0.74614244  0.06114424  1
  Se  Se132  1  0.74593255  0.74988281  0.56294849  1
  Se  Se133  1  0.24669704  0.25146317  0.04862552  1
  Se  Se134  1  0.25232319  0.25268179  0.56495209  1
  Se  Se135  1  0.24611588  0.58418053  0.04467365  1
  Se  Se136  1  0.25286653  0.58004194  0.55042319  1
  Se  Se137  1  0.24349904  0.92060974  0.05938254  1
  Se  Se138  1  0.23792051  0.90808657  0.54831522  1
  Se  Se139  1  0.58915666  0.25451220  0.06187374  1
  Se  Se140  1  0.58378027  0.24800614  0.55000929  1
  Se  Se141  1  0.58491203  0.57941675  0.05435457  1
  Se  Se142  1  0.59254995  0.58884918  0.56545593  1
  Se  Se143  1  0.58230287  0.91184666  0.05219463  1
  Se  Se144  1  0.59399529  0.91496623  0.55123330  1
  Se  Se145  1  0.91412456  0.24911162  0.05697257  1
  Se  Se146  1  0.91398086  0.26141078  0.54720180  1
  Se  Se147  1  0.91052608  0.57734417  0.04860396  1
  Se  Se148  1  0.91546154  0.59129022  0.55081562  1
  Se  Se149  1  0.91562749  0.92524513  0.06197328  1
  Se  Se150  1  0.92291617  0.92380854  0.56079976  1
  Se  Se151  1  0.07442556  0.25714657  0.44319844  1
  Se  Se152  1  0.08192724  0.24855337  0.94770171  1
  Se  Se153  1  0.09000963  0.57903876  0.44343594  1
  Se  Se154  1  0.07998133  0.57936435  0.94725593  1
  Se  Se155  1  0.08144188  0.91663297  0.44771491  1
  Se  Se156  1  0.07837587  0.91937781  0.95405365  1
  Se  Se157  1  0.41710491  0.24467913  0.45399323  1
  Se  Se158  1  0.41158794  0.25846915  0.93662872  1
  Se  Se159  1  0.41448628  0.58664879  0.43588239  1
  Se  Se160  1  0.39719092  0.61083673  0.94331606  1
  Se  Se161  1  0.42187212  0.91454526  0.45231560  1
  Se  Se162  1  0.41787462  0.92219982  0.95297069  1
  Se  Se163  1  0.75308835  0.25118212  0.44541532  1
  Se  Se164  1  0.75147374  0.24742049  0.94817410  1
  Se  Se165  1  0.74924108  0.58550161  0.45036721  1
  Se  Se166  1  0.75187649  0.57966700  0.94966562  1
  Se  Se167  1  0.75143545  0.92399303  0.43437086  1
  Se  Se168  1  0.74167001  0.92101522  0.93665371  1
  Se  Se169  1  0.25528692  0.07138111  0.44048789  1
  Se  Se170  1  0.24694962  0.08586804  0.95252674  1
  Se  Se171  1  0.24677533  0.41377100  0.44919187  1
  Se  Se172  1  0.24792045  0.41901918  0.94302221  1
  Se  Se173  1  0.24990964  0.74736684  0.44423791  1
  Se  Se174  1  0.22418145  0.77418973  0.94771853  1
  Se  Se175  1  0.58595093  0.08698984  0.44522586  1
  Se  Se176  1  0.58960835  0.07976477  0.93882386  1
  Se  Se177  1  0.58675366  0.41361988  0.44030629  1
  Se  Se178  1  0.58488546  0.41738538  0.94955775  1
  Se  Se179  1  0.58618837  0.75703045  0.44734087  1
  Se  Se180  1  0.58993952  0.75720192  0.94992501  1
  Se  Se181  1  0.91667751  0.08617068  0.44229900  1
  Se  Se182  1  0.90948813  0.08470625  0.95011936  1
  Se  Se183  1  0.90384524  0.43032815  0.44911355  1
  Se  Se184  1  0.91456870  0.41448304  0.94639262  1
  Se  Se185  1  0.92563808  0.74172836  0.43667010  1
  Se  Se186  1  0.92053451  0.73995125  0.93550847  1
  Se  Se187  1  0.24083939  0.23880114  0.30722457  1
  Se  Se188  1  0.24280949  0.24151593  0.81411896  1
  Se  Se189  1  0.24923473  0.57437512  0.29920552  1
  Se  Se190  1  0.23854850  0.57768123  0.80684529  1
  Se  Se191  1  0.24679752  0.91353497  0.31004382  1
  Se  Se192  1  0.25521079  0.90661101  0.81520610  1
  Se  Se193  1  0.58634162  0.25270309  0.30645392  1
  Se  Se194  1  0.58649627  0.25113875  0.79906262  1
  Se  Se195  1  0.59151477  0.58608651  0.30326074  1
  Se  Se196  1  0.58975332  0.58729801  0.81033070  1
  Se  Se197  1  0.58398997  0.91625531  0.30377266  1
  Se  Se198  1  0.58672492  0.92274010  0.80209256  1
  Se  Se199  1  0.91813126  0.25625175  0.30593238  1
  Se  Se200  1  0.91508369  0.24979172  0.80440581  1
  Se  Se201  1  0.91281037  0.57489209  0.31032709  1
  Se  Se202  1  0.91177040  0.57674615  0.80967053  1
  Se  Se203  1  0.91019354  0.90849643  0.29637629  1
  Se  Se204  1  0.90882578  0.90603248  0.80956990  1
  Se  Se205  1  0.07640744  0.07998068  0.29926282  1
  Se  Se206  1  0.08631462  0.08330748  0.81708127  1
  Se  Se207  1  0.08312313  0.41565852  0.30354344  1
  Se  Se208  1  0.07501985  0.41123233  0.80054038  1
  Se  Se209  1  0.08526671  0.75111655  0.30853636  1
  Se  Se210  1  0.08892456  0.74808058  0.80818892  1
  Se  Se211  1  0.42465591  0.08592681  0.31374469  1
  Se  Se212  1  0.42905836  0.09077142  0.80426710  1
  Se  Se213  1  0.42936254  0.42462096  0.30917709  1
  Se  Se214  1  0.42676317  0.43046026  0.81180264  1
  Se  Se215  1  0.41870326  0.75342941  0.30877540  1
  Se  Se216  1  0.42776578  0.75796805  0.81298085  1
  Se  Se217  1  0.75096278  0.08733199  0.30299863  1
  Se  Se218  1  0.74978042  0.08456837  0.80107045  1
  Se  Se219  1  0.74856296  0.41223128  0.30528016  1
  Se  Se220  1  0.74911294  0.41336570  0.80722835  1
  Se  Se221  1  0.75282504  0.74926608  0.29936536  1
  Se  Se222  1  0.75334240  0.75232062  0.79693226  1
  Se  Se223  1  0.24249465  0.09573166  0.19497599  1
  Se  Se224  1  0.23743593  0.09105440  0.69564120  1
  Se  Se225  1  0.25054645  0.41941352  0.18395308  1
  Se  Se226  1  0.24840435  0.41879165  0.69440929  1
  Se  Se227  1  0.23565316  0.76029301  0.19068603  1
  Se  Se228  1  0.25354837  0.75764618  0.68805102  1
  Se  Se229  1  0.59004279  0.07834399  0.19942370  1
  Se  Se230  1  0.58985146  0.08002942  0.68759147  1
  Se  Se231  1  0.58859434  0.40902449  0.19535473  1
  Se  Se232  1  0.57641758  0.41559974  0.70526012  1
  Se  Se233  1  0.58478698  0.74369504  0.19379429  1
  Se  Se234  1  0.58715715  0.74688702  0.69812286  1
  Se  Se235  1  0.91258125  0.08885037  0.19651221  1
  Se  Se236  1  0.90951118  0.09255772  0.68701257  1
  Se  Se237  1  0.92094921  0.41423851  0.19735540  1
  Se  Se238  1  0.91473434  0.41517221  0.69164839  1
  Se  Se239  1  0.90288794  0.75683287  0.18898891  1
  Se  Se240  1  0.90840048  0.76100430  0.69161131  1
  Se  Se241  1  0.08196247  0.25807733  0.19735547  1
  Se  Se242  1  0.07431769  0.25292619  0.70096178  1
  Se  Se243  1  0.08867095  0.57718298  0.18470161  1
  Se  Se244  1  0.08525271  0.57191791  0.68165242  1
  Se  Se245  1  0.07472771  0.92495963  0.20036768  1
  Se  Se246  1  0.08954156  0.90869773  0.69614231  1
  Se  Se247  1  0.42792809  0.24113922  0.19463189  1
  Se  Se248  1  0.41956063  0.24359636  0.68893415  1
  Se  Se249  1  0.42939370  0.57140464  0.18598255  1
  Se  Se250  1  0.42976075  0.57467021  0.69703777  1
  Se  Se251  1  0.42300108  0.90503373  0.18983142  1
  Se  Se252  1  0.42747273  0.91178605  0.68622527  1
  Se  Se253  1  0.74802607  0.25591374  0.19856203  1
  Se  Se254  1  0.74474424  0.25355624  0.69296802  1
  Se  Se255  1  0.74999756  0.57899535  0.19771320  1
  Se  Se256  1  0.75078072  0.58267274  0.70050712  1
  Se  Se257  1  0.74734429  0.91654756  0.20007676  1
  Se  Se258  1  0.75471574  0.91816091  0.70213793  1
