# generated using pymatgen
data_In86Cu29Se144
_symmetry_space_group_name_H-M   'P 1'
_cell_length_a   17.58061074
_cell_length_b   17.58168017
_cell_length_c   23.44341185
_cell_angle_alpha   90.01424353
_cell_angle_beta   89.98346646
_cell_angle_gamma   90.00479102
_symmetry_Int_Tables_number   1
_chemical_formula_structural   In86Cu29Se144
_chemical_formula_sum   'In86 Cu29 Se144'
_cell_volume   7246.28010719
_cell_formula_units_Z   1
loop_
 _symmetry_equiv_pos_site_id
 _symmetry_equiv_pos_as_xyz
  1  'x, y, z'
loop_
 _atom_site_type_symbol
 _atom_site_label
 _atom_site_symmetry_multiplicity
 _atom_site_fract_x
 _atom_site_fract_y
 _atom_site_fract_z
 _atom_site_occupancy
  In  In0  1  -0.00787343  0.15828896  0.11237213  1
  In  In1  1  0.00870812  0.15610167  0.62857001  1
  In  In2  1  -0.00286979  0.51118658  0.12901848  1
  In  In3  1  0.00028936  0.50204239  0.62426003  1
  In  In4  1  -0.01737862  0.84427493  0.14414545  1
  In  In5  1  -0.01294538  0.83705600  0.63426776  1
  In  In6  1  0.33103964  0.16999238  0.12483841  1
  In  In7  1  0.33283838  0.18638759  0.62956680  1
  In  In8  1  0.32953713  0.50261496  0.13613830  1
  In  In9  1  0.32771371  0.49794415  0.61836417  1
  In  In10  1  0.33808483  0.83413627  0.13497728  1
  In  In11  1  0.32553374  0.82769550  0.62323467  1
  In  In12  1  0.66305072  0.16387261  0.11999371  1
  In  In13  1  0.65509540  0.14847806  0.63418777  1
  In  In14  1  0.67929916  0.49597410  0.12570325  1
  In  In15  1  0.67358909  0.50864206  0.61243523  1
  In  In16  1  0.66648942  0.84715406  0.13965654  1
  In  In17  1  0.68207109  0.83219132  0.62691663  1
  In  In18  1  0.16795204  0.00259542  0.37234161  1
  In  In19  1  0.16646420  0.01380789  0.87593384  1
  In  In20  1  0.17204704  0.32162528  0.38342807  1
  In  In21  1  0.16117338  0.32767948  0.86532851  1
  In  In22  1  0.16216366  0.65972636  0.37811796  1
  In  In23  1  0.16518997  0.66543859  0.86552453  1
  In  In24  1  0.49899650  -0.00015645  0.36253287  1
  In  In25  1  0.51820387  0.00369575  0.87099408  1
  In  In26  1  0.50173815  0.34441681  0.37558739  1
  In  In27  1  0.48423086  0.32998279  0.87112490  1
  In  In28  1  0.48974580  0.65203870  0.36955009  1
  In  In29  1  0.49493388  0.68072830  0.86806537  1
  In  In30  1  0.82223253  -0.01680119  0.35445405  1
  In  In31  1  0.84711964  0.00731636  0.86785565  1
  In  In32  1  0.84357208  0.33260880  0.37585566  1
  In  In33  1  0.84145593  0.32436392  0.88114502  1
  In  In34  1  0.83348681  0.66734451  0.37375183  1
  In  In35  1  0.82948315  0.66322056  0.87357441  1
  In  In36  1  0.00383791  0.16503422  0.37203902  1
  In  In37  1  0.00352141  0.16872288  0.87289809  1
  In  In38  1  -0.00771733  0.50991881  0.38777159  1
  In  In39  1  0.00004895  0.49543415  0.86837190  1
  In  In40  1  -0.01459501  0.81939354  0.36142720  1
  In  In41  1  -0.00491659  0.83426258  0.86090073  1
  In  In42  1  0.32660750  0.15578089  0.36243993  1
  In  In43  1  0.32203960  0.17428289  0.88303220  1
  In  In44  1  0.33307513  0.49908037  0.38093499  1
  In  In45  1  0.33598278  0.49809223  0.86292418  1
  In  In46  1  0.33164299  0.83094154  0.37011727  1
  In  In47  1  0.34423546  0.82612605  0.86814759  1
  In  In48  1  0.66466280  0.15452342  0.36183282  1
  In  In49  1  0.67504579  0.15965237  0.88484760  1
  In  In50  1  0.65436273  0.50831217  0.38242599  1
  In  In51  1  0.67699221  0.50999024  0.87608771  1
  In  In52  1  0.68088059  0.83387592  0.37059502  1
  In  In53  1  0.66522285  0.84640081  0.86970771  1
  In  In54  1  0.15669571  0.01161477  0.12744040  1
  In  In55  1  0.15026096  -0.00386548  0.62062341  1
  In  In56  1  0.18049612  0.33334732  0.12708785  1
  In  In57  1  0.16541368  0.33323334  0.62273982  1
  In  In58  1  0.16134892  0.67362292  0.13787403  1
  In  In59  1  0.17406535  0.65272581  0.62544019  1
  In  In60  1  0.48862054  0.02200220  0.14439518  1
  In  In61  1  0.50885380  0.01237242  0.63122218  1
  In  In62  1  0.49501157  0.31788446  0.12624988  1
  In  In63  1  0.48379715  0.32911241  0.62892752  1
  In  In64  1  0.49885104  0.67191320  0.13385408  1
  In  In65  1  0.49701004  0.65433593  0.61885964  1
  In  In66  1  0.81478969  0.02090514  0.15198981  1
  In  In67  1  0.83580049  -0.00840645  0.63596843  1
  In  In68  1  0.83736132  0.33677722  0.11501330  1
  In  In69  1  0.83224979  0.34765946  0.62537878  1
  In  In70  1  0.83729130  0.66538592  0.13661572  1
  In  In71  1  0.84156397  0.67762013  0.61610216  1
  In  In72  1  0.33305732  -0.00462946  0.75092413  1
  In  In73  1  0.50425043  0.83778419  -0.00397502  1
  In  In74  1  0.66109640  0.33446007  0.24557514  1
  In  In75  1  0.16241852  0.49457138  -0.00080157  1
  In  In76  1  0.16256711  0.83595425  0.00853881  1
  In  In77  1  0.00429807  0.33016665  0.25807954  1
  In  In78  1  0.50408877  0.49382044  -0.00472465  1
  In  In79  1  0.49880359  0.17381931  0.50349159  1
  In  In80  1  0.83559824  0.16982976  0.49604921  1
  In  In81  1  0.66399798  0.67033154  0.74928040  1
  In  In82  1  0.15941947  0.82862756  0.49403994  1
  In  In83  1  0.66662000  0.32916652  0.74881379  1
  In  In84  1  0.50276159  0.83039350  0.50171924  1
  In  In85  1  0.83232317  0.83746299  0.00823782  1
  Cu  Cu86  1  0.17018512  0.16732547  0.24848798  1
  Cu  Cu87  1  0.67225116  0.67047318  0.49534683  1
  Cu  Cu88  1  0.16077071  0.83028446  0.74328266  1
  Cu  Cu89  1  0.32749135  0.66432902  -0.00066324  1
  Cu  Cu90  1  0.83054643  0.50339280  0.25523066  1
  Cu  Cu91  1  0.49557803  0.50531799  0.25640625  1
  Cu  Cu92  1  -0.00151014  0.66760646  0.50120907  1
  Cu  Cu93  1  0.00220344  0.33216163  -0.00817497  1
  Cu  Cu94  1  0.00343363  0.33666597  0.50098529  1
  Cu  Cu95  1  0.17787011  0.83357604  0.25503548  1
  Cu  Cu96  1  -0.00681202  -0.00095811  0.50139523  1
  Cu  Cu97  1  0.33841722  0.00951145  0.00421824  1
  Cu  Cu98  1  0.50820586  0.83198866  0.25657725  1
  Cu  Cu99  1  0.32952837  0.33464288  0.50057100  1
  Cu  Cu100  1  0.16614102  0.16632803  0.74938571  1
  Cu  Cu101  1  0.67484116  -0.00133238  0.49341999  1
  Cu  Cu102  1  0.67084121  0.33079380  0.00160790  1
  Cu  Cu103  1  0.66714942  0.00407800  0.00675444  1
  Cu  Cu104  1  -0.00164229  0.00260675  -0.00226372  1
  Cu  Cu105  1  0.16847397  0.50157094  0.25761418  1
  Cu  Cu106  1  0.66885157  0.33635711  0.49926071  1
  Cu  Cu107  1  -0.00871747  0.66594485  0.00588530  1
  Cu  Cu108  1  0.83761097  0.16769059  0.75592929  1
  Cu  Cu109  1  0.16873131  0.49874849  0.74153338  1
  Cu  Cu110  1  0.67466679  0.66140328  0.00235187  1
  Cu  Cu111  1  0.84287322  0.50247409  0.74911531  1
  Cu  Cu112  1  0.49483713  0.49526924  0.74259319  1
  Cu  Cu113  1  0.33026882  0.00857329  0.49336076  1
  Cu  Cu114  1  0.33329098  0.32819245  0.00048944  1
  Se  Se115  1  0.08776162  0.08503043  0.04642006  1
  Se  Se116  1  0.08150518  0.08378454  0.54770678  1
  Se  Se117  1  0.07326586  0.40817187  0.06288791  1
  Se  Se118  1  0.08486993  0.41998415  0.55517369  1
  Se  Se119  1  0.06839901  0.74771773  0.06599774  1
  Se  Se120  1  0.07522096  0.74814428  0.56464616  1
  Se  Se121  1  0.42302551  0.08841849  0.05892674  1
  Se  Se122  1  0.40862773  0.07930164  0.56092458  1
  Se  Se123  1  0.40689813  0.41663049  0.05902272  1
  Se  Se124  1  0.41806529  0.41280723  0.55360274  1
  Se  Se125  1  0.41110218  0.74582481  0.05553852  1
  Se  Se126  1  0.40532145  0.74071786  0.55278691  1
  Se  Se127  1  0.75788922  0.08039073  0.06003524  1
  Se  Se128  1  0.74648037  0.08117774  0.55847929  1
  Se  Se129  1  0.75246862  0.42085928  0.04872522  1
  Se  Se130  1  0.75571453  0.41974421  0.54805580  1
  Se  Se131  1  0.74045784  0.74752456  0.06628597  1
  Se  Se132  1  0.75267518  0.75652937  0.54842498  1
  Se  Se133  1  0.24611290  0.24792337  0.05200334  1
  Se  Se134  1  0.24809126  0.24760019  0.55276675  1
  Se  Se135  1  0.24772198  0.58917079  0.06139738  1
  Se  Se136  1  0.24651857  0.57999406  0.54851127  1
  Se  Se137  1  0.26123633  0.92350489  0.06234653  1
  Se  Se138  1  0.25274725  0.92407952  0.55264322  1
  Se  Se139  1  0.58282567  0.25129014  0.05284048  1
  Se  Se140  1  0.59567026  0.25604211  0.56481842  1
  Se  Se141  1  0.58470382  0.58831799  0.05968414  1
  Se  Se142  1  0.58563397  0.58736085  0.54600765  1
  Se  Se143  1  0.58347102  0.92539191  0.06461257  1
  Se  Se144  1  0.59025971  0.92735176  0.55709452  1
  Se  Se145  1  0.91713446  0.25106521  0.04734868  1
  Se  Se146  1  0.92234896  0.25552629  0.56182085  1
  Se  Se147  1  0.90870433  0.58313664  0.05870592  1
  Se  Se148  1  0.91460458  0.58110502  0.55303272  1
  Se  Se149  1  0.92087287  0.93022648  0.06390621  1
  Se  Se150  1  0.91289618  0.91784088  0.55852101  1
  Se  Se151  1  0.07712462  0.24551397  0.44731101  1
  Se  Se152  1  0.08954930  0.24982971  0.94261921  1
  Se  Se153  1  0.08641795  0.58270827  0.45442254  1
  Se  Se154  1  0.07698103  0.59352631  0.94353830  1
  Se  Se155  1  0.07068630  0.92002788  0.43692747  1
  Se  Se156  1  0.07555265  0.91779378  0.93926682  1
  Se  Se157  1  0.40827268  0.25375253  0.43820880  1
  Se  Se158  1  0.41986564  0.24711061  0.94870838  1
  Se  Se159  1  0.42583325  0.57401859  0.44779060  1
  Se  Se160  1  0.41154231  0.58906002  0.93971315  1
  Se  Se161  1  0.41405588  0.92499126  0.44063195  1
  Se  Se162  1  0.40800905  0.92574969  0.93963243  1
  Se  Se163  1  0.73677808  0.25248344  0.43504244  1
  Se  Se164  1  0.75637930  0.24669485  0.95046819  1
  Se  Se165  1  0.75322816  0.58224237  0.44384040  1
  Se  Se166  1  0.75988188  0.58089875  0.95019352  1
  Se  Se167  1  0.75981262  0.91728765  0.44214438  1
  Se  Se168  1  0.74626561  0.92667564  0.94326565  1
  Se  Se169  1  0.24601594  0.09047146  0.44203383  1
  Se  Se170  1  0.24687028  0.08438241  0.95173730  1
  Se  Se171  1  0.24480540  0.41715811  0.44818178  1
  Se  Se172  1  0.25805169  0.41223861  0.93820860  1
  Se  Se173  1  0.25999480  0.74198937  0.44354071  1
  Se  Se174  1  0.25052077  0.74838426  0.94134853  1
  Se  Se175  1  0.58546005  0.07855314  0.44163471  1
  Se  Se176  1  0.58152333  0.08286128  0.95117189  1
  Se  Se177  1  0.57945986  0.41825090  0.45127636  1
  Se  Se178  1  0.59460031  0.40554844  0.93391358  1
  Se  Se179  1  0.58774180  0.74606294  0.43471356  1
  Se  Se180  1  0.59701018  0.74058298  0.94082436  1
  Se  Se181  1  0.91482103  0.07380860  0.43530262  1
  Se  Se182  1  0.91801072  0.08777870  0.94328786  1
  Se  Se183  1  0.91318938  0.41502987  0.45020093  1
  Se  Se184  1  0.91986652  0.42091214  0.94314356  1
  Se  Se185  1  0.91726736  0.75010323  0.44476442  1
  Se  Se186  1  0.92047268  0.75062722  0.94250326  1
  Se  Se187  1  0.24818148  0.25463461  0.30285487  1
  Se  Se188  1  0.25331671  0.24788647  0.80133534  1
  Se  Se189  1  0.25305345  0.58450360  0.31010809  1
  Se  Se190  1  0.24917820  0.58164485  0.79961633  1
  Se  Se191  1  0.25698641  0.92369179  0.30504787  1
  Se  Se192  1  0.23785363  0.90677889  0.81094184  1
  Se  Se193  1  0.57030569  0.24480232  0.30507691  1
  Se  Se194  1  0.58356120  0.24390583  0.81519399  1
  Se  Se195  1  0.58877876  0.58556450  0.30189092  1
  Se  Se196  1  0.57325654  0.57279716  0.80712464  1
  Se  Se197  1  0.59372086  0.91759944  0.30467015  1
  Se  Se198  1  0.54717285  0.88332325  0.81218952  1
  Se  Se199  1  0.90369671  0.23605589  0.30297730  1
  Se  Se200  1  0.92132874  0.25499894  0.80396820  1
  Se  Se201  1  0.92036120  0.58076405  0.30743661  1
  Se  Se202  1  0.91905346  0.58824884  0.80565543  1
  Se  Se203  1  0.94086245  0.93406655  0.30200978  1
  Se  Se204  1  0.90939741  0.91474125  0.79708989  1
  Se  Se205  1  0.08638399  0.08523863  0.30198387  1
  Se  Se206  1  0.08225848  0.08225810  0.80176237  1
  Se  Se207  1  0.08738576  0.42329893  0.31941779  1
  Se  Se208  1  0.08583159  0.41842137  0.79932510  1
  Se  Se209  1  0.09250704  0.74915198  0.30628419  1
  Se  Se210  1  0.07959908  0.74605139  0.79880611  1
  Se  Se211  1  0.42255101  0.08780359  0.29738923  1
  Se  Se212  1  0.41324561  0.08506038  0.81668156  1
  Se  Se213  1  0.41389432  0.41840550  0.30644345  1
  Se  Se214  1  0.41301684  0.40965319  0.79491958  1
  Se  Se215  1  0.41878226  0.74939323  0.30482287  1
  Se  Se216  1  0.40299553  0.73564811  0.79454399  1
  Se  Se217  1  0.75426525  0.08581989  0.29378313  1
  Se  Se218  1  0.75055904  0.08608053  0.80700923  1
  Se  Se219  1  0.75063359  0.41911646  0.31253100  1
  Se  Se220  1  0.75803618  0.42220031  0.80712164  1
  Se  Se221  1  0.75927295  0.75061698  0.30106084  1
  Se  Se222  1  0.75652228  0.76172375  0.80647727  1
  Se  Se223  1  0.25144164  0.08214030  0.19398547  1
  Se  Se224  1  0.24375170  0.08349305  0.68732548  1
  Se  Se225  1  0.24809704  0.41698609  0.20276037  1
  Se  Se226  1  0.25280993  0.41256745  0.69137813  1
  Se  Se227  1  0.25783706  0.74643221  0.20095183  1
  Se  Se228  1  0.24659960  0.74755880  0.69364689  1
  Se  Se229  1  0.60600937  0.07374660  0.19670240  1
  Se  Se230  1  0.58164601  0.07798505  0.71263375  1
  Se  Se231  1  0.56924117  0.42772504  0.18720862  1
  Se  Se232  1  0.58497490  0.42417228  0.68460583  1
  Se  Se233  1  0.58799035  0.74990265  0.19932696  1
  Se  Se234  1  0.57531340  0.75308660  0.68361336  1
  Se  Se235  1  0.93806385  0.07701879  0.19367053  1
  Se  Se236  1  0.91743465  0.08424541  0.69737743  1
  Se  Se237  1  0.91064144  0.41980998  0.19645110  1
  Se  Se238  1  0.92182353  0.41533073  0.69628537  1
  Se  Se239  1  0.93063762  0.73388542  0.20363560  1
  Se  Se240  1  0.90450170  0.74937666  0.69818319  1
  Se  Se241  1  0.08661026  0.24590463  0.18831794  1
  Se  Se242  1  0.08411555  0.24950378  0.69378832  1
  Se  Se243  1  0.08377200  0.58009612  0.20152549  1
  Se  Se244  1  0.08074216  0.58492609  0.69525448  1
  Se  Se245  1  0.09696831  0.90959072  0.19395550  1
  Se  Se246  1  0.07824242  0.92038814  0.69741196  1
  Se  Se247  1  0.40423296  0.25683033  0.19681753  1
  Se  Se248  1  0.43622449  0.22905781  0.69973671  1
  Se  Se249  1  0.41374181  0.58873430  0.19974650  1
  Se  Se250  1  0.41251659  0.57957380  0.68985980  1
  Se  Se251  1  0.42309871  0.91426183  0.20226757  1
  Se  Se252  1  0.42098279  0.90978553  0.68596215  1
  Se  Se253  1  0.75657755  0.25168678  0.18601875  1
  Se  Se254  1  0.75895422  0.23976439  0.68796336  1
  Se  Se255  1  0.74529185  0.58201473  0.19960240  1
  Se  Se256  1  0.75584659  0.57954362  0.69099030  1
  Se  Se257  1  0.78231409  0.89210184  0.19734921  1
  Se  Se258  1  0.72604071  0.93551898  0.69663283  1
