# generated using pymatgen
data_In86Cu29Se144
_symmetry_space_group_name_H-M   'P 1'
_cell_length_a   17.61398005
_cell_length_b   17.61094569
_cell_length_c   23.47439473
_cell_angle_alpha   89.97468360
_cell_angle_beta   89.98919743
_cell_angle_gamma   89.96921226
_symmetry_Int_Tables_number   1
_chemical_formula_structural   In86Cu29Se144
_chemical_formula_sum   'In86 Cu29 Se144'
_cell_volume   7281.72826750
_cell_formula_units_Z   1
loop_
 _symmetry_equiv_pos_site_id
 _symmetry_equiv_pos_as_xyz
  1  'x, y, z'
loop_
 _atom_site_type_symbol
 _atom_site_label
 _atom_site_symmetry_multiplicity
 _atom_site_fract_x
 _atom_site_fract_y
 _atom_site_fract_z
 _atom_site_occupancy
  In  In0  1  -0.00139050  0.17032629  0.12501277  1
  In  In1  1  0.00115547  0.17289182  0.61615583  1
  In  In2  1  0.01548142  0.48958286  0.13175979  1
  In  In3  1  0.00179577  0.50027255  0.60963987  1
  In  In4  1  0.01763042  0.82165926  0.14153076  1
  In  In5  1  0.00732378  0.82033517  0.62019004  1
  In  In6  1  0.34353467  0.17927065  0.12175749  1
  In  In7  1  0.32884754  0.17743102  0.62038573  1
  In  In8  1  0.32835936  0.49765545  0.13727702  1
  In  In9  1  0.34182364  0.50812274  0.61656154  1
  In  In10  1  0.32321932  0.82328649  0.12303368  1
  In  In11  1  0.32044681  0.81991098  0.61943926  1
  In  In12  1  0.67855939  0.17633418  0.11593640  1
  In  In13  1  0.67919528  0.16593373  0.62285522  1
  In  In14  1  0.64881947  0.50143061  0.12199255  1
  In  In15  1  0.65378491  0.48786854  0.61808372  1
  In  In16  1  0.66236859  0.83893016  0.11368745  1
  In  In17  1  0.66073058  0.84451523  0.62356196  1
  In  In18  1  0.15931832  0.01034626  0.37876731  1
  In  In19  1  0.17138293  -0.00033177  0.88702515  1
  In  In20  1  0.16240576  0.33939445  0.36228210  1
  In  In21  1  0.16585378  0.33216077  0.89452189  1
  In  In22  1  0.17043227  0.66087829  0.37001611  1
  In  In23  1  0.18005722  0.64735092  0.89152625  1
  In  In24  1  0.48746732  -0.01073998  0.37314550  1
  In  In25  1  0.50752992  -0.00285157  0.88929681  1
  In  In26  1  0.51013466  0.34592383  0.36641615  1
  In  In27  1  0.50484306  0.33221681  0.88334395  1
  In  In28  1  0.48731630  0.66600791  0.37718536  1
  In  In29  1  0.49283816  0.67415589  0.88206465  1
  In  In30  1  0.84788077  0.00320936  0.37457118  1
  In  In31  1  0.84455213  0.00098038  0.87618544  1
  In  In32  1  0.83352848  0.33222783  0.37093746  1
  In  In33  1  0.81974078  0.33731986  0.87829464  1
  In  In34  1  0.83081721  0.65083736  0.37456296  1
  In  In35  1  0.83465444  0.67125942  0.87594874  1
  In  In36  1  -0.00128420  0.16973786  0.36943565  1
  In  In37  1  -0.00259274  0.17202936  0.89668408  1
  In  In38  1  0.00551883  0.49653134  0.36386802  1
  In  In39  1  0.00741261  0.50116182  0.88647952  1
  In  In40  1  0.01275604  0.84225360  0.36803629  1
  In  In41  1  0.00253803  0.83925041  0.87975839  1
  In  In42  1  0.31472565  0.16792416  0.37230935  1
  In  In43  1  0.33393862  0.17212259  0.89151481  1
  In  In44  1  0.32797339  0.50256665  0.36900253  1
  In  In45  1  0.33073696  0.50475165  0.87877334  1
  In  In46  1  0.33675107  0.81818130  0.37734349  1
  In  In47  1  0.33788670  0.82042164  0.87951185  1
  In  In48  1  0.66749049  0.18280767  0.37242575  1
  In  In49  1  0.65476226  0.17617913  0.88828881  1
  In  In50  1  0.67537268  0.49098858  0.38178528  1
  In  In51  1  0.67010282  0.48810371  0.87473521  1
  In  In52  1  0.65289225  0.82397378  0.37593416  1
  In  In53  1  0.66149649  0.81977035  0.87615745  1
  In  In54  1  0.15765852  -0.00917951  0.12411362  1
  In  In55  1  0.16748014  0.00217556  0.61839688  1
  In  In56  1  0.16406467  0.34210240  0.12686987  1
  In  In57  1  0.16670740  0.33486562  0.61089985  1
  In  In58  1  0.16767163  0.66151800  0.13609710  1
  In  In59  1  0.17138776  0.66974024  0.61660635  1
  In  In60  1  0.51084222  0.00174606  0.10675230  1
  In  In61  1  0.51060357  -0.00579851  0.62415090  1
  In  In62  1  0.49952802  0.33845250  0.13063904  1
  In  In63  1  0.49995879  0.35040947  0.62643669  1
  In  In64  1  0.48575193  0.64873836  0.10825874  1
  In  In65  1  0.48144769  0.65005331  0.62114427  1
  In  In66  1  0.84104338  0.01930794  0.11878211  1
  In  In67  1  0.82402137  0.00922236  0.62091055  1
  In  In68  1  0.84436113  0.32306403  0.13333749  1
  In  In69  1  0.82729424  0.32776539  0.61812873  1
  In  In70  1  0.84339534  0.67500873  0.12876886  1
  In  In71  1  0.84449214  0.66288215  0.62011088  1
  In  In72  1  0.32970628  0.00127924  0.24449989  1
  In  In73  1  0.33457813  0.33927750  0.75138988  1
  In  In74  1  0.84220045  0.49859912  0.00479002  1
  In  In75  1  0.83545362  0.83533845  0.50233664  1
  In  In76  1  -0.00190062  0.33483351  0.75423185  1
  In  In77  1  0.00016613  0.66625391  0.75019229  1
  In  In78  1  0.67289792  0.00449623  0.23394084  1
  In  In79  1  0.00447215  0.00085139  0.75734094  1
  In  In80  1  0.83389917  0.83459926  -0.00224217  1
  In  In81  1  0.66210993  0.66197113  0.75044132  1
  In  In82  1  0.33737509  0.00031545  0.75850028  1
  In  In83  1  0.66998421  -0.00117094  0.75157996  1
  In  In84  1  0.66711577  0.66641990  0.24594062  1
  In  In85  1  0.49457869  0.16372812  0.49766913  1
  Cu  Cu86  1  0.83733366  0.17000844  0.24698671  1
  Cu  Cu87  1  0.00036340  -0.00210429  0.00546707  1
  Cu  Cu88  1  0.32761819  0.66015986  0.49560560  1
  Cu  Cu89  1  0.83073946  0.49700864  0.74811205  1
  Cu  Cu90  1  0.50620213  0.17521085  0.76064486  1
  Cu  Cu91  1  0.66651440  0.33564351  0.00388685  1
  Cu  Cu92  1  0.16789398  0.17024789  0.75449639  1
  Cu  Cu93  1  0.66825085  0.33450083  0.49746466  1
  Cu  Cu94  1  0.83032643  0.16970053  0.74914494  1
  Cu  Cu95  1  0.49193208  0.82569425  0.74975186  1
  Cu  Cu96  1  0.84185983  0.83491925  0.25085613  1
  Cu  Cu97  1  0.17078978  0.50346637  0.75186917  1
  Cu  Cu98  1  0.32609792  0.66675063  0.00555940  1
  Cu  Cu99  1  0.49874211  0.50219944  0.24985916  1
  Cu  Cu100  1  -0.00007615  0.33579730  0.48900267  1
  Cu  Cu101  1  0.32771304  0.00372905  0.00670295  1
  Cu  Cu102  1  0.16932478  0.83165264  0.25145195  1
  Cu  Cu103  1  0.16738061  0.82124715  0.74897813  1
  Cu  Cu104  1  0.49922473  0.83455865  0.24262684  1
  Cu  Cu105  1  0.00108240  0.66382600  0.49114596  1
  Cu  Cu106  1  0.33077108  -0.01190989  0.49572805  1
  Cu  Cu107  1  0.15975084  0.17039650  0.24741235  1
  Cu  Cu108  1  0.66503728  0.00076977  0.49882635  1
  Cu  Cu109  1  0.65703339  0.66379464  0.49799275  1
  Cu  Cu110  1  0.00418331  0.00758166  0.49447927  1
  Cu  Cu111  1  0.83386645  0.49409679  0.25119898  1
  Cu  Cu112  1  0.33675510  0.34786924  0.00877479  1
  Cu  Cu113  1  0.32691511  0.33257551  0.49133837  1
  Cu  Cu114  1  0.49721475  0.17625927  0.24717808  1
  Se  Se115  1  0.08235218  0.08274478  0.05815128  1
  Se  Se116  1  0.08678832  0.08845053  0.55232612  1
  Se  Se117  1  0.07677995  0.40938196  0.05241077  1
  Se  Se118  1  0.08488421  0.41768622  0.54347472  1
  Se  Se119  1  0.09316717  0.75160520  0.06588178  1
  Se  Se120  1  0.08441679  0.74675586  0.54592261  1
  Se  Se121  1  0.41565297  0.08832658  0.05244096  1
  Se  Se122  1  0.40671886  0.07048123  0.56044915  1
  Se  Se123  1  0.41966542  0.42791735  0.06444858  1
  Se  Se124  1  0.41014109  0.40852319  0.55120419  1
  Se  Se125  1  0.41352602  0.75366422  0.05200341  1
  Se  Se126  1  0.41021756  0.74284094  0.55301535  1
  Se  Se127  1  0.72356147  0.05687188  0.06130819  1
  Se  Se128  1  0.75050348  0.08705205  0.54572892  1
  Se  Se129  1  0.74897381  0.41224869  0.06552678  1
  Se  Se130  1  0.75066219  0.41862740  0.55199718  1
  Se  Se131  1  0.74788478  0.73838913  0.05644490  1
  Se  Se132  1  0.73985502  0.74359243  0.55882132  1
  Se  Se133  1  0.25343974  0.26116692  0.05906349  1
  Se  Se134  1  0.24717236  0.24575380  0.54534200  1
  Se  Se135  1  0.25123572  0.58193623  0.06423979  1
  Se  Se136  1  0.24466914  0.57647419  0.55050027  1
  Se  Se137  1  0.24750006  0.91529089  0.05690987  1
  Se  Se138  1  0.24499345  0.91195301  0.55365733  1
  Se  Se139  1  0.58035448  0.25606854  0.05845334  1
  Se  Se140  1  0.58609976  0.25225606  0.55802028  1
  Se  Se141  1  0.59085859  0.58888784  0.04657155  1
  Se  Se142  1  0.57671237  0.58022523  0.55384871  1
  Se  Se143  1  0.57396184  0.90246827  0.04123721  1
  Se  Se144  1  0.58054791  0.91524297  0.54725043  1
  Se  Se145  1  0.89723483  0.23112038  0.05803047  1
  Se  Se146  1  0.91909970  0.25590677  0.54963581  1
  Se  Se147  1  0.93007278  0.58711716  0.06557860  1
  Se  Se148  1  0.91487797  0.58327436  0.54453589  1
  Se  Se149  1  0.92440720  0.91308094  0.06616792  1
  Se  Se150  1  0.92785431  0.92838398  0.56104959  1
  Se  Se151  1  0.08392260  0.25468159  0.43466736  1
  Se  Se152  1  0.08736516  0.24700858  0.96014809  1
  Se  Se153  1  0.08266216  0.58009380  0.43711231  1
  Se  Se154  1  0.08396504  0.58014056  0.95652551  1
  Se  Se155  1  0.08485534  0.91764826  0.44646354  1
  Se  Se156  1  0.08371276  0.91590935  0.95078981  1
  Se  Se157  1  0.41276886  0.25409328  0.43321340  1
  Se  Se158  1  0.41667717  0.26009141  0.95421920  1
  Se  Se159  1  0.41303960  0.57586465  0.44480767  1
  Se  Se160  1  0.41111264  0.58764277  0.94865237  1
  Se  Se161  1  0.41713889  0.90645026  0.44605873  1
  Se  Se162  1  0.40279616  0.92339130  0.94293466  1
  Se  Se163  1  0.75260689  0.25146723  0.44535340  1
  Se  Se164  1  0.75109234  0.25131797  0.95167802  1
  Se  Se165  1  0.74767579  0.58366612  0.45002320  1
  Se  Se166  1  0.75036044  0.58458243  0.94088103  1
  Se  Se167  1  0.74397561  0.92016192  0.43630004  1
  Se  Se168  1  0.74376303  0.92154283  0.93552641  1
  Se  Se169  1  0.25221717  0.08077917  0.44799095  1
  Se  Se170  1  0.24478280  0.09000543  0.95441058  1
  Se  Se171  1  0.24646628  0.41514621  0.43606091  1
  Se  Se172  1  0.25148209  0.42416574  0.95091299  1
  Se  Se173  1  0.24443018  0.74679664  0.44493009  1
  Se  Se174  1  0.24617847  0.75343559  0.95046552  1
  Se  Se175  1  0.58605769  0.07681283  0.43374561  1
  Se  Se176  1  0.58075805  0.08699128  0.95434652  1
  Se  Se177  1  0.58034984  0.41683949  0.44776586  1
  Se  Se178  1  0.58581136  0.42036383  0.95025926  1
  Se  Se179  1  0.57300285  0.74766260  0.44706208  1
  Se  Se180  1  0.58266470  0.74898433  0.94956209  1
  Se  Se181  1  0.91800943  0.09067815  0.44522268  1
  Se  Se182  1  0.91203683  0.07869948  0.95436641  1
  Se  Se183  1  0.91853227  0.41947868  0.43485523  1
  Se  Se184  1  0.92450977  0.40144931  0.94401811  1
  Se  Se185  1  0.91889662  0.74906124  0.43531633  1
  Se  Se186  1  0.92991969  0.73877985  0.94594514  1
  Se  Se187  1  0.24802247  0.25125992  0.29740090  1
  Se  Se188  1  0.24611666  0.24960081  0.81506649  1
  Se  Se189  1  0.27330559  0.60637767  0.30174748  1
  Se  Se190  1  0.25058614  0.58641711  0.80631041  1
  Se  Se191  1  0.24867922  0.91426675  0.31277928  1
  Se  Se192  1  0.24012731  0.90898404  0.80957060  1
  Se  Se193  1  0.58576269  0.25452314  0.29904896  1
  Se  Se194  1  0.59024935  0.25809418  0.80980587  1
  Se  Se195  1  0.58243130  0.57951867  0.31186859  1
  Se  Se196  1  0.57668973  0.57841622  0.81505453  1
  Se  Se197  1  0.58142449  0.91573128  0.29993761  1
  Se  Se198  1  0.57255209  0.90843500  0.80684836  1
  Se  Se199  1  0.91906165  0.25480212  0.30033468  1
  Se  Se200  1  0.91275810  0.24064123  0.81379113  1
  Se  Se201  1  0.91473695  0.58279932  0.30088268  1
  Se  Se202  1  0.91199647  0.57061813  0.81026438  1
  Se  Se203  1  0.92178176  0.92153810  0.30248597  1
  Se  Se204  1  0.90890870  0.90388399  0.80414860  1
  Se  Se205  1  0.08251649  0.08332360  0.30238742  1
  Se  Se206  1  0.08921625  0.09464394  0.81731383  1
  Se  Se207  1  0.10867687  0.44362139  0.29043002  1
  Se  Se208  1  0.09432873  0.42118226  0.81192378  1
  Se  Se209  1  0.08441353  0.74726986  0.30334643  1
  Se  Se210  1  0.08865708  0.74939989  0.81453816  1
  Se  Se211  1  0.42110954  0.09204936  0.30686188  1
  Se  Se212  1  0.42503916  0.09399106  0.81692529  1
  Se  Se213  1  0.41482498  0.41792924  0.30199019  1
  Se  Se214  1  0.42441087  0.42260442  0.81281870  1
  Se  Se215  1  0.42195920  0.75255521  0.30086756  1
  Se  Se216  1  0.41130065  0.74262642  0.80327900  1
  Se  Se217  1  0.75463823  0.08800953  0.30679764  1
  Se  Se218  1  0.75384309  0.09126879  0.81322393  1
  Se  Se219  1  0.74586482  0.41478638  0.30345404  1
  Se  Se220  1  0.74914268  0.41215564  0.79968795  1
  Se  Se221  1  0.75615198  0.75859558  0.30935727  1
  Se  Se222  1  0.75796651  0.75675546  0.80265370  1
  Se  Se223  1  0.24265586  0.09323576  0.18553260  1
  Se  Se224  1  0.24690618  0.09052876  0.69445266  1
  Se  Se225  1  0.23531022  0.42341056  0.20461833  1
  Se  Se226  1  0.24124400  0.42005017  0.68752483  1
  Se  Se227  1  0.25494577  0.74768103  0.20260868  1
  Se  Se228  1  0.24966838  0.73897132  0.69559496  1
  Se  Se229  1  0.57233054  0.09341486  0.18602419  1
  Se  Se230  1  0.57750713  0.09333017  0.69441771  1
  Se  Se231  1  0.58535815  0.41965604  0.20013102  1
  Se  Se232  1  0.58479793  0.41742987  0.69880375  1
  Se  Se233  1  0.57860685  0.75285742  0.18352073  1
  Se  Se234  1  0.57526903  0.75302914  0.68652430  1
  Se  Se235  1  0.92039855  0.08313377  0.19771766  1
  Se  Se236  1  0.91486907  0.09080854  0.69193573  1
  Se  Se237  1  0.92086115  0.41430542  0.19810431  1
  Se  Se238  1  0.91576613  0.42305283  0.68693006  1
  Se  Se239  1  0.92349009  0.74390907  0.20521907  1
  Se  Se240  1  0.90902121  0.75965998  0.69227463  1
  Se  Se241  1  0.07921504  0.25477245  0.19367237  1
  Se  Se242  1  0.09117826  0.24839121  0.69151632  1
  Se  Se243  1  0.09404891  0.56870097  0.20553052  1
  Se  Se244  1  0.08626164  0.57476825  0.68850347  1
  Se  Se245  1  0.08555900  0.92199511  0.20588181  1
  Se  Se246  1  0.09068874  0.90837194  0.69215889  1
  Se  Se247  1  0.41024838  0.26008970  0.19964619  1
  Se  Se248  1  0.42396767  0.24286388  0.69337659  1
  Se  Se249  1  0.42040190  0.58865431  0.19581409  1
  Se  Se250  1  0.41406014  0.57217957  0.69836786  1
  Se  Se251  1  0.42366758  0.91840386  0.18262174  1
  Se  Se252  1  0.41766653  0.91148978  0.68927097  1
  Se  Se253  1  0.74618259  0.24925876  0.19760875  1
  Se  Se254  1  0.74927659  0.25264566  0.69487424  1
  Se  Se255  1  0.75702617  0.57402531  0.18712925  1
  Se  Se256  1  0.75554664  0.57842649  0.68642553  1
  Se  Se257  1  0.76309849  0.90541569  0.18401411  1
  Se  Se258  1  0.76243628  0.90937904  0.69165422  1
