# generated using pymatgen
data_In86Cu29Se144
_symmetry_space_group_name_H-M   'P 1'
_cell_length_a   17.58852220
_cell_length_b   17.58318047
_cell_length_c   23.44301274
_cell_angle_alpha   90.00658429
_cell_angle_beta   89.99208285
_cell_angle_gamma   90.02817691
_symmetry_Int_Tables_number   1
_chemical_formula_structural   In86Cu29Se144
_chemical_formula_sum   'In86 Cu29 Se144'
_cell_volume   7250.03576613
_cell_formula_units_Z   1
loop_
 _symmetry_equiv_pos_site_id
 _symmetry_equiv_pos_as_xyz
  1  'x, y, z'
loop_
 _atom_site_type_symbol
 _atom_site_label
 _atom_site_symmetry_multiplicity
 _atom_site_fract_x
 _atom_site_fract_y
 _atom_site_fract_z
 _atom_site_occupancy
  In  In0  1  0.01064068  0.15966762  0.12950847  1
  In  In1  1  0.00379165  0.16628890  0.62123520  1
  In  In2  1  0.00052370  0.49783264  0.12334517  1
  In  In3  1  -0.00088407  0.49093892  0.63027479  1
  In  In4  1  -0.01257399  0.84212807  0.12611359  1
  In  In5  1  -0.00404087  0.84872771  0.63046277  1
  In  In6  1  0.33097781  0.16814274  0.12241195  1
  In  In7  1  0.33382657  0.17489743  0.62995992  1
  In  In8  1  0.32049833  0.49145261  0.11595740  1
  In  In9  1  0.34031691  0.48492482  0.63683291  1
  In  In10  1  0.34338583  0.83005298  0.12107239  1
  In  In11  1  0.32666285  0.83058866  0.63359985  1
  In  In12  1  0.66517361  0.18884540  0.12134891  1
  In  In13  1  0.67633065  0.15270811  0.62444511  1
  In  In14  1  0.65084871  0.47260707  0.10205237  1
  In  In15  1  0.67119068  0.51325368  0.62998645  1
  In  In16  1  0.66581186  0.83099501  0.11668144  1
  In  In17  1  0.66878841  0.82376239  0.62588782  1
  In  In18  1  0.17632037  0.01330832  0.36876089  1
  In  In19  1  0.15904664  0.02530466  0.87268019  1
  In  In20  1  0.15585816  0.32476062  0.36591174  1
  In  In21  1  0.16897003  0.33385383  0.87065336  1
  In  In22  1  0.15960416  0.67915328  0.37147093  1
  In  In23  1  0.17159908  0.64029547  0.87382318  1
  In  In24  1  0.49714805  0.01723198  0.37212391  1
  In  In25  1  0.50554396  -0.00266706  0.88576996  1
  In  In26  1  0.50586516  0.33458668  0.36898017  1
  In  In27  1  0.48975526  0.34700238  0.89237075  1
  In  In28  1  0.48905670  0.65623135  0.37656905  1
  In  In29  1  0.50060318  0.66646254  0.87329316  1
  In  In30  1  0.84063016  -0.01168326  0.38525645  1
  In  In31  1  0.83864208  -0.00762348  0.87192208  1
  In  In32  1  0.83086757  0.32939483  0.36823817  1
  In  In33  1  0.84922677  0.32756871  0.87956001  1
  In  In34  1  0.84256894  0.66487510  0.37416166  1
  In  In35  1  0.82323088  0.67701767  0.87816820  1
  In  In36  1  0.00209271  0.16693043  0.37316583  1
  In  In37  1  0.01776170  0.19154926  0.85102492  1
  In  In38  1  -0.00340123  0.50098847  0.36374805  1
  In  In39  1  0.01281141  0.48322166  0.88464224  1
  In  In40  1  -0.00894640  0.82981602  0.36890519  1
  In  In41  1  -0.01841568  0.83578206  0.87023955  1
  In  In42  1  0.32650293  0.16375480  0.36804667  1
  In  In43  1  0.31660307  0.18128230  0.88271161  1
  In  In44  1  0.34853925  0.49725461  0.37536818  1
  In  In45  1  0.33373562  0.49747781  0.87255887  1
  In  In46  1  0.31813995  0.83851171  0.37359502  1
  In  In47  1  0.35250813  0.83069432  0.87362404  1
  In  In48  1  0.66556928  0.17838075  0.37601239  1
  In  In49  1  0.66911787  0.15869292  0.88020774  1
  In  In50  1  0.66340207  0.48384468  0.37335486  1
  In  In51  1  0.65410859  0.50683845  0.88950939  1
  In  In52  1  0.67737285  0.84467278  0.37782204  1
  In  In53  1  0.67414364  0.82748911  0.87611175  1
  In  In54  1  0.15697918  0.00995310  0.12733441  1
  In  In55  1  0.15339849  0.00390101  0.62757723  1
  In  In56  1  0.16830278  0.33264035  0.12548052  1
  In  In57  1  0.18101473  0.31676206  0.64476769  1
  In  In58  1  0.16619962  0.65246896  0.11996235  1
  In  In59  1  0.16957455  0.67047711  0.63616847  1
  In  In60  1  0.49249054  -0.00546103  0.11832978  1
  In  In61  1  0.50432138  -0.00460862  0.63000593  1
  In  In62  1  0.49562353  0.32927459  0.12060970  1
  In  In63  1  0.48387852  0.33172438  0.63056158  1
  In  In64  1  0.49973471  0.66233612  0.11462064  1
  In  In65  1  0.51542239  0.65693321  0.63740114  1
  In  In66  1  0.84747860  0.00376874  0.12448028  1
  In  In67  1  0.84427963  0.01224739  0.61049238  1
  In  In68  1  0.82764685  0.34068502  0.12949909  1
  In  In69  1  0.84959406  0.32384081  0.63063784  1
  In  In70  1  0.83652493  0.66698481  0.11828430  1
  In  In71  1  0.81808874  0.66552690  0.63019832  1
  In  In72  1  0.66945939  0.66100479  0.23603767  1
  In  In73  1  0.67092873  0.33409148  0.75853973  1
  In  In74  1  0.66728952  0.01024532  0.25265620  1
  In  In75  1  0.83701162  0.16414384  -0.00102755  1
  In  In76  1  0.33044442  0.00126576  0.75341105  1
  In  In77  1  0.50682931  0.17197158  0.49632870  1
  In  In78  1  0.67564594  -0.00604355  0.75447268  1
  In  In79  1  0.16546299  0.83701597  0.50411225  1
  In  In80  1  0.16561334  0.83187219  -0.00194729  1
  In  In81  1  0.16408959  0.49720202  0.50050704  1
  In  In82  1  0.00086223  0.66348661  0.75543427  1
  In  In83  1  0.83028928  0.49837954  0.50190710  1
  In  In84  1  0.32389905  0.66445552  0.24648646  1
  In  In85  1  0.50429489  0.83137876  0.50627130  1
  Cu  Cu86  1  0.66409942  0.33617117  0.49948988  1
  Cu  Cu87  1  -0.00235436  0.66429266  -0.00679837  1
  Cu  Cu88  1  0.49015879  0.84205674  0.24638235  1
  Cu  Cu89  1  0.33881507  0.66254001  -0.00523228  1
  Cu  Cu90  1  0.15747907  0.84145683  0.24908466  1
  Cu  Cu91  1  0.32963700  0.33389021  0.00080816  1
  Cu  Cu92  1  0.66893420  0.67048437  -0.00218139  1
  Cu  Cu93  1  0.83435573  0.49908052  0.24495911  1
  Cu  Cu94  1  0.16439921  0.49795954  0.24345341  1
  Cu  Cu95  1  0.82961179  0.50692312  0.75703957  1
  Cu  Cu96  1  0.83561888  0.83495867  0.24799459  1
  Cu  Cu97  1  0.49481329  0.16987202  0.75974246  1
  Cu  Cu98  1  0.33956831  0.65610576  0.50665125  1
  Cu  Cu99  1  0.00150163  0.32429038  0.49898040  1
  Cu  Cu100  1  0.32782548  0.33406624  0.50601242  1
  Cu  Cu101  1  0.33665161  0.00730006  0.49490987  1
  Cu  Cu102  1  0.17491006  0.82725406  0.75695821  1
  Cu  Cu103  1  0.50186059  0.49774275  0.75932645  1
  Cu  Cu104  1  0.66336614  -0.00112870  0.00007054  1
  Cu  Cu105  1  -0.00702933  0.67350406  0.49896922  1
  Cu  Cu106  1  0.00458727  0.00419391  0.49771751  1
  Cu  Cu107  1  0.49426163  0.17134733  0.24601055  1
  Cu  Cu108  1  0.66166834  0.66513692  0.50503732  1
  Cu  Cu109  1  0.84080199  0.17054993  0.24846797  1
  Cu  Cu110  1  0.16904092  0.17049072  0.24718245  1
  Cu  Cu111  1  0.50076403  0.49222021  0.24353716  1
  Cu  Cu112  1  0.00771556  0.32952019  0.00145403  1
  Cu  Cu113  1  -0.00158761  0.00298916  -0.00081250  1
  Cu  Cu114  1  0.33375894  0.00417369  -0.00299997  1
  Se  Se115  1  0.08375065  0.08629518  0.04974846  1
  Se  Se116  1  0.08978795  0.08590040  0.54981672  1
  Se  Se117  1  0.08763887  0.41684762  0.05544348  1
  Se  Se118  1  0.07929338  0.40476623  0.56047842  1
  Se  Se119  1  0.07385410  0.74461142  0.05880133  1
  Se  Se120  1  0.07688465  0.74349749  0.56287197  1
  Se  Se121  1  0.41636801  0.08634295  0.05293351  1
  Se  Se122  1  0.41714396  0.08063794  0.56003668  1
  Se  Se123  1  0.41541719  0.41817003  0.05204767  1
  Se  Se124  1  0.41529569  0.41605331  0.55555798  1
  Se  Se125  1  0.41838769  0.74916296  0.04838682  1
  Se  Se126  1  0.41258752  0.74328942  0.56549857  1
  Se  Se127  1  0.74266105  0.07816211  0.06291620  1
  Se  Se128  1  0.75227987  0.08907562  0.54575262  1
  Se  Se129  1  0.76665574  0.41844200  0.04855575  1
  Se  Se130  1  0.74503047  0.40857392  0.56565702  1
  Se  Se131  1  0.75387467  0.75263471  0.05119196  1
  Se  Se132  1  0.75070762  0.74672830  0.55247065  1
  Se  Se133  1  0.24615207  0.24929836  0.05353111  1
  Se  Se134  1  0.24762192  0.24921630  0.55904419  1
  Se  Se135  1  0.24983278  0.58291461  0.04612611  1
  Se  Se136  1  0.25169784  0.58394549  0.56503620  1
  Se  Se137  1  0.25342425  0.92308502  0.05903019  1
  Se  Se138  1  0.26120696  0.92762205  0.56040025  1
  Se  Se139  1  0.58211575  0.25613108  0.04801817  1
  Se  Se140  1  0.58935886  0.25782800  0.56609111  1
  Se  Se141  1  0.58463505  0.58337060  0.04728272  1
  Se  Se142  1  0.58150105  0.57877617  0.55637174  1
  Se  Se143  1  0.57976330  0.91357949  0.05192493  1
  Se  Se144  1  0.59512567  0.92726727  0.55776022  1
  Se  Se145  1  0.92453817  0.25191385  0.06303571  1
  Se  Se146  1  0.91365205  0.24495171  0.55098317  1
  Se  Se147  1  0.91952224  0.58128220  0.05249090  1
  Se  Se148  1  0.92144525  0.58894131  0.56211397  1
  Se  Se149  1  0.91283022  0.91862525  0.04836356  1
  Se  Se150  1  0.92407047  0.91478445  0.54838639  1
  Se  Se151  1  0.08824225  0.24650565  0.44432720  1
  Se  Se152  1  0.08329720  0.24848745  0.93985536  1
  Se  Se153  1  0.07328249  0.59206803  0.44074369  1
  Se  Se154  1  0.08689309  0.57797336  0.95105528  1
  Se  Se155  1  0.08273539  0.92091194  0.43552521  1
  Se  Se156  1  0.07750651  0.92172632  0.93698905  1
  Se  Se157  1  0.40873677  0.25701556  0.44071084  1
  Se  Se158  1  0.41337312  0.24662531  0.95076200  1
  Se  Se159  1  0.42175120  0.57439995  0.45284001  1
  Se  Se160  1  0.42066232  0.57828459  0.94146895  1
  Se  Se161  1  0.41361623  0.92020819  0.43984655  1
  Se  Se162  1  0.41710649  0.91456731  0.95084158  1
  Se  Se163  1  0.74999320  0.25804189  0.44512883  1
  Se  Se164  1  0.74533560  0.25723193  0.94439012  1
  Se  Se165  1  0.73981363  0.58718188  0.43877398  1
  Se  Se166  1  0.75358439  0.58529370  0.94809984  1
  Se  Se167  1  0.75114282  0.91537607  0.45391086  1
  Se  Se168  1  0.74861604  0.92285459  0.94284246  1
  Se  Se169  1  0.25033802  0.08985359  0.44609017  1
  Se  Se170  1  0.24428718  0.08638481  0.95026276  1
  Se  Se171  1  0.25373726  0.41022298  0.43810973  1
  Se  Se172  1  0.24955629  0.41583379  0.94256055  1
  Se  Se173  1  0.25846740  0.73815792  0.44792117  1
  Se  Se174  1  0.25465974  0.74291870  0.93675691  1
  Se  Se175  1  0.59677331  0.07445435  0.44334414  1
  Se  Se176  1  0.58192815  0.08811807  0.95224698  1
  Se  Se177  1  0.57730505  0.41543605  0.44688072  1
  Se  Se178  1  0.59102765  0.40880414  0.95645564  1
  Se  Se179  1  0.58775057  0.74232363  0.43667421  1
  Se  Se180  1  0.58370351  0.75099060  0.94299328  1
  Se  Se181  1  0.91965031  0.08584632  0.44402009  1
  Se  Se182  1  0.92729343  0.08471395  0.93371394  1
  Se  Se183  1  0.92488504  0.41338523  0.44165068  1
  Se  Se184  1  0.91928164  0.41285858  0.95352686  1
  Se  Se185  1  0.91097918  0.75515501  0.44516560  1
  Se  Se186  1  0.91476102  0.75339532  0.94684567  1
  Se  Se187  1  0.25297452  0.25476749  0.30031206  1
  Se  Se188  1  0.24333522  0.24275911  0.80142107  1
  Se  Se189  1  0.23982752  0.57399819  0.31297909  1
  Se  Se190  1  0.25495737  0.57658235  0.79874550  1
  Se  Se191  1  0.24847918  0.91979150  0.29946501  1
  Se  Se192  1  0.24378512  0.91383489  0.81976618  1
  Se  Se193  1  0.58381098  0.24784031  0.30009044  1
  Se  Se194  1  0.57698977  0.24808107  0.81837985  1
  Se  Se195  1  0.57717923  0.57787470  0.30299920  1
  Se  Se196  1  0.58892434  0.58147622  0.80747262  1
  Se  Se197  1  0.57498028  0.91246959  0.30862630  1
  Se  Se198  1  0.57656568  0.91113124  0.81009630  1
  Se  Se199  1  0.92345244  0.25432100  0.30312825  1
  Se  Se200  1  0.90754821  0.25454873  0.79619932  1
  Se  Se201  1  0.91382218  0.58691155  0.29762959  1
  Se  Se202  1  0.91568858  0.57658439  0.82043205  1
  Se  Se203  1  0.91391574  0.92148162  0.30280637  1
  Se  Se204  1  0.91750445  0.92032959  0.79569517  1
  Se  Se205  1  0.08508066  0.08631228  0.30148936  1
  Se  Se206  1  0.06728271  0.07356057  0.79609305  1
  Se  Se207  1  0.08059218  0.41655177  0.29953838  1
  Se  Se208  1  0.07732879  0.41138446  0.80390222  1
  Se  Se209  1  0.07751948  0.75129252  0.29883949  1
  Se  Se210  1  0.09168793  0.75171739  0.81839765  1
  Se  Se211  1  0.41312564  0.08445643  0.29827634  1
  Se  Se212  1  0.41824889  0.08603459  0.81861459  1
  Se  Se213  1  0.41706165  0.41365525  0.30069806  1
  Se  Se214  1  0.41960603  0.40897217  0.80716695  1
  Se  Se215  1  0.41716298  0.75588745  0.30791886  1
  Se  Se216  1  0.41714855  0.74364120  0.80139660  1
  Se  Se217  1  0.76176927  0.09255217  0.31319667  1
  Se  Se218  1  0.76213681  0.09462705  0.80692083  1
  Se  Se219  1  0.75042603  0.41718151  0.30077097  1
  Se  Se220  1  0.75510414  0.42529475  0.82063487  1
  Se  Se221  1  0.75121676  0.75320392  0.30435744  1
  Se  Se222  1  0.76142681  0.76255028  0.80187498  1
  Se  Se223  1  0.24965363  0.08438360  0.19347668  1
  Se  Se224  1  0.24043965  0.09070403  0.69486673  1
  Se  Se225  1  0.25284119  0.41577153  0.19582679  1
  Se  Se226  1  0.24565232  0.42046992  0.70426100  1
  Se  Se227  1  0.23683950  0.75958840  0.18703785  1
  Se  Se228  1  0.25786776  0.74315412  0.70626633  1
  Se  Se229  1  0.57803264  0.09139650  0.18634067  1
  Se  Se230  1  0.57668016  0.09152813  0.69941289  1
  Se  Se231  1  0.58455332  0.41128714  0.18938092  1
  Se  Se232  1  0.58021137  0.41955716  0.69341804  1
  Se  Se233  1  0.57027207  0.75811451  0.18983236  1
  Se  Se234  1  0.58158283  0.75918047  0.69800615  1
  Se  Se235  1  0.92146790  0.08209985  0.19881148  1
  Se  Se236  1  0.93202573  0.06994842  0.68713756  1
  Se  Se237  1  0.92130000  0.41490070  0.19560116  1
  Se  Se238  1  0.90786604  0.42338248  0.70032749  1
  Se  Se239  1  0.91300583  0.74871214  0.19265982  1
  Se  Se240  1  0.91326188  0.75116909  0.69241800  1
  Se  Se241  1  0.08325427  0.25348176  0.19604666  1
  Se  Se242  1  0.05988520  0.26664267  0.69184143  1
  Se  Se243  1  0.08171821  0.58469665  0.19435064  1
  Se  Se244  1  0.09091169  0.57140586  0.69678004  1
  Se  Se245  1  0.07494108  0.92220298  0.19284690  1
  Se  Se246  1  0.09463176  0.90789277  0.69931882  1
  Se  Se247  1  0.41081527  0.25376896  0.19274635  1
  Se  Se248  1  0.41158307  0.25081681  0.70534656  1
  Se  Se249  1  0.41862161  0.57757128  0.18811136  1
  Se  Se250  1  0.42149796  0.57772227  0.69912647  1
  Se  Se251  1  0.40769721  0.92284258  0.19324908  1
  Se  Se252  1  0.42506831  0.90821783  0.69828906  1
  Se  Se253  1  0.75174823  0.25047158  0.19819540  1
  Se  Se254  1  0.75402367  0.24165970  0.69470523  1
  Se  Se255  1  0.75139221  0.56593456  0.17801512  1
  Se  Se256  1  0.74401943  0.58952680  0.70724294  1
  Se  Se257  1  0.75087824  0.91415534  0.19042677  1
  Se  Se258  1  0.75921342  0.91954606  0.68110522  1
