# generated using pymatgen
data_In86Cu29Se144
_symmetry_space_group_name_H-M   'P 1'
_cell_length_a   17.58749865
_cell_length_b   17.58745870
_cell_length_c   23.45345484
_cell_angle_alpha   89.98672609
_cell_angle_beta   90.01410175
_cell_angle_gamma   90.00030870
_symmetry_Int_Tables_number   1
_chemical_formula_structural   In86Cu29Se144
_chemical_formula_sum   'In86 Cu29 Se144'
_cell_volume   7254.60830832
_cell_formula_units_Z   1
loop_
 _symmetry_equiv_pos_site_id
 _symmetry_equiv_pos_as_xyz
  1  'x, y, z'
loop_
 _atom_site_type_symbol
 _atom_site_label
 _atom_site_symmetry_multiplicity
 _atom_site_fract_x
 _atom_site_fract_y
 _atom_site_fract_z
 _atom_site_occupancy
  In  In0  1  -0.00229076  0.15993248  0.11635875  1
  In  In1  1  -0.00631593  0.15201827  0.61880946  1
  In  In2  1  -0.00088501  0.51787980  0.12609192  1
  In  In3  1  0.01336321  0.49472172  0.62204181  1
  In  In4  1  0.00389305  0.81835731  0.12490732  1
  In  In5  1  -0.00420225  0.85134403  0.64342708  1
  In  In6  1  0.33112595  0.16531038  0.13259491  1
  In  In7  1  0.32382530  0.15493883  0.61870939  1
  In  In8  1  0.31426644  0.51392727  0.15363974  1
  In  In9  1  0.33252831  0.52295014  0.61947125  1
  In  In10  1  0.32647255  0.84236998  0.13061475  1
  In  In11  1  0.33403086  0.82248211  0.63053411  1
  In  In12  1  0.66836475  0.15775697  0.12612499  1
  In  In13  1  0.66475998  0.15467074  0.61910928  1
  In  In14  1  0.68195371  0.50235728  0.12355035  1
  In  In15  1  0.67437024  0.50532962  0.62300181  1
  In  In16  1  0.66593375  0.84229216  0.13174683  1
  In  In17  1  0.66631488  0.83655047  0.62264375  1
  In  In18  1  0.18056579  -0.00105465  0.37583805  1
  In  In19  1  0.17085210  0.00121441  0.87542196  1
  In  In20  1  0.17435361  0.32607953  0.38097859  1
  In  In21  1  0.15323455  0.32955359  0.87896283  1
  In  In22  1  0.16442576  0.65650350  0.36685008  1
  In  In23  1  0.18132356  0.69036723  0.85406608  1
  In  In24  1  0.50083994  -0.00392054  0.37901046  1
  In  In25  1  0.49583567  -0.00437848  0.86648445  1
  In  In26  1  0.48902606  0.33272693  0.37567287  1
  In  In27  1  0.50427377  0.32788042  0.87609066  1
  In  In28  1  0.50643014  0.67283416  0.36549358  1
  In  In29  1  0.50452415  0.68025574  0.86875182  1
  In  In30  1  0.82808543  0.00073461  0.37968526  1
  In  In31  1  0.83192749  0.00707538  0.86917849  1
  In  In32  1  0.82325992  0.32621888  0.37500877  1
  In  In33  1  0.84218471  0.32970908  0.88060976  1
  In  In34  1  0.83652643  0.67798486  0.36725055  1
  In  In35  1  0.83795716  0.67173323  0.87221472  1
  In  In36  1  0.00009289  0.16354709  0.38509737  1
  In  In37  1  0.00263976  0.16092271  0.87813339  1
  In  In38  1  -0.00010105  0.51518346  0.37383932  1
  In  In39  1  -0.00499472  0.50513662  0.87799380  1
  In  In40  1  -0.00165628  0.81827212  0.37623157  1
  In  In41  1  0.01960021  0.85268547  0.85492777  1
  In  In42  1  0.33584201  0.16360427  0.37900962  1
  In  In43  1  0.33340856  0.14863718  0.87558805  1
  In  In44  1  0.32756475  0.48807198  0.35832386  1
  In  In45  1  0.32046760  0.51084892  0.87737671  1
  In  In46  1  0.33962707  0.84548216  0.37006164  1
  In  In47  1  0.32740910  0.83766410  0.87004942  1
  In  In48  1  0.67585290  0.14769095  0.38289127  1
  In  In49  1  0.67796165  0.16011758  0.87580250  1
  In  In50  1  0.65497604  0.51813232  0.37200832  1
  In  In51  1  0.67222202  0.51930113  0.87437504  1
  In  In52  1  0.66283284  0.83158565  0.37906851  1
  In  In53  1  0.67392874  0.84130370  0.86639434  1
  In  In54  1  0.17967800  0.00488285  0.11179397  1
  In  In55  1  0.15918367  -0.00044036  0.63599234  1
  In  In56  1  0.17911614  0.33299168  0.12970366  1
  In  In57  1  0.16467671  0.33338666  0.61551891  1
  In  In58  1  0.15956040  0.67029129  0.13186405  1
  In  In59  1  0.17002680  0.67033296  0.62584329  1
  In  In60  1  0.50134432  0.00112672  0.13140403  1
  In  In61  1  0.49896698  -0.00473877  0.62149969  1
  In  In62  1  0.48966243  0.32447132  0.13222349  1
  In  In63  1  0.50891689  0.32674939  0.62011833  1
  In  In64  1  0.49731402  0.66486943  0.13726624  1
  In  In65  1  0.49376635  0.68182609  0.62496316  1
  In  In66  1  0.81746654  0.00175003  0.11811130  1
  In  In67  1  0.83708895  -0.00126480  0.62780261  1
  In  In68  1  0.82826203  0.33047094  0.11659637  1
  In  In69  1  0.84681912  0.31938834  0.62437760  1
  In  In70  1  0.84741427  0.66950100  0.12980514  1
  In  In71  1  0.82289605  0.67747370  0.62973086  1
  In  In72  1  0.49720006  0.83987249  0.00484359  1
  In  In73  1  0.49989544  0.16528126  0.00744847  1
  In  In74  1  0.49685507  0.49958055  0.01513786  1
  In  In75  1  0.00563823  0.33784379  0.25014151  1
  In  In76  1  0.84066082  0.83932631  -0.00562806  1
  In  In77  1  -0.00081477  0.33309070  0.75480297  1
  In  In78  1  0.16366636  0.83480779  0.50383071  1
  In  In79  1  0.65580717  0.34104448  0.25625511  1
  In  In80  1  0.33573200  0.33903951  0.75288687  1
  In  In81  1  0.83625546  0.49297087  0.49801386  1
  In  In82  1  0.49232385  0.49924314  0.48933971  1
  In  In83  1  -0.00284560  -0.01186500  0.25237618  1
  In  In84  1  0.66804216  0.33141438  0.73979486  1
  In  In85  1  0.15809298  0.49951598  0.00812077  1
  Cu  Cu86  1  0.82722452  0.16115442  0.25217498  1
  Cu  Cu87  1  0.16986337  0.83092793  0.25070425  1
  Cu  Cu88  1  0.66495883  -0.00630156  0.50185837  1
  Cu  Cu89  1  0.32718058  0.32660428  0.00957960  1
  Cu  Cu90  1  0.66803966  0.31761777  0.49784069  1
  Cu  Cu91  1  0.66136955  0.67390898  0.50030584  1
  Cu  Cu92  1  0.17386625  0.16354273  0.25201516  1
  Cu  Cu93  1  0.33675538  0.00175492  0.49918390  1
  Cu  Cu94  1  0.00051239  -0.00173003  0.50800825  1
  Cu  Cu95  1  0.00359881  -0.00323121  -0.00856104  1
  Cu  Cu96  1  0.83611255  0.51090892  0.24820451  1
  Cu  Cu97  1  0.50175152  0.83790297  0.25282411  1
  Cu  Cu98  1  -0.00447073  0.66781829  0.49907684  1
  Cu  Cu99  1  0.32797790  0.66925566  0.49737316  1
  Cu  Cu100  1  -0.00619848  0.32746626  0.00028511  1
  Cu  Cu101  1  0.00606898  0.66869536  -0.00191923  1
  Cu  Cu102  1  0.00749294  0.32712135  0.50075268  1
  Cu  Cu103  1  0.50246474  0.83572065  0.74508415  1
  Cu  Cu104  1  0.33253047  0.66808653  -0.00340339  1
  Cu  Cu105  1  0.49869292  0.15716367  0.74342729  1
  Cu  Cu106  1  0.82662327  0.50476107  0.75154378  1
  Cu  Cu107  1  0.82873014  0.83209699  0.74889310  1
  Cu  Cu108  1  0.16281563  0.16396611  0.75071974  1
  Cu  Cu109  1  0.67118760  0.34238398  -0.00214478  1
  Cu  Cu110  1  0.17185756  0.51180714  0.74441959  1
  Cu  Cu111  1  0.33231314  0.33276626  0.49541441  1
  Cu  Cu112  1  0.67986172  0.67162982  -0.00244560  1
  Cu  Cu113  1  0.49622933  0.51536012  0.75057441  1
  Cu  Cu114  1  0.49642505  0.15940951  0.25516992  1
  Se  Se115  1  0.08357037  0.08067503  0.04917806  1
  Se  Se116  1  0.09167942  0.07813674  0.55610414  1
  Se  Se117  1  0.07064086  0.40426806  0.06629987  1
  Se  Se118  1  0.08816136  0.42011713  0.54547667  1
  Se  Se119  1  0.09108966  0.74812903  0.05247356  1
  Se  Se120  1  0.06913893  0.75029667  0.56291576  1
  Se  Se121  1  0.40692339  0.07283204  0.05983947  1
  Se  Se122  1  0.42020784  0.08520944  0.55316601  1
  Se  Se123  1  0.39868818  0.41319299  0.06933053  1
  Se  Se124  1  0.40912651  0.41261905  0.56077038  1
  Se  Se125  1  0.41244599  0.74127240  0.06121621  1
  Se  Se126  1  0.41086121  0.75256610  0.55033258  1
  Se  Se127  1  0.75303540  0.09685857  0.05009045  1
  Se  Se128  1  0.75359448  0.07536904  0.55340719  1
  Se  Se129  1  0.75724127  0.42466340  0.04869011  1
  Se  Se130  1  0.74464125  0.40056179  0.55918666  1
  Se  Se131  1  0.75215511  0.75409739  0.06033934  1
  Se  Se132  1  0.74951537  0.75235878  0.55248107  1
  Se  Se133  1  0.24535087  0.24040535  0.05945639  1
  Se  Se134  1  0.25176181  0.24977099  0.55235827  1
  Se  Se135  1  0.25899971  0.58590706  0.06120520  1
  Se  Se136  1  0.24114663  0.58804850  0.54845482  1
  Se  Se137  1  0.24584506  0.90199529  0.05082410  1
  Se  Se138  1  0.25574409  0.92339346  0.56193704  1
  Se  Se139  1  0.59123856  0.26483948  0.06029193  1
  Se  Se140  1  0.58123364  0.23977099  0.55095783  1
  Se  Se141  1  0.59366309  0.59846975  0.05930655  1
  Se  Se142  1  0.58284722  0.58511615  0.55571000  1
  Se  Se143  1  0.59339976  0.93115400  0.05647268  1
  Se  Se144  1  0.57818589  0.91025863  0.55159867  1
  Se  Se145  1  0.91007713  0.24316398  0.05201168  1
  Se  Se146  1  0.92020119  0.24309223  0.54901357  1
  Se  Se147  1  0.91839730  0.59034683  0.05122602  1
  Se  Se148  1  0.91798554  0.58550868  0.56149188  1
  Se  Se149  1  0.92841247  0.92425114  0.06160258  1
  Se  Se150  1  0.92014769  0.91131240  0.55952728  1
  Se  Se151  1  0.09093743  0.24262139  0.44870312  1
  Se  Se152  1  0.08096284  0.24574776  0.95008350  1
  Se  Se153  1  0.08268035  0.58929571  0.44653568  1
  Se  Se154  1  0.09055434  0.59218400  0.93719568  1
  Se  Se155  1  0.07513962  0.92341804  0.43858910  1
  Se  Se156  1  0.08723892  0.91170011  0.94208545  1
  Se  Se157  1  0.41924645  0.24769474  0.44886949  1
  Se  Se158  1  0.40892425  0.25647880  0.94437696  1
  Se  Se159  1  0.40504279  0.59152412  0.43241487  1
  Se  Se160  1  0.41924068  0.58896660  0.94217177  1
  Se  Se161  1  0.41715432  0.91320747  0.44909109  1
  Se  Se162  1  0.40746188  0.92561192  0.94268221  1
  Se  Se163  1  0.75765228  0.23875674  0.44780809  1
  Se  Se164  1  0.74711837  0.25379687  0.94380503  1
  Se  Se165  1  0.74443963  0.58822809  0.44519162  1
  Se  Se166  1  0.76138682  0.58725154  0.94586062  1
  Se  Se167  1  0.74930213  0.91272930  0.44717679  1
  Se  Se168  1  0.74187748  0.92761608  0.94291932  1
  Se  Se169  1  0.24895922  0.08416827  0.44942341  1
  Se  Se170  1  0.24286843  0.08984075  0.94708400  1
  Se  Se171  1  0.25584154  0.42152310  0.44207100  1
  Se  Se172  1  0.25296409  0.40935556  0.94568236  1
  Se  Se173  1  0.24938401  0.75132975  0.43599496  1
  Se  Se174  1  0.25180618  0.74890776  0.94082432  1
  Se  Se175  1  0.58115467  0.07966258  0.45027240  1
  Se  Se176  1  0.58088706  0.07887703  0.93912875  1
  Se  Se177  1  0.59568475  0.40844005  0.43997752  1
  Se  Se178  1  0.58561116  0.42034445  0.94158142  1
  Se  Se179  1  0.57277832  0.74982067  0.44634558  1
  Se  Se180  1  0.59425781  0.75270600  0.94353478  1
  Se  Se181  1  0.91683690  0.07731289  0.44891941  1
  Se  Se182  1  0.91442650  0.07960300  0.94417991  1
  Se  Se183  1  0.92766404  0.40408438  0.43626317  1
  Se  Se184  1  0.91892624  0.41896749  0.94767668  1
  Se  Se185  1  0.90919457  0.74946643  0.44837516  1
  Se  Se186  1  0.93396800  0.75414376  0.93565397  1
  Se  Se187  1  0.25308304  0.24652455  0.30815817  1
  Se  Se188  1  0.24207417  0.24854710  0.80943140  1
  Se  Se189  1  0.25750319  0.58927008  0.29875941  1
  Se  Se190  1  0.26040444  0.58960197  0.79712246  1
  Se  Se191  1  0.25103210  0.92030353  0.29962522  1
  Se  Se192  1  0.23485458  0.90911068  0.80157795  1
  Se  Se193  1  0.58125729  0.23733070  0.31545661  1
  Se  Se194  1  0.57709790  0.24217592  0.80250585  1
  Se  Se195  1  0.57252206  0.57810683  0.29542159  1
  Se  Se196  1  0.58584288  0.59140701  0.80361483  1
  Se  Se197  1  0.58555981  0.91876628  0.30787128  1
  Se  Se198  1  0.58497893  0.91889997  0.79976618  1
  Se  Se199  1  0.91272890  0.24169986  0.30719895  1
  Se  Se200  1  0.90746457  0.23822680  0.80588818  1
  Se  Se201  1  0.92061235  0.59193849  0.30139664  1
  Se  Se202  1  0.91582785  0.58126293  0.80427863  1
  Se  Se203  1  0.90534927  0.90292533  0.31189174  1
  Se  Se204  1  0.91047298  0.91951119  0.80061099  1
  Se  Se205  1  0.08621518  0.08663996  0.30942591  1
  Se  Se206  1  0.08194404  0.08196072  0.80638749  1
  Se  Se207  1  0.09059892  0.42218079  0.31470086  1
  Se  Se208  1  0.09469244  0.43058134  0.80633944  1
  Se  Se209  1  0.08412329  0.74937759  0.30310055  1
  Se  Se210  1  0.05435247  0.72480443  0.80755104  1
  Se  Se211  1  0.41395991  0.07687203  0.30979132  1
  Se  Se212  1  0.41215197  0.07964360  0.79859522  1
  Se  Se213  1  0.43147948  0.41822293  0.29975851  1
  Se  Se214  1  0.42597101  0.43106031  0.81456752  1
  Se  Se215  1  0.41467827  0.75494507  0.30256424  1
  Se  Se216  1  0.41715281  0.75798804  0.80318026  1
  Se  Se217  1  0.74734515  0.07459509  0.30322031  1
  Se  Se218  1  0.73931977  0.07697003  0.79975358  1
  Se  Se219  1  0.75721205  0.43144382  0.31008261  1
  Se  Se220  1  0.75251319  0.41732405  0.80996997  1
  Se  Se221  1  0.72139320  0.72755649  0.31243481  1
  Se  Se222  1  0.74845307  0.74651777  0.80310702  1
  Se  Se223  1  0.24785436  0.07512344  0.19600436  1
  Se  Se224  1  0.25067541  0.08442095  0.69842977  1
  Se  Se225  1  0.24943389  0.40479100  0.20751526  1
  Se  Se226  1  0.24735593  0.42389734  0.68677026  1
  Se  Se227  1  0.25299178  0.74779771  0.19629155  1
  Se  Se228  1  0.24301703  0.75181227  0.69871583  1
  Se  Se229  1  0.58436152  0.08549231  0.19857770  1
  Se  Se230  1  0.58440962  0.07683321  0.69145319  1
  Se  Se231  1  0.57835838  0.42580565  0.18515054  1
  Se  Se232  1  0.57125473  0.43035072  0.69038703  1
  Se  Se233  1  0.58327062  0.75568088  0.19633918  1
  Se  Se234  1  0.58663964  0.75052388  0.69359835  1
  Se  Se235  1  0.91234409  0.08576737  0.19268734  1
  Se  Se236  1  0.93041216  0.07157516  0.69559802  1
  Se  Se237  1  0.90728436  0.42042651  0.19000559  1
  Se  Se238  1  0.90856448  0.42484194  0.69183877  1
  Se  Se239  1  0.91974557  0.75565197  0.20029490  1
  Se  Se240  1  0.91493756  0.74924583  0.69771110  1
  Se  Se241  1  0.08627203  0.23665960  0.19204307  1
  Se  Se242  1  0.08735338  0.24747192  0.68981455  1
  Se  Se243  1  0.09604264  0.56903823  0.19658710  1
  Se  Se244  1  0.08088453  0.58566184  0.69150640  1
  Se  Se245  1  0.09266797  0.91207979  0.18803122  1
  Se  Se246  1  0.10606518  0.89973664  0.70751293  1
  Se  Se247  1  0.41296676  0.24525068  0.20451891  1
  Se  Se248  1  0.41968378  0.24662473  0.68986701  1
  Se  Se249  1  0.42198208  0.58089965  0.20671216  1
  Se  Se250  1  0.41415323  0.59389980  0.69373413  1
  Se  Se251  1  0.41704187  0.91843905  0.19735161  1
  Se  Se252  1  0.41540567  0.91584516  0.69245973  1
  Se  Se253  1  0.75140996  0.25126617  0.19691276  1
  Se  Se254  1  0.75994053  0.23532097  0.69031285  1
  Se  Se255  1  0.75195943  0.59121728  0.19348033  1
  Se  Se256  1  0.74392137  0.58693423  0.69731627  1
  Se  Se257  1  0.75710343  0.91968378  0.19546733  1
  Se  Se258  1  0.74843691  0.91652896  0.69354409  1
