# generated using pymatgen
data_In86Cu29Se144
_symmetry_space_group_name_H-M   'P 1'
_cell_length_a   17.59590521
_cell_length_b   17.59369519
_cell_length_c   23.44576212
_cell_angle_alpha   89.99312818
_cell_angle_beta   90.00165812
_cell_angle_gamma   90.01190189
_symmetry_Int_Tables_number   1
_chemical_formula_structural   In86Cu29Se144
_chemical_formula_sum   'In86 Cu29 Se144'
_cell_volume   7258.26831970
_cell_formula_units_Z   1
loop_
 _symmetry_equiv_pos_site_id
 _symmetry_equiv_pos_as_xyz
  1  'x, y, z'
loop_
 _atom_site_type_symbol
 _atom_site_label
 _atom_site_symmetry_multiplicity
 _atom_site_fract_x
 _atom_site_fract_y
 _atom_site_fract_z
 _atom_site_occupancy
  In  In0  1  -0.00662585  0.16296821  0.09836593  1
  In  In1  1  0.01169690  0.17456880  0.61818994  1
  In  In2  1  -0.01617078  0.47950213  0.09198168  1
  In  In3  1  -0.00438776  0.49617536  0.63041751  1
  In  In4  1  -0.00688097  0.84930637  0.11019807  1
  In  In5  1  -0.01318382  0.82880061  0.63208106  1
  In  In6  1  0.33143898  0.17560003  0.13797099  1
  In  In7  1  0.33255766  0.15850374  0.61448295  1
  In  In8  1  0.33280506  0.49013062  0.12395208  1
  In  In9  1  0.32676327  0.49403748  0.61295585  1
  In  In10  1  0.34952771  0.83381587  0.12516458  1
  In  In11  1  0.34790786  0.83909822  0.62041457  1
  In  In12  1  0.67043913  0.16776180  0.13344061  1
  In  In13  1  0.65940818  0.15789046  0.61744981  1
  In  In14  1  0.65788972  0.49407226  0.12540886  1
  In  In15  1  0.66204658  0.49238105  0.61667019  1
  In  In16  1  0.66726982  0.84683688  0.11688215  1
  In  In17  1  0.66619007  0.84542025  0.62852377  1
  In  In18  1  0.17932501  0.00836883  0.38111042  1
  In  In19  1  0.18119422  0.00269376  0.87200646  1
  In  In20  1  0.17722871  0.32190669  0.38172362  1
  In  In21  1  0.14221114  0.35278350  0.90025546  1
  In  In22  1  0.15753655  0.66009878  0.37674112  1
  In  In23  1  0.14863399  0.66625216  0.87559931  1
  In  In24  1  0.50039164  0.00056706  0.37649461  1
  In  In25  1  0.49827412  -0.00100096  0.87231924  1
  In  In26  1  0.49996052  0.33639589  0.36893330  1
  In  In27  1  0.50796968  0.33593736  0.87942043  1
  In  In28  1  0.50056832  0.66441088  0.38296725  1
  In  In29  1  0.50528424  0.66415230  0.88127562  1
  In  In30  1  0.83317650  0.01696524  0.37396632  1
  In  In31  1  0.82475433  0.01205650  0.89065298  1
  In  In32  1  0.83413977  0.33219025  0.37671947  1
  In  In33  1  0.84994031  0.32404142  0.88906040  1
  In  In34  1  0.82224682  0.66239822  0.37422733  1
  In  In35  1  0.85002799  0.65612145  0.89157301  1
  In  In36  1  -0.00305300  0.16734161  0.38879240  1
  In  In37  1  -0.00484085  0.17534969  0.88601489  1
  In  In38  1  0.00297237  0.49249576  0.38300067  1
  In  In39  1  -0.00266880  0.50227086  0.87874608  1
  In  In40  1  0.00015621  0.83314095  0.37396412  1
  In  In41  1  -0.00232430  0.82064996  0.87570561  1
  In  In42  1  0.33398393  0.16592193  0.37516111  1
  In  In43  1  0.32743689  0.15696461  0.87038998  1
  In  In44  1  0.34347479  0.48393743  0.37951474  1
  In  In45  1  0.33438566  0.49576969  0.88168846  1
  In  In46  1  0.34227666  0.85458911  0.37036627  1
  In  In47  1  0.33199263  0.84910933  0.87250455  1
  In  In48  1  0.66896017  0.16635239  0.37271049  1
  In  In49  1  0.67826156  0.16191885  0.87950688  1
  In  In50  1  0.67175758  0.49332391  0.37627782  1
  In  In51  1  0.66874695  0.50173280  0.88484834  1
  In  In52  1  0.65121056  0.83241039  0.37501234  1
  In  In53  1  0.66355705  0.84547214  0.88656980  1
  In  In54  1  0.17077699  0.01904570  0.12300052  1
  In  In55  1  0.17132675  0.02180745  0.62172656  1
  In  In56  1  0.16740550  0.33431471  0.11871359  1
  In  In57  1  0.15922006  0.32569078  0.62123349  1
  In  In58  1  0.16925853  0.65378204  0.11999698  1
  In  In59  1  0.16087340  0.65377630  0.62843727  1
  In  In60  1  0.50669410  -0.00302046  0.13419495  1
  In  In61  1  0.50172660  0.00112163  0.62340635  1
  In  In62  1  0.49831161  0.34628930  0.14530051  1
  In  In63  1  0.49584377  0.32836421  0.61040735  1
  In  In64  1  0.49520061  0.66685090  0.11933142  1
  In  In65  1  0.49617553  0.66217887  0.61510341  1
  In  In66  1  0.81468406  -0.00241145  0.10373675  1
  In  In67  1  0.82210779  -0.00526477  0.62686950  1
  In  In68  1  0.82525621  0.32199229  0.11424090  1
  In  In69  1  0.83637345  0.33905807  0.62505390  1
  In  In70  1  0.83357589  0.65932350  0.11095551  1
  In  In71  1  0.84349031  0.66252503  0.63335112  1
  In  In72  1  -0.00077342  -0.00029608  0.74837842  1
  In  In73  1  0.32991351  0.66066749  0.24467445  1
  In  In74  1  0.00043141  0.33171642  0.23722487  1
  In  In75  1  0.32797574  0.67033471  0.74934516  1
  In  In76  1  0.67194283  0.32736369  0.75531754  1
  In  In77  1  0.32523160  0.32174186  0.74273941  1
  In  In78  1  0.83017611  0.83101659  0.50944349  1
  In  In79  1  -0.00239848  0.66150608  0.23045014  1
  In  In80  1  0.67286133  0.67069672  0.75528447  1
  In  In81  1  0.17000965  0.83811288  0.50019063  1
  In  In82  1  0.50655113  0.16597936  0.00507202  1
  In  In83  1  0.66180605  0.66738150  0.25383367  1
  In  In84  1  -0.00237527  0.00889176  0.23923058  1
  In  In85  1  0.16915587  0.83290605  -0.00725002  1
  Cu  Cu86  1  -0.00475081  0.34027148  0.50457276  1
  Cu  Cu87  1  0.33784663  0.32455956  0.00983569  1
  Cu  Cu88  1  0.16530958  0.17405900  0.74823351  1
  Cu  Cu89  1  0.83349373  0.49990505  0.25281057  1
  Cu  Cu90  1  0.33960093  0.00088071  -0.00133559  1
  Cu  Cu91  1  0.66224338  0.34409439  0.00420276  1
  Cu  Cu92  1  0.83206881  0.83241921  0.75920652  1
  Cu  Cu93  1  0.66953505  0.32801162  0.49280575  1
  Cu  Cu94  1  0.16971376  0.48850349  0.24575184  1
  Cu  Cu95  1  0.33606452  0.33760701  0.49351757  1
  Cu  Cu96  1  -0.00334808  0.65700190  0.50483394  1
  Cu  Cu97  1  0.49928389  0.83975614  0.25130180  1
  Cu  Cu98  1  0.66397018  0.67365695  0.00235714  1
  Cu  Cu99  1  0.50201804  0.16639425  0.25735839  1
  Cu  Cu100  1  0.50384222  0.15134000  0.74524580  1
  Cu  Cu101  1  0.83947536  0.49705544  0.75527908  1
  Cu  Cu102  1  0.16752121  0.16772144  0.25177372  1
  Cu  Cu103  1  0.66438837  -0.00187409  0.49942502  1
  Cu  Cu104  1  0.49600500  0.49416921  0.74641299  1
  Cu  Cu105  1  0.15272118  0.49698946  0.75440211  1
  Cu  Cu106  1  0.32720326  0.66821247  0.49838123  1
  Cu  Cu107  1  0.82992164  0.16918496  0.24540852  1
  Cu  Cu108  1  0.16821217  0.83703080  0.25200734  1
  Cu  Cu109  1  0.16642817  0.83645884  0.75380870  1
  Cu  Cu110  1  0.82812457  0.84726835  0.23880657  1
  Cu  Cu111  1  0.66563544  0.65925887  0.49826060  1
  Cu  Cu112  1  0.50378455  0.84007336  0.75024492  1
  Cu  Cu113  1  0.33610949  0.66125319  0.00083053  1
  Cu  Cu114  1  0.83781804  0.16478186  0.75840468  1
  Se  Se115  1  0.07315380  0.05973639  0.04906835  1
  Se  Se116  1  0.08283492  0.08398140  0.54953458  1
  Se  Se117  1  0.09103258  0.40784752  0.04201564  1
  Se  Se118  1  0.08139340  0.42036271  0.55885373  1
  Se  Se119  1  0.08309651  0.74688861  0.05818180  1
  Se  Se120  1  0.07462092  0.74667443  0.55958674  1
  Se  Se121  1  0.41121980  0.08190562  0.06479548  1
  Se  Se122  1  0.43627495  0.09599973  0.55427957  1
  Se  Se123  1  0.42367179  0.40814067  0.06031826  1
  Se  Se124  1  0.42016046  0.42230022  0.54683236  1
  Se  Se125  1  0.41672176  0.75108969  0.04922377  1
  Se  Se126  1  0.41492051  0.74889914  0.54943996  1
  Se  Se127  1  0.75366814  0.11208296  0.05262106  1
  Se  Se128  1  0.75122984  0.07818628  0.55260120  1
  Se  Se129  1  0.75043196  0.42455042  0.05584573  1
  Se  Se130  1  0.74850566  0.41034693  0.55258114  1
  Se  Se131  1  0.74899917  0.75457976  0.05509036  1
  Se  Se132  1  0.73994699  0.73623091  0.56664663  1
  Se  Se133  1  0.25201827  0.24029034  0.05839192  1
  Se  Se134  1  0.25704938  0.25855520  0.55544638  1
  Se  Se135  1  0.25533000  0.57581452  0.05302975  1
  Se  Se136  1  0.24388158  0.58677015  0.55249741  1
  Se  Se137  1  0.25763318  0.91971979  0.05891419  1
  Se  Se138  1  0.25974270  0.92930471  0.55707443  1
  Se  Se139  1  0.58447684  0.26337324  0.06655895  1
  Se  Se140  1  0.58569379  0.24677501  0.54820782  1
  Se  Se141  1  0.58507425  0.58564780  0.05649900  1
  Se  Se142  1  0.57917053  0.57640577  0.55028671  1
  Se  Se143  1  0.56562399  0.91375936  0.05539145  1
  Se  Se144  1  0.58332605  0.91333630  0.55391233  1
  Se  Se145  1  0.93506893  0.27876765  0.04861280  1
  Se  Se146  1  0.91529940  0.25230349  0.55671502  1
  Se  Se147  1  0.93600516  0.60238719  0.04603968  1
  Se  Se148  1  0.91101828  0.57805749  0.55903060  1
  Se  Se149  1  0.91272390  0.92664297  0.04111649  1
  Se  Se150  1  0.92599870  0.92463696  0.55937695  1
  Se  Se151  1  0.07932712  0.25781689  0.44986174  1
  Se  Se152  1  0.11087579  0.22280389  0.94403997  1
  Se  Se153  1  0.08368146  0.57938235  0.45018475  1
  Se  Se154  1  0.09338584  0.57255331  0.94654646  1
  Se  Se155  1  0.07584998  0.92443306  0.44031613  1
  Se  Se156  1  0.08127107  0.92329214  0.93311498  1
  Se  Se157  1  0.41863301  0.25418446  0.44007924  1
  Se  Se158  1  0.41221500  0.24990291  0.94041906  1
  Se  Se159  1  0.41033665  0.58316090  0.44563362  1
  Se  Se160  1  0.42080587  0.57899117  0.94639092  1
  Se  Se161  1  0.42494588  0.91314099  0.44717144  1
  Se  Se162  1  0.41957675  0.91640959  0.94512651  1
  Se  Se163  1  0.75598038  0.24352939  0.44369976  1
  Se  Se164  1  0.74018077  0.26039393  0.94673624  1
  Se  Se165  1  0.75244615  0.57868547  0.44687416  1
  Se  Se166  1  0.74777161  0.58658802  0.95241189  1
  Se  Se167  1  0.74692361  0.91590639  0.44007469  1
  Se  Se168  1  0.75656942  0.91379591  0.95439644  1
  Se  Se169  1  0.24480395  0.09960945  0.44954133  1
  Se  Se170  1  0.25301692  0.08267139  0.94866388  1
  Se  Se171  1  0.24415914  0.42126385  0.44743540  1
  Se  Se172  1  0.26031969  0.40979184  0.95185375  1
  Se  Se173  1  0.25427247  0.74903545  0.43323612  1
  Se  Se174  1  0.26089464  0.73960547  0.93385053  1
  Se  Se175  1  0.58708641  0.08369473  0.44292006  1
  Se  Se176  1  0.59139389  0.07367212  0.94526730  1
  Se  Se177  1  0.58445219  0.41360252  0.44276222  1
  Se  Se178  1  0.57646905  0.42401185  0.95023116  1
  Se  Se179  1  0.58379351  0.74847042  0.45009906  1
  Se  Se180  1  0.57959604  0.75391802  0.94812378  1
  Se  Se181  1  0.91574234  0.07784960  0.45039923  1
  Se  Se182  1  0.90590604  0.10112397  0.95285859  1
  Se  Se183  1  0.91042135  0.41851491  0.44769805  1
  Se  Se184  1  0.90597721  0.43191115  0.94939480  1
  Se  Se185  1  0.92074963  0.74107029  0.44332880  1
  Se  Se186  1  0.92100907  0.75453605  0.95427415  1
  Se  Se187  1  0.25167306  0.25039294  0.30357487  1
  Se  Se188  1  0.23701803  0.25326517  0.81551248  1
  Se  Se189  1  0.24051671  0.57390993  0.30781310  1
  Se  Se190  1  0.24409081  0.57411968  0.80891659  1
  Se  Se191  1  0.24579723  0.92344271  0.30466368  1
  Se  Se192  1  0.25481445  0.92228548  0.79615179  1
  Se  Se193  1  0.58856342  0.25207431  0.30453333  1
  Se  Se194  1  0.57479539  0.23518937  0.81000843  1
  Se  Se195  1  0.57380736  0.57472310  0.31030520  1
  Se  Se196  1  0.57765982  0.57197747  0.80560963  1
  Se  Se197  1  0.58528029  0.92112646  0.30314024  1
  Se  Se198  1  0.58796943  0.91697489  0.80688385  1
  Se  Se199  1  0.91836602  0.24218021  0.30491121  1
  Se  Se200  1  0.92019031  0.25070294  0.80835820  1
  Se  Se201  1  0.91779886  0.58111334  0.30776276  1
  Se  Se202  1  0.91658506  0.58667705  0.80742956  1
  Se  Se203  1  0.91292792  0.91486783  0.30393668  1
  Se  Se204  1  0.91106886  0.91841431  0.81559948  1
  Se  Se205  1  0.08187598  0.09066567  0.31027209  1
  Se  Se206  1  0.08824651  0.08922639  0.80819081  1
  Se  Se207  1  0.08653486  0.41368625  0.30797008  1
  Se  Se208  1  0.07751373  0.41168649  0.81132332  1
  Se  Se209  1  0.08371391  0.75092685  0.30064410  1
  Se  Se210  1  0.08106227  0.75045446  0.79997242  1
  Se  Se211  1  0.41645254  0.08166674  0.30685467  1
  Se  Se212  1  0.41459120  0.07936956  0.80236057  1
  Se  Se213  1  0.41186858  0.41422105  0.29993789  1
  Se  Se214  1  0.41778222  0.41274964  0.80547694  1
  Se  Se215  1  0.42072252  0.75123804  0.30678497  1
  Se  Se216  1  0.42506581  0.75446456  0.80843976  1
  Se  Se217  1  0.74959220  0.08364555  0.29938613  1
  Se  Se218  1  0.75281416  0.07965884  0.80676400  1
  Se  Se219  1  0.75452503  0.41414253  0.30525878  1
  Se  Se220  1  0.75747616  0.41937444  0.81581210  1
  Se  Se221  1  0.75826787  0.76411156  0.30488438  1
  Se  Se222  1  0.75709613  0.75228867  0.82290974  1
  Se  Se223  1  0.25236210  0.08099955  0.20214530  1
  Se  Se224  1  0.25306182  0.09391218  0.69623277  1
  Se  Se225  1  0.25220824  0.40539818  0.19330211  1
  Se  Se226  1  0.23961892  0.42607079  0.69204311  1
  Se  Se227  1  0.24138607  0.75659522  0.18705446  1
  Se  Se228  1  0.24292804  0.76046339  0.68540727  1
  Se  Se229  1  0.58457781  0.08628938  0.19983755  1
  Se  Se230  1  0.59350178  0.07405792  0.69455850  1
  Se  Se231  1  0.59650401  0.41918961  0.20685033  1
  Se  Se232  1  0.57671661  0.41070571  0.69075133  1
  Se  Se233  1  0.57668198  0.75747333  0.19017267  1
  Se  Se234  1  0.57494551  0.74939925  0.69135837  1
  Se  Se235  1  0.90708696  0.09499794  0.17906303  1
  Se  Se236  1  0.91094505  0.09017086  0.68834277  1
  Se  Se237  1  0.90936611  0.42690635  0.18394881  1
  Se  Se238  1  0.91731148  0.41010346  0.70114810  1
  Se  Se239  1  0.90726864  0.76376944  0.18237493  1
  Se  Se240  1  0.91446019  0.74782101  0.70666696  1
  Se  Se241  1  0.08544777  0.23275537  0.18296753  1
  Se  Se242  1  0.07818390  0.25465792  0.69745638  1
  Se  Se243  1  0.08576200  0.55947434  0.18254714  1
  Se  Se244  1  0.07452818  0.58460348  0.70069911  1
  Se  Se245  1  0.09004906  0.91133035  0.18623885  1
  Se  Se246  1  0.09197362  0.91392556  0.68598020  1
  Se  Se247  1  0.41854865  0.25165680  0.20597987  1
  Se  Se248  1  0.42905029  0.24117922  0.68938685  1
  Se  Se249  1  0.42688620  0.57317356  0.19225303  1
  Se  Se250  1  0.41532022  0.57492126  0.68920198  1
  Se  Se251  1  0.41178341  0.92123005  0.20060036  1
  Se  Se252  1  0.41890216  0.91955087  0.69567144  1
  Se  Se253  1  0.74994849  0.26114220  0.19791865  1
  Se  Se254  1  0.75564194  0.23839698  0.69176435  1
  Se  Se255  1  0.75794875  0.58498705  0.19290601  1
  Se  Se256  1  0.75040553  0.56861232  0.69451911  1
  Se  Se257  1  0.74533515  0.93053361  0.18819039  1
  Se  Se258  1  0.75114623  0.91340680  0.70296120  1
