# generated using pymatgen
data_In86Cu29Se144
_symmetry_space_group_name_H-M   'P 1'
_cell_length_a   17.58705301
_cell_length_b   17.59215147
_cell_length_c   23.44979251
_cell_angle_alpha   90.00129405
_cell_angle_beta   90.00452099
_cell_angle_gamma   90.00504328
_symmetry_Int_Tables_number   1
_chemical_formula_structural   In86Cu29Se144
_chemical_formula_sum   'In86 Cu29 Se144'
_cell_volume   7255.22740519
_cell_formula_units_Z   1
loop_
 _symmetry_equiv_pos_site_id
 _symmetry_equiv_pos_as_xyz
  1  'x, y, z'
loop_
 _atom_site_type_symbol
 _atom_site_label
 _atom_site_symmetry_multiplicity
 _atom_site_fract_x
 _atom_site_fract_y
 _atom_site_fract_z
 _atom_site_occupancy
  In  In0  1  0.01099484  0.17808114  0.12332626  1
  In  In1  1  0.00188078  0.16920063  0.63373344  1
  In  In2  1  0.02085847  0.48731505  0.12569662  1
  In  In3  1  0.00485223  0.48452847  0.62819925  1
  In  In4  1  -0.00261922  0.83157140  0.11837427  1
  In  In5  1  0.02127136  0.84562276  0.61750651  1
  In  In6  1  0.34879260  0.17150001  0.12789855  1
  In  In7  1  0.33216174  0.16504959  0.62732289  1
  In  In8  1  0.33176795  0.49993901  0.12384012  1
  In  In9  1  0.33670738  0.49866115  0.62051718  1
  In  In10  1  0.32390782  0.83126329  0.12212072  1
  In  In11  1  0.33189535  0.82811685  0.63029036  1
  In  In12  1  0.64978434  0.16685559  0.13301405  1
  In  In13  1  0.67404938  0.17179464  0.62037290  1
  In  In14  1  0.66428655  0.51231030  0.12201384  1
  In  In15  1  0.65661848  0.51090042  0.63004613  1
  In  In16  1  0.67806909  0.83103534  0.12769663  1
  In  In17  1  0.65570583  0.82605161  0.61881402  1
  In  In18  1  0.15495361  -0.00550717  0.37703106  1
  In  In19  1  0.14949903  -0.02185494  0.84938456  1
  In  In20  1  0.18090583  0.34224513  0.36984501  1
  In  In21  1  0.17554574  0.33858827  0.86215550  1
  In  In22  1  0.18250957  0.64896800  0.39434791  1
  In  In23  1  0.18123123  0.65661576  0.88431836  1
  In  In24  1  0.51038468  -0.01235271  0.38443814  1
  In  In25  1  0.49251566  0.00909570  0.87074413  1
  In  In26  1  0.46807757  0.36037034  0.40835601  1
  In  In27  1  0.49787487  0.33618802  0.86599248  1
  In  In28  1  0.48374214  0.68121575  0.37723240  1
  In  In29  1  0.48057186  0.64853172  0.86406923  1
  In  In30  1  0.83008533  0.00348353  0.38282737  1
  In  In31  1  0.83923485  -0.01425519  0.87606611  1
  In  In32  1  0.83173825  0.32086831  0.37752235  1
  In  In33  1  0.83685071  0.34182659  0.86835973  1
  In  In34  1  0.84598740  0.67124565  0.38089121  1
  In  In35  1  0.83500341  0.68093377  0.86991622  1
  In  In36  1  -0.00917590  0.16687709  0.37688760  1
  In  In37  1  0.02105804  0.17293528  0.85199644  1
  In  In38  1  0.04138023  0.49406523  0.38824244  1
  In  In39  1  0.01388712  0.50046898  0.87437714  1
  In  In40  1  0.00509404  0.81595459  0.39895742  1
  In  In41  1  -0.00674616  0.83287964  0.87508423  1
  In  In42  1  0.32986041  0.18080940  0.38327534  1
  In  In43  1  0.31893859  0.16274821  0.85396757  1
  In  In44  1  0.32989445  0.50439055  0.37675965  1
  In  In45  1  0.33715665  0.49856475  0.87316430  1
  In  In46  1  0.34408406  0.82275409  0.38203831  1
  In  In47  1  0.30827041  0.81098350  0.84866691  1
  In  In48  1  0.66957550  0.16367615  0.38382152  1
  In  In49  1  0.65392275  0.17361131  0.87107344  1
  In  In50  1  0.66171552  0.48758257  0.37533834  1
  In  In51  1  0.65383747  0.49102060  0.86442136  1
  In  In52  1  0.65491295  0.84620488  0.38193847  1
  In  In53  1  0.68009952  0.83464281  0.87374713  1
  In  In54  1  0.16886408  -0.01052291  0.12267852  1
  In  In55  1  0.18670019  -0.01478180  0.65045884  1
  In  In56  1  0.16412047  0.34901122  0.12729447  1
  In  In57  1  0.16567010  0.33399838  0.62722102  1
  In  In58  1  0.17504219  0.67206956  0.11207416  1
  In  In59  1  0.18337753  0.68497539  0.61910841  1
  In  In60  1  0.50417538  0.01450376  0.13244251  1
  In  In61  1  0.48886780  -0.01072059  0.61679752  1
  In  In62  1  0.48766092  0.33597237  0.12744642  1
  In  In63  1  0.49613812  0.33804258  0.61964859  1
  In  In64  1  0.50047938  0.65322499  0.12119110  1
  In  In65  1  0.49787625  0.66661710  0.62437252  1
  In  In66  1  0.83778389  -0.01287117  0.12854181  1
  In  In67  1  0.84257290  0.00945415  0.62084076  1
  In  In68  1  0.84580490  0.34208270  0.12321540  1
  In  In69  1  0.84389521  0.31859836  0.62856031  1
  In  In70  1  0.82587425  0.67694605  0.12099535  1
  In  In71  1  0.82334062  0.66530368  0.62568442  1
  In  In72  1  0.16301051  0.16633206  0.51248685  1
  In  In73  1  -0.00848755  0.00224405  0.25876793  1
  In  In74  1  0.66053379  0.32059552  0.25702965  1
  In  In75  1  0.65993847  0.66841619  0.24887890  1
  In  In76  1  0.83661067  0.15863770  -0.00117134  1
  In  In77  1  0.49938703  0.82745391  -0.00300087  1
  In  In78  1  0.16916941  0.17015956  -0.00815629  1
  In  In79  1  0.33416645  0.00210313  0.24951289  1
  In  In80  1  0.66719635  0.00188396  0.74825796  1
  In  In81  1  0.00117413  0.66471164  0.25894774  1
  In  In82  1  0.49572267  0.17099452  -0.00165744  1
  In  In83  1  0.83091531  0.49394204  0.50170478  1
  In  In84  1  0.00028398  0.66353714  0.74719416  1
  In  In85  1  0.84047858  0.51353461  -0.00250175  1
  Cu  Cu86  1  0.00175591  -0.00412000  -0.00859527  1
  Cu  Cu87  1  0.83189135  0.16851866  0.25496956  1
  Cu  Cu88  1  0.17100805  0.18077550  0.24776100  1
  Cu  Cu89  1  0.00203022  0.67347069  -0.00292293  1
  Cu  Cu90  1  0.32665822  -0.00268102  0.50663581  1
  Cu  Cu91  1  0.67096894  -0.00531325  0.00492922  1
  Cu  Cu92  1  0.49356267  0.49854883  0.74486982  1
  Cu  Cu93  1  0.49968468  0.83026171  0.74357999  1
  Cu  Cu94  1  0.84657962  0.49761307  0.25038810  1
  Cu  Cu95  1  0.33612103  0.66853058  0.50471533  1
  Cu  Cu96  1  0.32458550  -0.00830771  -0.00774326  1
  Cu  Cu97  1  0.16678414  0.82754133  0.25061168  1
  Cu  Cu98  1  0.83520820  0.83514453  0.74647773  1
  Cu  Cu99  1  0.50237090  0.16743938  0.26306526  1
  Cu  Cu100  1  0.00446252  0.32832059  0.50496520  1
  Cu  Cu101  1  0.33262822  0.33594902  -0.00438828  1
  Cu  Cu102  1  0.66209787  0.66672130  0.50087434  1
  Cu  Cu103  1  0.17540723  0.49940806  0.25171277  1
  Cu  Cu104  1  0.00220714  -0.00067981  0.50540196  1
  Cu  Cu105  1  0.17231711  0.50133066  0.74888690  1
  Cu  Cu106  1  0.66853214  -0.00089258  0.50540913  1
  Cu  Cu107  1  0.82782767  0.49523908  0.74398245  1
  Cu  Cu108  1  0.50434927  0.17527101  0.74183047  1
  Cu  Cu109  1  0.66657878  0.34146778  -0.00843322  1
  Cu  Cu110  1  0.66671437  0.32911562  0.50395204  1
  Cu  Cu111  1  0.83229748  0.16840928  0.74957790  1
  Cu  Cu112  1  0.66493965  0.66794671  -0.00346192  1
  Cu  Cu113  1  0.49290763  0.49483237  0.25267587  1
  Cu  Cu114  1  0.82829899  0.83884089  0.25689135  1
  Se  Se115  1  0.07863289  0.07562095  0.05535458  1
  Se  Se116  1  0.08375785  0.06898977  0.57149895  1
  Se  Se117  1  0.08649075  0.41187109  0.04669079  1
  Se  Se118  1  0.08756120  0.41596482  0.55201292  1
  Se  Se119  1  0.08563567  0.75774503  0.05027312  1
  Se  Se120  1  0.07787618  0.74058589  0.55376231  1
  Se  Se121  1  0.40633742  0.07029387  0.05316170  1
  Se  Se122  1  0.41070916  0.08408695  0.55477222  1
  Se  Se123  1  0.41634124  0.41554480  0.05290933  1
  Se  Se124  1  0.42506547  0.42736294  0.54864602  1
  Se  Se125  1  0.40902437  0.73929242  0.05656710  1
  Se  Se126  1  0.41797241  0.75517867  0.55669887  1
  Se  Se127  1  0.74149122  0.08122365  0.06634711  1
  Se  Se128  1  0.75372956  0.08531256  0.55286063  1
  Se  Se129  1  0.74633656  0.41607353  0.05565851  1
  Se  Se130  1  0.74556436  0.40844834  0.56747058  1
  Se  Se131  1  0.74690191  0.75362200  0.04795913  1
  Se  Se132  1  0.74720206  0.74795776  0.55320763  1
  Se  Se133  1  0.26018019  0.25195172  0.05946275  1
  Se  Se134  1  0.26050443  0.26208817  0.55516204  1
  Se  Se135  1  0.22846108  0.55816732  0.05713936  1
  Se  Se136  1  0.24987489  0.58452492  0.55427740  1
  Se  Se137  1  0.24361787  0.91077222  0.04927313  1
  Se  Se138  1  0.24637560  0.91607184  0.56350096  1
  Se  Se139  1  0.59029103  0.26137792  0.05629183  1
  Se  Se140  1  0.58082186  0.24763508  0.55534194  1
  Se  Se141  1  0.58350310  0.58029972  0.04629957  1
  Se  Se142  1  0.57930066  0.58294458  0.55288629  1
  Se  Se143  1  0.58355685  0.92164491  0.06349339  1
  Se  Se144  1  0.57947298  0.91351036  0.55035993  1
  Se  Se145  1  0.92633276  0.25772266  0.05086989  1
  Se  Se146  1  0.92243847  0.24099377  0.55419969  1
  Se  Se147  1  0.92954389  0.59496080  0.06631149  1
  Se  Se148  1  0.91835781  0.57904700  0.56483127  1
  Se  Se149  1  0.91798668  0.92034990  0.05113267  1
  Se  Se150  1  0.91744340  0.91466365  0.55676920  1
  Se  Se151  1  0.08469822  0.25249970  0.43874045  1
  Se  Se152  1  0.07897651  0.25853587  0.93364203  1
  Se  Se153  1  0.06109213  0.61064969  0.45046268  1
  Se  Se154  1  0.08273798  0.58464698  0.94842504  1
  Se  Se155  1  0.08675480  0.91551314  0.45376414  1
  Se  Se156  1  0.08663246  0.91548789  0.93802131  1
  Se  Se157  1  0.42174849  0.23806070  0.45652540  1
  Se  Se158  1  0.40294560  0.24900907  0.93294113  1
  Se  Se159  1  0.41572559  0.58703873  0.44571312  1
  Se  Se160  1  0.41235135  0.58251083  0.94600611  1
  Se  Se161  1  0.41189350  0.91860936  0.44976674  1
  Se  Se162  1  0.41353473  0.91796266  0.93612866  1
  Se  Se163  1  0.75366021  0.24768348  0.45232329  1
  Se  Se164  1  0.74582871  0.25368093  0.94011842  1
  Se  Se165  1  0.74198932  0.58644488  0.43868652  1
  Se  Se166  1  0.74319234  0.58750036  0.93298447  1
  Se  Se167  1  0.74971111  0.91594172  0.44911093  1
  Se  Se168  1  0.75339038  0.91499534  0.94947148  1
  Se  Se169  1  0.24837001  0.07634382  0.44307342  1
  Se  Se170  1  0.25094186  0.07581823  0.93193609  1
  Se  Se171  1  0.23615326  0.43234679  0.44482944  1
  Se  Se172  1  0.24862994  0.41414118  0.93967786  1
  Se  Se173  1  0.25118078  0.75476467  0.45222393  1
  Se  Se174  1  0.25468678  0.75855937  0.94216821  1
  Se  Se175  1  0.58430526  0.08072019  0.45061365  1
  Se  Se176  1  0.59230155  0.07483819  0.94514886  1
  Se  Se177  1  0.58783321  0.42089207  0.45513770  1
  Se  Se178  1  0.57549135  0.41618888  0.94063742  1
  Se  Se179  1  0.58050643  0.74899302  0.44462350  1
  Se  Se180  1  0.58643655  0.74276775  0.93100175  1
  Se  Se181  1  0.92102101  0.08191966  0.44935255  1
  Se  Se182  1  0.92997412  0.08348043  0.93210176  1
  Se  Se183  1  0.92726761  0.40862502  0.43996175  1
  Se  Se184  1  0.92369176  0.41448282  0.94264490  1
  Se  Se185  1  0.90112769  0.75374034  0.46009586  1
  Se  Se186  1  0.91141118  0.75245022  0.94760020  1
  Se  Se187  1  0.26025980  0.25411204  0.30242596  1
  Se  Se188  1  0.23508253  0.24436102  0.78915235  1
  Se  Se189  1  0.24890474  0.58955285  0.30664493  1
  Se  Se190  1  0.25304938  0.58335643  0.80484736  1
  Se  Se191  1  0.24362295  0.91245860  0.30962091  1
  Se  Se192  1  0.27738939  0.94058816  0.80442506  1
  Se  Se193  1  0.57020670  0.25169180  0.32761975  1
  Se  Se194  1  0.58614916  0.25679942  0.79722768  1
  Se  Se195  1  0.57489842  0.57623988  0.31106328  1
  Se  Se196  1  0.57969089  0.58245112  0.79772029  1
  Se  Se197  1  0.57774140  0.91439916  0.30388200  1
  Se  Se198  1  0.57662093  0.90986283  0.80837119  1
  Se  Se199  1  0.91868625  0.25199868  0.30352351  1
  Se  Se200  1  0.91589966  0.25343566  0.80200393  1
  Se  Se201  1  0.91962368  0.56820447  0.31979531  1
  Se  Se202  1  0.90762210  0.57353518  0.80883100  1
  Se  Se203  1  0.91603965  0.90392749  0.32037669  1
  Se  Se204  1  0.91925120  0.91611195  0.79983012  1
  Se  Se205  1  0.09289612  0.09657998  0.30578506  1
  Se  Se206  1  0.07805804  0.07300863  0.78570690  1
  Se  Se207  1  0.08748248  0.41683050  0.30181356  1
  Se  Se208  1  0.08250471  0.42005852  0.79815391  1
  Se  Se209  1  0.09089823  0.75427015  0.31735359  1
  Se  Se210  1  0.08514176  0.74242293  0.81670935  1
  Se  Se211  1  0.41615226  0.08637142  0.31832476  1
  Se  Se212  1  0.42331959  0.09045399  0.79612950  1
  Se  Se213  1  0.41578376  0.41360726  0.31314356  1
  Se  Se214  1  0.41047288  0.41413573  0.79860381  1
  Se  Se215  1  0.41169621  0.75458225  0.29944362  1
  Se  Se216  1  0.41617378  0.74309040  0.79336685  1
  Se  Se217  1  0.75222357  0.08631971  0.31041324  1
  Se  Se218  1  0.75639815  0.08896872  0.81408366  1
  Se  Se219  1  0.75933739  0.41887116  0.30518756  1
  Se  Se220  1  0.74512441  0.41178036  0.79976218  1
  Se  Se221  1  0.75210666  0.75089848  0.31322319  1
  Se  Se222  1  0.74905676  0.75226077  0.79709490  1
  Se  Se223  1  0.24140105  0.09322656  0.18676707  1
  Se  Se224  1  0.23293814  0.10882656  0.69837366  1
  Se  Se225  1  0.25748533  0.41403189  0.19814686  1
  Se  Se226  1  0.25271020  0.41884533  0.69168126  1
  Se  Se227  1  0.24556919  0.74712257  0.19267038  1
  Se  Se228  1  0.24582417  0.75440157  0.70260753  1
  Se  Se229  1  0.58533021  0.08413523  0.20956822  1
  Se  Se230  1  0.57726288  0.08507634  0.68450610  1
  Se  Se231  1  0.58285276  0.42225918  0.19323223  1
  Se  Se232  1  0.58004904  0.41620028  0.69311016  1
  Se  Se233  1  0.57322026  0.75616824  0.18657861  1
  Se  Se234  1  0.58567575  0.74597397  0.69504738  1
  Se  Se235  1  0.91284593  0.09414909  0.18906519  1
  Se  Se236  1  0.91558514  0.08263288  0.69932668  1
  Se  Se237  1  0.92811184  0.41582325  0.19568894  1
  Se  Se238  1  0.91580959  0.41187618  0.69724723  1
  Se  Se239  1  0.90923211  0.75808953  0.19650224  1
  Se  Se240  1  0.91572871  0.75610654  0.68565636  1
  Se  Se241  1  0.08381635  0.25990211  0.19536833  1
  Se  Se242  1  0.07341961  0.26508669  0.69615851  1
  Se  Se243  1  0.09318925  0.58339278  0.19441983  1
  Se  Se244  1  0.09344753  0.57983927  0.68643860  1
  Se  Se245  1  0.08198647  0.91012594  0.19628889  1
  Se  Se246  1  0.08838260  0.90273596  0.70441174  1
  Se  Se247  1  0.42413447  0.24828509  0.20306177  1
  Se  Se248  1  0.41592968  0.25467217  0.69108235  1
  Se  Se249  1  0.41783594  0.57975442  0.19453155  1
  Se  Se250  1  0.41226363  0.58532316  0.69275701  1
  Se  Se251  1  0.42057338  0.91303428  0.18688458  1
  Se  Se252  1  0.41571995  0.91822392  0.69648822  1
  Se  Se253  1  0.75784973  0.24669087  0.18751999  1
  Se  Se254  1  0.74743446  0.24976583  0.69707082  1
  Se  Se255  1  0.76312388  0.57767198  0.19448662  1
  Se  Se256  1  0.74601300  0.58640319  0.69931999  1
  Se  Se257  1  0.74791344  0.92007245  0.20050901  1
  Se  Se258  1  0.75296600  0.91340591  0.68512711  1
