# generated using pymatgen
data_In86Cu29Se144
_symmetry_space_group_name_H-M   'P 1'
_cell_length_a   17.65505598
_cell_length_b   17.65184429
_cell_length_c   23.51838309
_cell_angle_alpha   90.01062637
_cell_angle_beta   90.01640761
_cell_angle_gamma   89.98012635
_symmetry_Int_Tables_number   1
_chemical_formula_structural   In86Cu29Se144
_chemical_formula_sum   'In86 Cu29 Se144'
_cell_volume   7329.36915006
_cell_formula_units_Z   1
loop_
 _symmetry_equiv_pos_site_id
 _symmetry_equiv_pos_as_xyz
  1  'x, y, z'
loop_
 _atom_site_type_symbol
 _atom_site_label
 _atom_site_symmetry_multiplicity
 _atom_site_fract_x
 _atom_site_fract_y
 _atom_site_fract_z
 _atom_site_occupancy
  In  In0  1  0.00142395  0.15235842  0.13572168  1
  In  In1  1  0.00889985  0.15956224  0.62899318  1
  In  In2  1  0.01270567  0.49990654  0.12317152  1
  In  In3  1  -0.01303960  0.50208031  0.62671694  1
  In  In4  1  -0.00993957  0.84195230  0.13064788  1
  In  In5  1  0.00573206  0.84981023  0.62126128  1
  In  In6  1  0.32904290  0.15858468  0.12688514  1
  In  In7  1  0.33218333  0.16459861  0.61783331  1
  In  In8  1  0.32877585  0.50854397  0.12706518  1
  In  In9  1  0.33470360  0.49876708  0.62476681  1
  In  In10  1  0.33922488  0.82887449  0.13125251  1
  In  In11  1  0.40634530  0.86528726  0.59720346  1
  In  In12  1  0.66574244  0.16937640  0.13233257  1
  In  In13  1  0.66691277  0.16440247  0.62814871  1
  In  In14  1  0.67301054  0.49953996  0.12954012  1
  In  In15  1  0.67602716  0.50021985  0.63127544  1
  In  In16  1  0.66416604  0.83801464  0.12471043  1
  In  In17  1  0.66171153  0.83961239  0.62761161  1
  In  In18  1  0.17305321  0.01407533  0.35918962  1
  In  In19  1  0.17816800  0.01242867  0.87146823  1
  In  In20  1  0.17006570  0.32301987  0.38362023  1
  In  In21  1  0.16344295  0.33045977  0.87948211  1
  In  In22  1  0.16483490  0.66380165  0.36560509  1
  In  In23  1  0.15589984  0.66312595  0.88125607  1
  In  In24  1  0.49248904  -0.00144358  0.37209804  1
  In  In25  1  0.49645509  -0.00460190  0.87853567  1
  In  In26  1  0.51827323  0.22049232  0.38113456  1
  In  In27  1  0.49451739  0.31820710  0.87203122  1
  In  In28  1  0.50941895  0.67743436  0.36856060  1
  In  In29  1  0.51493271  0.66610238  0.87615852  1
  In  In30  1  0.81512061  -0.01609402  0.36027488  1
  In  In31  1  0.82397984  -0.00630773  0.87192528  1
  In  In32  1  0.82574547  0.33935715  0.37674386  1
  In  In33  1  0.82101318  0.31661159  0.86623771  1
  In  In34  1  0.84319194  0.68502283  0.36956060  1
  In  In35  1  0.83118999  0.68440066  0.87999374  1
  In  In36  1  0.00894171  0.16156598  0.37535696  1
  In  In37  1  0.00317514  0.16963176  0.86999495  1
  In  In38  1  -0.00779867  0.50599279  0.37259717  1
  In  In39  1  0.00992680  0.49328311  0.88148187  1
  In  In40  1  -0.00686696  0.83074749  0.37254919  1
  In  In41  1  -0.01138052  0.83470873  0.87705412  1
  In  In42  1  0.33351655  0.16110868  0.38280695  1
  In  In43  1  0.34859331  0.14970629  0.89077288  1
  In  In44  1  0.33057833  0.49682209  0.36744767  1
  In  In45  1  0.33044817  0.48835269  0.88060649  1
  In  In46  1  0.34093538  0.84457886  0.36791097  1
  In  In47  1  0.33499261  0.85220642  0.87520529  1
  In  In48  1  0.63947799  0.12089828  0.30171548  1
  In  In49  1  0.63439421  0.13852900  0.84738614  1
  In  In50  1  0.65752752  0.49927828  0.37016968  1
  In  In51  1  0.66402290  0.49663316  0.86840552  1
  In  In52  1  0.66675201  0.83748404  0.37741938  1
  In  In53  1  0.66598497  0.83466537  0.87642065  1
  In  In54  1  0.16369991  0.01101312  0.13743616  1
  In  In55  1  0.16585870  0.00811612  0.62715188  1
  In  In56  1  0.16495065  0.32898406  0.11864535  1
  In  In57  1  0.17352685  0.31204669  0.62624016  1
  In  In58  1  0.17190372  0.66194520  0.13093594  1
  In  In59  1  0.16768098  0.67819867  0.62733042  1
  In  In60  1  0.50018360  -0.00170782  0.12532137  1
  In  In61  1  0.50011798  0.01876730  0.63873847  1
  In  In62  1  0.51101580  0.32460397  0.12662675  1
  In  In63  1  0.51297196  0.32902959  0.62655450  1
  In  In64  1  0.49246655  0.67392451  0.13174479  1
  In  In65  1  0.51323026  0.68025357  0.62180750  1
  In  In66  1  0.83957251  -0.00485738  0.13370061  1
  In  In67  1  0.83440468  0.00001622  0.62419514  1
  In  In68  1  0.82509445  0.32103966  0.13068145  1
  In  In69  1  0.83661721  0.33518438  0.63171796  1
  In  In70  1  0.81885416  0.68270748  0.13293751  1
  In  In71  1  0.82144438  0.67302580  0.62218942  1
  In  In72  1  0.34407411  0.32781996  0.25838971  1
  In  In73  1  -0.00136493  0.34175921  0.24544522  1
  In  In74  1  0.83723398  0.50079562  0.00016407  1
  In  In75  1  0.16823828  0.83547091  0.00059893  1
  In  In76  1  0.33147170  0.67560395  0.74610692  1
  In  In77  1  0.33425053  0.32748834  0.74730513  1
  In  In78  1  0.16909240  0.84046915  0.49805055  1
  In  In79  1  0.15924204  0.49610052  0.49099532  1
  In  In80  1  0.50132010  0.49120952  0.49975617  1
  In  In81  1  0.49689857  0.49880138  0.00863733  1
  In  In82  1  0.82495866  0.15862100  0.49664306  1
  In  In83  1  -0.00436415  0.67041152  0.75698518  1
  In  In84  1  0.83071570  0.50789542  0.50060248  1
  In  In85  1  0.82873618  0.16224006  0.00258416  1
  Cu  Cu86  1  0.83648116  0.49875948  0.75249675  1
  Cu  Cu87  1  0.50725232  0.50409248  0.74721782  1
  Cu  Cu88  1  0.00074659  0.00170382  0.00620540  1
  Cu  Cu89  1  0.16743880  0.16823752  0.75152548  1
  Cu  Cu90  1  0.66323359  0.32265137  0.49840006  1
  Cu  Cu91  1  0.82946658  0.82835399  0.25008128  1
  Cu  Cu92  1  0.16098261  0.49889891  0.75781672  1
  Cu  Cu93  1  0.66758782  0.67771617  0.00157262  1
  Cu  Cu94  1  0.66199876  -0.00314202  -0.00442787  1
  Cu  Cu95  1  0.83003702  0.83664504  0.75072939  1
  Cu  Cu96  1  0.33489835  0.00249086  0.49829615  1
  Cu  Cu97  1  0.16194601  0.83362351  0.24772283  1
  Cu  Cu98  1  -0.00189128  -0.00038177  0.49957836  1
  Cu  Cu99  1  -0.00123917  0.66840685  0.00164005  1
  Cu  Cu100  1  0.83776857  0.16587343  0.74520918  1
  Cu  Cu101  1  0.50362696  0.83477304  0.24964651  1
  Cu  Cu102  1  0.83164306  0.51378190  0.25202736  1
  Cu  Cu103  1  0.66794140  0.67618134  0.49681723  1
  Cu  Cu104  1  0.33653961  0.00036534  0.00470508  1
  Cu  Cu105  1  0.00488421  0.32682715  0.50505427  1
  Cu  Cu106  1  0.32844579  0.65961061  0.49226739  1
  Cu  Cu107  1  0.16895563  0.50000566  0.24942181  1
  Cu  Cu108  1  0.33146362  0.66595324  0.00789570  1
  Cu  Cu109  1  0.66143892  0.32310658  -0.00200629  1
  Cu  Cu110  1  0.17283127  0.84276891  0.74655464  1
  Cu  Cu111  1  0.00190039  0.32658563  -0.00125637  1
  Cu  Cu112  1  0.32651169  0.32788638  -0.00051058  1
  Cu  Cu113  1  0.50330639  0.83895981  0.74923514  1
  Cu  Cu114  1  0.49455097  0.50396668  0.24913161  1
  Se  Se115  1  0.08293651  0.08239648  0.06022834  1
  Se  Se116  1  0.08268820  0.08145418  0.55292720  1
  Se  Se117  1  0.08229920  0.41311851  0.05140187  1
  Se  Se118  1  0.07884604  0.41312179  0.56430118  1
  Se  Se119  1  0.07940814  0.74793765  0.06279573  1
  Se  Se120  1  0.07765056  0.74720741  0.55560278  1
  Se  Se121  1  0.41931564  0.08465136  0.05732408  1
  Se  Se122  1  0.42164394  0.08189361  0.55424847  1
  Se  Se123  1  0.40549867  0.40540404  0.06411901  1
  Se  Se124  1  0.41015569  0.40399731  0.56157651  1
  Se  Se125  1  0.41622295  0.75037342  0.05588094  1
  Se  Se126  1  0.41348105  0.73219903  0.55140855  1
  Se  Se127  1  0.74027344  0.07196591  0.06189500  1
  Se  Se128  1  0.73430565  0.06870198  0.55533533  1
  Se  Se129  1  0.74404145  0.40537889  0.05442178  1
  Se  Se130  1  0.74428953  0.40662325  0.55535662  1
  Se  Se131  1  0.75159180  0.75914977  0.05399871  1
  Se  Se132  1  0.74445324  0.75964705  0.55496409  1
  Se  Se133  1  0.24969345  0.24302362  0.05620619  1
  Se  Se134  1  0.25013807  0.24709035  0.54950175  1
  Se  Se135  1  0.24474722  0.58166476  0.05423515  1
  Se  Se136  1  0.24956927  0.58706817  0.55694316  1
  Se  Se137  1  0.25345190  0.92227630  0.06463441  1
  Se  Se138  1  0.26095464  0.92060644  0.56268978  1
  Se  Se139  1  0.58423495  0.24001393  0.05479915  1
  Se  Se140  1  0.58341715  0.24162514  0.55493820  1
  Se  Se141  1  0.59134020  0.59203227  0.06056353  1
  Se  Se142  1  0.59664206  0.58511166  0.55586762  1
  Se  Se143  1  0.58038007  0.91640512  0.05392817  1
  Se  Se144  1  0.55128190  0.90718491  0.56890602  1
  Se  Se145  1  0.92274041  0.25191171  0.06233389  1
  Se  Se146  1  0.91704715  0.24930549  0.55967767  1
  Se  Se147  1  0.91793770  0.59201422  0.06446049  1
  Se  Se148  1  0.92363819  0.59905954  0.55686134  1
  Se  Se149  1  0.91414231  0.92009444  0.05585280  1
  Se  Se150  1  0.91431329  0.91785587  0.55204451  1
  Se  Se151  1  0.08349457  0.24348152  0.44989851  1
  Se  Se152  1  0.08351968  0.24208016  0.94594188  1
  Se  Se153  1  0.07209261  0.59649237  0.44180577  1
  Se  Se154  1  0.08112990  0.58107862  0.95309081  1
  Se  Se155  1  0.08117807  0.92645566  0.43548132  1
  Se  Se156  1  0.07917955  0.92502833  0.94023090  1
  Se  Se157  1  0.40707215  0.26149867  0.44231030  1
  Se  Se158  1  0.41976193  0.25071508  0.95179972  1
  Se  Se159  1  0.41562453  0.58391841  0.43698151  1
  Se  Se160  1  0.41111144  0.58899712  0.94236557  1
  Se  Se161  1  0.41667115  0.91620122  0.44618694  1
  Se  Se162  1  0.41740822  0.91437292  0.95246158  1
  Se  Se163  1  0.74021801  0.24756690  0.43495311  1
  Se  Se164  1  0.73636680  0.24069319  0.93784914  1
  Se  Se165  1  0.74343064  0.59257477  0.43655101  1
  Se  Se166  1  0.74095428  0.58877101  0.94265672  1
  Se  Se167  1  0.74208622  0.92863485  0.44385810  1
  Se  Se168  1  0.75063923  0.91487319  0.94685795  1
  Se  Se169  1  0.24431910  0.07620807  0.44484129  1
  Se  Se170  1  0.24775994  0.08140700  0.95378217  1
  Se  Se171  1  0.26283608  0.40969796  0.44541878  1
  Se  Se172  1  0.24495098  0.41480515  0.94941134  1
  Se  Se173  1  0.25400194  0.74611560  0.43570734  1
  Se  Se174  1  0.25825891  0.74410912  0.93945301  1
  Se  Se175  1  0.59541176  0.09766952  0.41090319  1
  Se  Se176  1  0.58335934  0.08376085  0.94210116  1
  Se  Se177  1  0.58636807  0.40425509  0.43780733  1
  Se  Se178  1  0.58406760  0.41229575  0.94297851  1
  Se  Se179  1  0.57923542  0.75535514  0.44588743  1
  Se  Se180  1  0.58054292  0.75504713  0.94764723  1
  Se  Se181  1  0.91699324  0.07338815  0.43611414  1
  Se  Se182  1  0.92107641  0.07695369  0.94107077  1
  Se  Se183  1  0.92623511  0.41105297  0.44728979  1
  Se  Se184  1  0.91546353  0.40055969  0.93965103  1
  Se  Se185  1  0.91294754  0.75798581  0.44721824  1
  Se  Se186  1  0.91654903  0.75477003  0.95257020  1
  Se  Se187  1  0.24279571  0.24151966  0.30871781  1
  Se  Se188  1  0.25109595  0.24215354  0.81405097  1
  Se  Se189  1  0.25344107  0.58393179  0.30006367  1
  Se  Se190  1  0.24640802  0.58029350  0.81106617  1
  Se  Se191  1  0.24807843  0.91458805  0.30028629  1
  Se  Se192  1  0.25447712  0.92487614  0.80201207  1
  Se  Se193  1  0.59822006  0.26376069  0.29663767  1
  Se  Se194  1  0.59394434  0.26597230  0.80389491  1
  Se  Se195  1  0.58207738  0.58616916  0.30085105  1
  Se  Se196  1  0.58819422  0.58734872  0.80152473  1
  Se  Se197  1  0.58171965  0.91682547  0.30697918  1
  Se  Se198  1  0.58399367  0.91799252  0.80827995  1
  Se  Se199  1  0.91893787  0.25674302  0.31360217  1
  Se  Se200  1  0.91867027  0.24930659  0.80120449  1
  Se  Se201  1  0.91963844  0.59171924  0.30295648  1
  Se  Se202  1  0.90981422  0.57748805  0.81887509  1
  Se  Se203  1  0.91610402  0.91259315  0.30004451  1
  Se  Se204  1  0.91598080  0.91690881  0.80442169  1
  Se  Se205  1  0.07270093  0.08164742  0.29707344  1
  Se  Se206  1  0.08473043  0.08254186  0.80375701  1
  Se  Se207  1  0.09314199  0.42135824  0.31369343  1
  Se  Se208  1  0.08164410  0.41128069  0.80760678  1
  Se  Se209  1  0.08071606  0.75162898  0.30365601  1
  Se  Se210  1  0.09508055  0.76274839  0.80863397  1
  Se  Se211  1  0.40979551  0.08537451  0.30776269  1
  Se  Se212  1  0.41843020  0.08388202  0.81072940  1
  Se  Se213  1  0.43382540  0.41748582  0.31502759  1
  Se  Se214  1  0.42354920  0.42607246  0.80549488  1
  Se  Se215  1  0.41713462  0.75236297  0.30236138  1
  Se  Se216  1  0.42356791  0.75686579  0.81073519  1
  Se  Se217  1  0.78509373  0.10031568  0.29561018  1
  Se  Se218  1  0.75643356  0.08440731  0.80124883  1
  Se  Se219  1  0.75472887  0.42671452  0.30592416  1
  Se  Se220  1  0.75046218  0.41577768  0.80324392  1
  Se  Se221  1  0.74295273  0.75069531  0.30557058  1
  Se  Se222  1  0.74926811  0.75221455  0.80511548  1
  Se  Se223  1  0.26013283  0.07800700  0.20261289  1
  Se  Se224  1  0.25133510  0.09083636  0.69328705  1
  Se  Se225  1  0.24730303  0.41363507  0.19331659  1
  Se  Se226  1  0.24053057  0.42435963  0.69344572  1
  Se  Se227  1  0.24899625  0.75064144  0.19696791  1
  Se  Se228  1  0.25400355  0.77021863  0.68411332  1
  Se  Se229  1  0.59091187  0.07444757  0.19660180  1
  Se  Se230  1  0.59491991  0.08553802  0.70491818  1
  Se  Se231  1  0.57572984  0.42512145  0.19049196  1
  Se  Se232  1  0.58716424  0.41845487  0.69431376  1
  Se  Se233  1  0.58484585  0.75178527  0.19457460  1
  Se  Se234  1  0.58710160  0.75133144  0.69983284  1
  Se  Se235  1  0.88926037  0.10660719  0.19667332  1
  Se  Se236  1  0.91898278  0.07995972  0.69285062  1
  Se  Se237  1  0.90387315  0.43077805  0.18649551  1
  Se  Se238  1  0.92081710  0.41692519  0.70024939  1
  Se  Se239  1  0.91863549  0.74839554  0.19775815  1
  Se  Se240  1  0.91417488  0.75836696  0.69035260  1
  Se  Se241  1  0.09148394  0.24588395  0.19527376  1
  Se  Se242  1  0.08278299  0.25053386  0.69858567  1
  Se  Se243  1  0.08296064  0.58167919  0.19799120  1
  Se  Se244  1  0.08814767  0.58234414  0.69475808  1
  Se  Se245  1  0.07906702  0.91940047  0.19676654  1
  Se  Se246  1  0.08422028  0.92267344  0.69580209  1
  Se  Se247  1  0.42660358  0.23866721  0.19330418  1
  Se  Se248  1  0.42626988  0.23991134  0.69128471  1
  Se  Se249  1  0.41062318  0.58613487  0.19698004  1
  Se  Se250  1  0.42576840  0.58226231  0.68857469  1
  Se  Se251  1  0.41938113  0.91714064  0.19634610  1
  Se  Se252  1  0.41659004  0.92109623  0.69859832  1
  Se  Se253  1  0.72959090  0.26699095  0.20102325  1
  Se  Se254  1  0.75254600  0.24930879  0.69383375  1
  Se  Se255  1  0.74370448  0.59037132  0.19801286  1
  Se  Se256  1  0.75846189  0.58511948  0.69746656  1
  Se  Se257  1  0.74891426  0.91477271  0.19675187  1
  Se  Se258  1  0.75007646  0.91950867  0.69413001  1
