# generated using pymatgen
data_In86Cu29Se144
_symmetry_space_group_name_H-M   'P 1'
_cell_length_a   17.58606109
_cell_length_b   17.58707216
_cell_length_c   23.44105819
_cell_angle_alpha   90.01285214
_cell_angle_beta   89.99567216
_cell_angle_gamma   89.96661576
_symmetry_Int_Tables_number   1
_chemical_formula_structural   In86Cu29Se144
_chemical_formula_sum   'In86 Cu29 Se144'
_cell_volume   7250.02075712
_cell_formula_units_Z   1
loop_
 _symmetry_equiv_pos_site_id
 _symmetry_equiv_pos_as_xyz
  1  'x, y, z'
loop_
 _atom_site_type_symbol
 _atom_site_label
 _atom_site_symmetry_multiplicity
 _atom_site_fract_x
 _atom_site_fract_y
 _atom_site_fract_z
 _atom_site_occupancy
  In  In0  1  -0.01624944  0.16424636  0.12762450  1
  In  In1  1  -0.00056166  0.16614349  0.61740438  1
  In  In2  1  -0.00017708  0.50523243  0.13298179  1
  In  In3  1  0.00454055  0.51433830  0.60959859  1
  In  In4  1  -0.00490780  0.83564430  0.13442843  1
  In  In5  1  -0.01562898  0.82259278  0.61450067  1
  In  In6  1  0.34562517  0.15750644  0.13163871  1
  In  In7  1  0.32816883  0.16544723  0.62334666  1
  In  In8  1  0.32189201  0.49864015  0.13131433  1
  In  In9  1  0.34638986  0.50564445  0.61334013  1
  In  In10  1  0.34759689  0.83914108  0.12395234  1
  In  In11  1  0.34720486  0.82721897  0.63317286  1
  In  In12  1  0.66922173  0.17713021  0.11837126  1
  In  In13  1  0.68546454  0.17092342  0.62978089  1
  In  In14  1  0.67236695  0.49806260  0.13436723  1
  In  In15  1  0.66964985  0.50306185  0.62563996  1
  In  In16  1  0.65975606  0.82799461  0.12138088  1
  In  In17  1  0.65192261  0.81744411  0.62244139  1
  In  In18  1  0.17476820  0.01009182  0.37055814  1
  In  In19  1  0.16565807  -0.01707246  0.87164830  1
  In  In20  1  0.16694378  0.33149072  0.37968655  1
  In  In21  1  0.16932140  0.34106716  0.87276250  1
  In  In22  1  0.15152262  0.66892485  0.38068210  1
  In  In23  1  0.16349506  0.66795188  0.86379945  1
  In  In24  1  0.48504306  -0.00321668  0.37816116  1
  In  In25  1  0.50113639  0.00302397  0.87674182  1
  In  In26  1  0.50951616  0.34224832  0.36810851  1
  In  In27  1  0.51160479  0.31784290  0.88074505  1
  In  In28  1  0.50884473  0.66001386  0.38273629  1
  In  In29  1  0.51864644  0.68188842  0.85827222  1
  In  In30  1  0.84391587  -0.01196829  0.38259598  1
  In  In31  1  0.82536806  -0.00095037  0.88305758  1
  In  In32  1  0.82561222  0.34409834  0.38182161  1
  In  In33  1  0.81331899  0.32312291  0.86705507  1
  In  In34  1  0.83107471  0.66919679  0.37941316  1
  In  In35  1  0.83898725  0.67269598  0.86357229  1
  In  In36  1  0.00787813  0.16163900  0.37864124  1
  In  In37  1  -0.00485671  0.15300308  0.87993357  1
  In  In38  1  -0.02160783  0.52403775  0.39884964  1
  In  In39  1  -0.01512162  0.51719899  0.87164981  1
  In  In40  1  -0.01179760  0.82081284  0.36966039  1
  In  In41  1  -0.01339030  0.81563887  0.87114959  1
  In  In42  1  0.31888496  0.15672394  0.37087357  1
  In  In43  1  0.35312019  0.17063120  0.87584601  1
  In  In44  1  0.34230646  0.49416585  0.38346047  1
  In  In45  1  0.32982369  0.50960496  0.86898532  1
  In  In46  1  0.33708535  0.85085774  0.37973764  1
  In  In47  1  0.35108500  0.84516048  0.85538910  1
  In  In48  1  0.66627156  0.18196343  0.37333470  1
  In  In49  1  0.66969962  0.16540421  0.87788278  1
  In  In50  1  0.66418271  0.50278318  0.37575145  1
  In  In51  1  0.67500357  0.49351745  0.86116616  1
  In  In52  1  0.67797496  0.82353301  0.38564369  1
  In  In53  1  0.67013095  0.83293552  0.88067268  1
  In  In54  1  0.16889209  -0.00299230  0.13612351  1
  In  In55  1  0.17470943  0.00840869  0.62040859  1
  In  In56  1  0.16904855  0.34950702  0.13252599  1
  In  In57  1  0.16683195  0.33161711  0.61400891  1
  In  In58  1  0.15907050  0.65907612  0.13022866  1
  In  In59  1  0.17268144  0.66563489  0.62228818  1
  In  In60  1  0.49524369  -0.00371152  0.12200055  1
  In  In61  1  0.49572989  -0.01801949  0.62453449  1
  In  In62  1  0.51054361  0.32136970  0.13596869  1
  In  In63  1  0.50469792  0.34714804  0.62379650  1
  In  In64  1  0.50245500  0.68279227  0.12098040  1
  In  In65  1  0.50614226  0.66494599  0.62866922  1
  In  In66  1  0.83496712  0.00413936  0.12666809  1
  In  In67  1  0.83839425  0.00496933  0.61626648  1
  In  In68  1  0.82825681  0.32194621  0.12372956  1
  In  In69  1  0.82353537  0.33003254  0.62166381  1
  In  In70  1  0.82850169  0.67073462  0.13061851  1
  In  In71  1  0.82990245  0.66259891  0.62304410  1
  In  In72  1  0.50188213  0.16528627  0.49537537  1
  In  In73  1  0.66457633  -0.00346296  0.74940486  1
  In  In74  1  0.16157677  0.82996572  0.00325649  1
  In  In75  1  0.83222097  0.49933807  -0.00032498  1
  In  In76  1  0.00085052  -0.00671656  0.73565518  1
  In  In77  1  -0.00966148  0.34179419  0.74575509  1
  In  In78  1  0.16910112  0.16272362  0.00649851  1
  In  In79  1  0.50069907  0.49925552  -0.00751745  1
  In  In80  1  0.00067054  0.33574777  0.25638193  1
  In  In81  1  0.33244221  0.67162684  0.24965634  1
  In  In82  1  0.16819857  0.83586053  0.49918666  1
  In  In83  1  0.16531949  0.50231821  -0.00541360  1
  In  In84  1  0.66346259  0.00133718  0.25098497  1
  In  In85  1  0.34003667  0.33733527  0.75104424  1
  Cu  Cu86  1  0.16701465  0.16723433  0.25373724  1
  Cu  Cu87  1  -0.00284461  0.33244226  0.49908589  1
  Cu  Cu88  1  0.66591024  0.33829066  0.49792771  1
  Cu  Cu89  1  0.66708459  0.66755421  -0.00189061  1
  Cu  Cu90  1  0.50726053  0.16429086  0.75417373  1
  Cu  Cu91  1  0.66443294  -0.00345247  0.00239394  1
  Cu  Cu92  1  0.34473978  0.32947236  0.00794864  1
  Cu  Cu93  1  0.33737299  0.66663025  0.50481085  1
  Cu  Cu94  1  0.82888763  0.83135660  0.74543954  1
  Cu  Cu95  1  0.16412146  0.50221611  0.73835372  1
  Cu  Cu96  1  0.16448047  0.83662967  0.25766070  1
  Cu  Cu97  1  0.50039997  0.50323050  0.25552561  1
  Cu  Cu98  1  0.83396968  0.82784216  0.25613235  1
  Cu  Cu99  1  0.82911193  0.50393460  0.26052008  1
  Cu  Cu100  1  0.16878555  0.82747063  0.74495193  1
  Cu  Cu101  1  0.33223845  0.67875339  -0.00643349  1
  Cu  Cu102  1  0.00517815  0.00149139  0.49701175  1
  Cu  Cu103  1  0.49380920  0.17001305  0.25413211  1
  Cu  Cu104  1  0.50311154  0.83432216  0.24867725  1
  Cu  Cu105  1  0.66978816  0.00025640  0.50549740  1
  Cu  Cu106  1  0.34001255  0.00342740  -0.00504791  1
  Cu  Cu107  1  0.16295146  0.50054680  0.25922296  1
  Cu  Cu108  1  0.33323397  0.32647803  0.49731718  1
  Cu  Cu109  1  0.83080761  0.16442622  0.24863706  1
  Cu  Cu110  1  0.16932422  0.16271459  0.74473580  1
  Cu  Cu111  1  -0.00733885  0.32899959  -0.00142070  1
  Cu  Cu112  1  0.66542867  0.66228851  0.50445812  1
  Cu  Cu113  1  -0.01345489  -0.00636832  0.00468898  1
  Cu  Cu114  1  0.50539261  0.50073651  0.74438148  1
  Se  Se115  1  0.07452993  0.07132851  0.06141492  1
  Se  Se116  1  0.08689308  0.08406949  0.55200660  1
  Se  Se117  1  0.07237100  0.41135726  0.05706535  1
  Se  Se118  1  0.08353518  0.41626346  0.54939384  1
  Se  Se119  1  0.07240785  0.73985182  0.06148035  1
  Se  Se120  1  0.07751334  0.73963724  0.55071247  1
  Se  Se121  1  0.41905435  0.08569949  0.05222059  1
  Se  Se122  1  0.41493104  0.07743105  0.55763568  1
  Se  Se123  1  0.41585713  0.41927176  0.06520494  1
  Se  Se124  1  0.41945009  0.41067576  0.54762104  1
  Se  Se125  1  0.41772019  0.75674710  0.04874783  1
  Se  Se126  1  0.42145984  0.74757752  0.55801880  1
  Se  Se127  1  0.74649282  0.07958621  0.05827093  1
  Se  Se128  1  0.75199005  0.08975828  0.55174510  1
  Se  Se129  1  0.74032199  0.40937174  0.05763479  1
  Se  Se130  1  0.74862556  0.41989943  0.55315469  1
  Se  Se131  1  0.74888060  0.74693844  0.05599919  1
  Se  Se132  1  0.74768059  0.75095976  0.55449313  1
  Se  Se133  1  0.25419660  0.25883177  0.06546339  1
  Se  Se134  1  0.25026457  0.24356842  0.55021600  1
  Se  Se135  1  0.25803021  0.59508938  0.05512353  1
  Se  Se136  1  0.24984190  0.58129291  0.55096801  1
  Se  Se137  1  0.25606177  0.92712156  0.05601251  1
  Se  Se138  1  0.26242492  0.91645692  0.56027816  1
  Se  Se139  1  0.57662406  0.25233064  0.05367715  1
  Se  Se140  1  0.59021084  0.25290853  0.55908114  1
  Se  Se141  1  0.58916953  0.58558574  0.05911141  1
  Se  Se142  1  0.57944365  0.57880282  0.55574635  1
  Se  Se143  1  0.57856685  0.91363604  0.05426423  1
  Se  Se144  1  0.58484842  0.91448591  0.55281157  1
  Se  Se145  1  0.91254941  0.24530806  0.05248728  1
  Se  Se146  1  0.91352635  0.25046412  0.55403659  1
  Se  Se147  1  0.92203303  0.58792761  0.06029348  1
  Se  Se148  1  0.90940985  0.58888622  0.54698088  1
  Se  Se149  1  0.91041693  0.90925906  0.06154268  1
  Se  Se150  1  0.91815905  0.91966705  0.54810229  1
  Se  Se151  1  0.08321468  0.24910902  0.44795740  1
  Se  Se152  1  0.08240395  0.25536355  0.94109589  1
  Se  Se153  1  0.09808488  0.57133145  0.45092177  1
  Se  Se154  1  0.07486740  0.59648694  0.94204818  1
  Se  Se155  1  0.07913835  0.91957218  0.43347083  1
  Se  Se156  1  0.06769924  0.91826154  0.94180974  1
  Se  Se157  1  0.41399735  0.25307269  0.43255211  1
  Se  Se158  1  0.42481899  0.24631370  0.95324116  1
  Se  Se159  1  0.42033531  0.58246346  0.45015724  1
  Se  Se160  1  0.41298263  0.59512508  0.93698420  1
  Se  Se161  1  0.42422760  0.91192242  0.45441745  1
  Se  Se162  1  0.41557553  0.91434201  0.94073205  1
  Se  Se163  1  0.74909276  0.25075049  0.44835088  1
  Se  Se164  1  0.75486991  0.24437410  0.94707627  1
  Se  Se165  1  0.74751602  0.58232113  0.44603337  1
  Se  Se166  1  0.74335795  0.58710308  0.93703806  1
  Se  Se167  1  0.75330022  0.91574865  0.45131924  1
  Se  Se168  1  0.75083879  0.91233443  0.95259522  1
  Se  Se169  1  0.25350200  0.07670587  0.44872684  1
  Se  Se170  1  0.25232280  0.07766001  0.93625021  1
  Se  Se171  1  0.25093712  0.41473625  0.44761938  1
  Se  Se172  1  0.26695047  0.40829514  0.94465458  1
  Se  Se173  1  0.26068589  0.74360314  0.43910955  1
  Se  Se174  1  0.24979697  0.75387635  0.93304358  1
  Se  Se175  1  0.59455111  0.07475123  0.43652258  1
  Se  Se176  1  0.58604032  0.08139070  0.94512628  1
  Se  Se177  1  0.58000411  0.41994688  0.44573292  1
  Se  Se178  1  0.59952433  0.41185508  0.94053502  1
  Se  Se179  1  0.58367999  0.74953653  0.45113711  1
  Se  Se180  1  0.57995532  0.74890197  0.94534579  1
  Se  Se181  1  0.91751906  0.08525284  0.44620090  1
  Se  Se182  1  0.90952660  0.08240772  0.95146972  1
  Se  Se183  1  0.90820598  0.41842438  0.45468281  1
  Se  Se184  1  0.92070295  0.41057840  0.93555761  1
  Se  Se185  1  0.91585432  0.75054692  0.44755070  1
  Se  Se186  1  0.90511292  0.74712828  0.94497945  1
  Se  Se187  1  0.24729269  0.25375603  0.30576251  1
  Se  Se188  1  0.24599084  0.24248756  0.80875087  1
  Se  Se189  1  0.24844860  0.58306393  0.31455886  1
  Se  Se190  1  0.24614467  0.58205722  0.79712405  1
  Se  Se191  1  0.25392145  0.91917354  0.30391265  1
  Se  Se192  1  0.24800135  0.91718184  0.79574998  1
  Se  Se193  1  0.58474715  0.25307136  0.29866942  1
  Se  Se194  1  0.59144852  0.24827195  0.80418869  1
  Se  Se195  1  0.58478865  0.58836496  0.30444692  1
  Se  Se196  1  0.59100619  0.58164745  0.79807804  1
  Se  Se197  1  0.58106004  0.90985568  0.31475257  1
  Se  Se198  1  0.57588069  0.90681895  0.80819888  1
  Se  Se199  1  0.90816888  0.24535899  0.31292181  1
  Se  Se200  1  0.91861848  0.24091506  0.80925915  1
  Se  Se201  1  0.91692482  0.58565628  0.30985276  1
  Se  Se202  1  0.91305348  0.58576672  0.79330362  1
  Se  Se203  1  0.91758835  0.91738552  0.30249411  1
  Se  Se204  1  0.90845059  0.91548020  0.80473645  1
  Se  Se205  1  0.08118287  0.08261469  0.30245675  1
  Se  Se206  1  0.08786295  0.08342767  0.80466325  1
  Se  Se207  1  0.07727182  0.42863704  0.32109238  1
  Se  Se208  1  0.08761164  0.42910296  0.80653248  1
  Se  Se209  1  0.08203602  0.74633423  0.30245154  1
  Se  Se210  1  0.07850342  0.75256884  0.79847374  1
  Se  Se211  1  0.41422033  0.08195801  0.30517125  1
  Se  Se212  1  0.41938602  0.08274506  0.80337414  1
  Se  Se213  1  0.41428196  0.41939621  0.30402453  1
  Se  Se214  1  0.43226154  0.42276378  0.81385333  1
  Se  Se215  1  0.42295348  0.75608139  0.31231266  1
  Se  Se216  1  0.39603643  0.72276244  0.80681207  1
  Se  Se217  1  0.75570610  0.08507548  0.31377952  1
  Se  Se218  1  0.75915830  0.08544974  0.80550861  1
  Se  Se219  1  0.74488549  0.41524034  0.30607204  1
  Se  Se220  1  0.78056975  0.43254003  0.79966998  1
  Se  Se221  1  0.74644296  0.74657266  0.30637280  1
  Se  Se222  1  0.74486912  0.75542349  0.80390948  1
  Se  Se223  1  0.25168153  0.08534657  0.19853387  1
  Se  Se224  1  0.25626525  0.08014062  0.69673367  1
  Se  Se225  1  0.25009884  0.41926383  0.20792665  1
  Se  Se226  1  0.24882857  0.41896409  0.68607672  1
  Se  Se227  1  0.24222618  0.76269111  0.18822785  1
  Se  Se228  1  0.25396591  0.74426221  0.69375041  1
  Se  Se229  1  0.57532424  0.09166741  0.19080769  1
  Se  Se230  1  0.57867338  0.08789299  0.68519475  1
  Se  Se231  1  0.58226314  0.41948989  0.19945205  1
  Se  Se232  1  0.59068304  0.41421876  0.69699945  1
  Se  Se233  1  0.58515596  0.74854576  0.19790573  1
  Se  Se234  1  0.57358074  0.75474166  0.70137638  1
  Se  Se235  1  0.91692428  0.07857788  0.20190855  1
  Se  Se236  1  0.90889081  0.09498246  0.69258722  1
  Se  Se237  1  0.90399317  0.42137380  0.19459517  1
  Se  Se238  1  0.91395958  0.42872201  0.67784295  1
  Se  Se239  1  0.91747324  0.74484165  0.20088028  1
  Se  Se240  1  0.91425919  0.74859846  0.69333781  1
  Se  Se241  1  0.08715847  0.24520529  0.18987103  1
  Se  Se242  1  0.08858957  0.24768393  0.69118258  1
  Se  Se243  1  0.08061766  0.58355908  0.20476206  1
  Se  Se244  1  0.08100874  0.58714149  0.68840578  1
  Se  Se245  1  0.08096733  0.91793735  0.20114251  1
  Se  Se246  1  0.09147642  0.90219065  0.67793096  1
  Se  Se247  1  0.40986552  0.25470861  0.20052216  1
  Se  Se248  1  0.42768537  0.24467368  0.69055529  1
  Se  Se249  1  0.42446689  0.58176203  0.18876519  1
  Se  Se250  1  0.41596349  0.57852263  0.69353167  1
  Se  Se251  1  0.41823317  0.92009157  0.19944258  1
  Se  Se252  1  0.41632805  0.91928840  0.70299722  1
  Se  Se253  1  0.74682648  0.24835500  0.19775608  1
  Se  Se254  1  0.75195390  0.25735988  0.70176442  1
  Se  Se255  1  0.74970947  0.58600265  0.20086211  1
  Se  Se256  1  0.73120491  0.60312060  0.69275822  1
  Se  Se257  1  0.75294733  0.90743267  0.19414905  1
  Se  Se258  1  0.75470550  0.91368538  0.68368125  1
