# generated using pymatgen
data_In86Cu29Se144
_symmetry_space_group_name_H-M   'P 1'
_cell_length_a   17.63223262
_cell_length_b   17.62651693
_cell_length_c   23.48452705
_cell_angle_alpha   89.98426577
_cell_angle_beta   89.97981009
_cell_angle_gamma   90.00995387
_symmetry_Int_Tables_number   1
_chemical_formula_structural   In86Cu29Se144
_chemical_formula_sum   'In86 Cu29 Se144'
_cell_volume   7298.86914980
_cell_formula_units_Z   1
loop_
 _symmetry_equiv_pos_site_id
 _symmetry_equiv_pos_as_xyz
  1  'x, y, z'
loop_
 _atom_site_type_symbol
 _atom_site_label
 _atom_site_symmetry_multiplicity
 _atom_site_fract_x
 _atom_site_fract_y
 _atom_site_fract_z
 _atom_site_occupancy
  In  In0  1  -0.00897216  0.14828073  0.12196754  1
  In  In1  1  -0.00946022  0.17080310  0.62995967  1
  In  In2  1  0.00951129  0.51371726  0.10750499  1
  In  In3  1  -0.02525124  0.52971578  0.65574994  1
  In  In4  1  -0.00649562  0.83512249  0.11983817  1
  In  In5  1  -0.01654012  0.84598427  0.64922499  1
  In  In6  1  0.33023788  0.17874537  0.12432800  1
  In  In7  1  0.33318271  0.15518627  0.62847509  1
  In  In8  1  0.33134453  0.50756427  0.10389992  1
  In  In9  1  0.34024251  0.50936406  0.62724459  1
  In  In10  1  0.32740391  0.81981533  0.10287678  1
  In  In11  1  0.35034792  0.81507642  0.63718979  1
  In  In12  1  0.68128641  0.16239811  0.12785365  1
  In  In13  1  0.65483198  0.14316915  0.61230809  1
  In  In14  1  0.67656264  0.50381909  0.11370957  1
  In  In15  1  0.67264170  0.50710048  0.62546105  1
  In  In16  1  0.66121258  0.83683648  0.10746858  1
  In  In17  1  0.66609666  0.83622145  0.62672653  1
  In  In18  1  0.16229635  0.00600003  0.37008084  1
  In  In19  1  0.16380010  -0.00080166  0.87836974  1
  In  In20  1  0.17065101  0.32984271  0.36980049  1
  In  In21  1  0.12882459  0.35414111  0.89737550  1
  In  In22  1  0.15664670  0.67503356  0.37264148  1
  In  In23  1  0.17002852  0.67219577  0.87539358  1
  In  In24  1  0.52502623  -0.02226210  0.40507764  1
  In  In25  1  0.49597148  -0.00747254  0.86736042  1
  In  In26  1  0.50767154  0.32597673  0.38658625  1
  In  In27  1  0.50776007  0.34651363  0.87269056  1
  In  In28  1  0.50013189  0.66596797  0.39142599  1
  In  In29  1  0.49640307  0.66926769  0.87172354  1
  In  In30  1  0.84580216  -0.01370571  0.39068307  1
  In  In31  1  0.81852647  -0.02617026  0.85143854  1
  In  In32  1  0.82765442  0.34088778  0.38324299  1
  In  In33  1  0.85492733  0.33756417  0.87074333  1
  In  In34  1  0.84198376  0.66312015  0.38427356  1
  In  In35  1  0.82534930  0.68020826  0.86423459  1
  In  In36  1  0.00833148  0.15240880  0.37589576  1
  In  In37  1  0.00137879  0.16953412  0.87122197  1
  In  In38  1  -0.00829214  0.50843518  0.37695483  1
  In  In39  1  -0.00093793  0.50359989  0.87378233  1
  In  In40  1  -0.00548774  0.82688036  0.37028985  1
  In  In41  1  -0.00321421  0.83709148  0.86747899  1
  In  In42  1  0.33891848  0.16586066  0.37812407  1
  In  In43  1  0.32671422  0.15347760  0.87036663  1
  In  In44  1  0.33833459  0.50511644  0.37585839  1
  In  In45  1  0.31033549  0.53346993  0.89466377  1
  In  In46  1  0.33538432  0.83737724  0.37891522  1
  In  In47  1  0.32892603  0.82973985  0.87864967  1
  In  In48  1  0.68331653  0.14388027  0.40446667  1
  In  In49  1  0.67694929  0.15620513  0.87037546  1
  In  In50  1  0.66647870  0.50406046  0.38662280  1
  In  In51  1  0.65163011  0.51304853  0.88162614  1
  In  In52  1  0.67712560  0.82984010  0.38736332  1
  In  In53  1  0.67121559  0.83257027  0.86601002  1
  In  In54  1  0.15310035  -0.01675782  0.10914197  1
  In  In55  1  0.17233352  0.00308267  0.63891477  1
  In  In56  1  0.16456249  0.33834478  0.10614269  1
  In  In57  1  0.15619241  0.33756327  0.63260700  1
  In  In58  1  0.15406977  0.66132182  0.10939644  1
  In  In59  1  0.15619921  0.66467063  0.64019152  1
  In  In60  1  0.50091461  -0.01991582  0.12269421  1
  In  In61  1  0.50069801  -0.00997396  0.62743362  1
  In  In62  1  0.49039263  0.33156410  0.12466003  1
  In  In63  1  0.50365333  0.33813171  0.62087660  1
  In  In64  1  0.50081989  0.66765418  0.10971972  1
  In  In65  1  0.50134135  0.67289935  0.62440950  1
  In  In66  1  0.83962612  0.00421037  0.12085246  1
  In  In67  1  0.83132107  -0.00705385  0.62802350  1
  In  In68  1  0.83225212  0.33869416  0.12158448  1
  In  In69  1  0.83975315  0.33588975  0.62252612  1
  In  In70  1  0.84297623  0.68320963  0.11308391  1
  In  In71  1  0.83076452  0.66917345  0.63083264  1
  In  In72  1  0.16557248  0.50076642  0.51467422  1
  In  In73  1  0.32791459  0.33460758  0.75836953  1
  In  In74  1  0.83746935  0.16240050  -0.00412691  1
  In  In75  1  0.16943331  0.16622350  0.49656289  1
  In  In76  1  0.66604745  0.66785055  0.25084868  1
  In  In77  1  0.33235693  0.00114637  0.25080169  1
  In  In78  1  0.50115605  0.16429990  0.00010921  1
  In  In79  1  0.00076827  0.33215627  0.24359148  1
  In  In80  1  0.66968290  -0.00128833  0.25606353  1
  In  In81  1  0.67386718  0.32974294  0.74349679  1
  In  In82  1  0.17046884  0.82704509  0.50540549  1
  In  In83  1  0.66146426  0.33874957  0.26491421  1
  In  In84  1  0.32743952  0.33665265  0.24598376  1
  In  In85  1  0.32930998  0.66540126  0.23944242  1
  Cu  Cu86  1  0.15931451  0.15509531  0.24036158  1
  Cu  Cu87  1  0.83227269  0.15847510  0.74648238  1
  Cu  Cu88  1  0.82501417  0.49876602  0.75415302  1
  Cu  Cu89  1  0.66974281  0.33609738  0.50524457  1
  Cu  Cu90  1  0.33178005  -0.00040773  -0.00517017  1
  Cu  Cu91  1  0.33669124  0.33237479  -0.00605208  1
  Cu  Cu92  1  0.17264093  0.83562430  0.75691485  1
  Cu  Cu93  1  0.50633839  0.15296088  0.26156676  1
  Cu  Cu94  1  0.34114443  -0.01115072  0.50877002  1
  Cu  Cu95  1  0.84437844  0.51630453  0.24953942  1
  Cu  Cu96  1  0.83783483  0.16765627  0.25484868  1
  Cu  Cu97  1  0.49824800  0.83492821  0.74992582  1
  Cu  Cu98  1  -0.00647735  -0.00325848  -0.00820178  1
  Cu  Cu99  1  0.50116016  0.49698360  0.24773852  1
  Cu  Cu100  1  -0.00660820  0.67074645  0.51090801  1
  Cu  Cu101  1  0.66956603  0.66774612  -0.00953824  1
  Cu  Cu102  1  0.00274169  -0.00573200  0.50794723  1
  Cu  Cu103  1  0.66952299  0.66572939  0.50895168  1
  Cu  Cu104  1  0.83744495  0.83794564  0.24689733  1
  Cu  Cu105  1  -0.00842876  0.33958883  0.50177337  1
  Cu  Cu106  1  0.15239954  0.83464536  0.24098716  1
  Cu  Cu107  1  0.16237164  0.17054934  0.75564692  1
  Cu  Cu108  1  0.16004330  0.50525314  0.23803432  1
  Cu  Cu109  1  0.49916998  0.51625174  0.75382578  1
  Cu  Cu110  1  0.49656026  0.82853592  0.25029501  1
  Cu  Cu111  1  0.50137032  0.16218185  0.74648428  1
  Cu  Cu112  1  0.33370109  0.33779594  0.50534900  1
  Cu  Cu113  1  0.67315550  0.33571128  -0.00071641  1
  Cu  Cu114  1  -0.01004547  0.67418175  -0.01185116  1
  Se  Se115  1  0.07545729  0.07998492  0.04823476  1
  Se  Se116  1  0.08538224  0.07774925  0.56159917  1
  Se  Se117  1  0.08138212  0.42093998  0.04265823  1
  Se  Se118  1  0.06535902  0.41670891  0.56614411  1
  Se  Se119  1  0.07261863  0.75348038  0.04810680  1
  Se  Se120  1  0.07413908  0.75153596  0.56895217  1
  Se  Se121  1  0.40814463  0.07573511  0.06191295  1
  Se  Se122  1  0.41768619  0.07993742  0.55957074  1
  Se  Se123  1  0.41979240  0.41272460  0.05075125  1
  Se  Se124  1  0.41508713  0.42142759  0.55783953  1
  Se  Se125  1  0.43474968  0.76267255  0.04435283  1
  Se  Se126  1  0.42052736  0.75472964  0.55376841  1
  Se  Se127  1  0.73894831  0.07271949  0.05127112  1
  Se  Se128  1  0.76443969  0.08426303  0.55587199  1
  Se  Se129  1  0.75988740  0.41967596  0.04766184  1
  Se  Se130  1  0.75239103  0.41996225  0.55840557  1
  Se  Se131  1  0.74909526  0.75293365  0.04600723  1
  Se  Se132  1  0.75255038  0.75122740  0.55891915  1
  Se  Se133  1  0.25384442  0.24949385  0.04793141  1
  Se  Se134  1  0.25191586  0.25696338  0.56337194  1
  Se  Se135  1  0.26185991  0.60755654  0.04570124  1
  Se  Se136  1  0.25238496  0.60081776  0.56274401  1
  Se  Se137  1  0.24571344  0.91193111  0.04273187  1
  Se  Se138  1  0.25500722  0.91714078  0.56841013  1
  Se  Se139  1  0.59577142  0.25521699  0.06237111  1
  Se  Se140  1  0.58514741  0.25165448  0.55593091  1
  Se  Se141  1  0.58999141  0.58355751  0.04825189  1
  Se  Se142  1  0.58268911  0.58230145  0.55811644  1
  Se  Se143  1  0.57854461  0.92099424  0.04337848  1
  Se  Se144  1  0.58830852  0.91931310  0.55644462  1
  Se  Se145  1  0.92349035  0.25400543  0.05825831  1
  Se  Se146  1  0.91696002  0.24773935  0.55304885  1
  Se  Se147  1  0.91181404  0.58827702  0.04597409  1
  Se  Se148  1  0.91453364  0.58079062  0.56242707  1
  Se  Se149  1  0.90972344  0.91763791  0.05014329  1
  Se  Se150  1  0.92141604  0.91066275  0.56108262  1
  Se  Se151  1  0.07555822  0.26264137  0.44169242  1
  Se  Se152  1  0.08154806  0.23474312  0.94928892  1
  Se  Se153  1  0.07712241  0.59297248  0.44936130  1
  Se  Se154  1  0.07973118  0.59093724  0.94213590  1
  Se  Se155  1  0.08319648  0.92011870  0.44268874  1
  Se  Se156  1  0.07999068  0.91148558  0.94283726  1
  Se  Se157  1  0.41039581  0.25158957  0.44908278  1
  Se  Se158  1  0.41701842  0.25328675  0.93461932  1
  Se  Se159  1  0.41848012  0.57363245  0.44921323  1
  Se  Se160  1  0.43971568  0.56511088  0.93837181  1
  Se  Se161  1  0.41863457  0.90112472  0.45540668  1
  Se  Se162  1  0.41601550  0.91880671  0.94196879  1
  Se  Se163  1  0.75558538  0.25389040  0.45386058  1
  Se  Se164  1  0.74769451  0.25656456  0.93665076  1
  Se  Se165  1  0.75297960  0.58608577  0.45065917  1
  Se  Se166  1  0.75472860  0.58814761  0.93672341  1
  Se  Se167  1  0.72650678  0.94334317  0.44481936  1
  Se  Se168  1  0.75517382  0.91239286  0.93723182  1
  Se  Se169  1  0.26193421  0.06558190  0.44453908  1
  Se  Se170  1  0.24706005  0.08512032  0.94735231  1
  Se  Se171  1  0.25078038  0.41049556  0.44284408  1
  Se  Se172  1  0.24997081  0.41509648  0.94429986  1
  Se  Se173  1  0.25711467  0.73652821  0.44092916  1
  Se  Se174  1  0.26239045  0.73626800  0.94903155  1
  Se  Se175  1  0.55760949  0.10457205  0.45003778  1
  Se  Se176  1  0.58805298  0.07662534  0.93880301  1
  Se  Se177  1  0.58422447  0.41714070  0.45103599  1
  Se  Se178  1  0.58455071  0.41672853  0.95026991  1
  Se  Se179  1  0.58905103  0.74943897  0.45190508  1
  Se  Se180  1  0.58793676  0.75088611  0.93585344  1
  Se  Se181  1  0.92710760  0.08174750  0.45015966  1
  Se  Se182  1  0.91216553  0.07024150  0.92923745  1
  Se  Se183  1  0.91460562  0.42564899  0.44640783  1
  Se  Se184  1  0.92552604  0.41394206  0.94566590  1
  Se  Se185  1  0.91878322  0.75558251  0.44941838  1
  Se  Se186  1  0.90880742  0.75904034  0.93632982  1
  Se  Se187  1  0.24189906  0.23107719  0.30086143  1
  Se  Se188  1  0.23610658  0.25109484  0.81874928  1
  Se  Se189  1  0.24162971  0.57586798  0.30497741  1
  Se  Se190  1  0.25471145  0.59166380  0.80509393  1
  Se  Se191  1  0.23832883  0.90349195  0.30515478  1
  Se  Se192  1  0.25329015  0.92104816  0.81055021  1
  Se  Se193  1  0.58789276  0.23184197  0.31951621  1
  Se  Se194  1  0.58012124  0.24342940  0.80651487  1
  Se  Se195  1  0.57515236  0.57710706  0.31091407  1
  Se  Se196  1  0.59068601  0.59488462  0.80230923  1
  Se  Se197  1  0.57760996  0.90439701  0.31191542  1
  Se  Se198  1  0.58554155  0.91854457  0.79911169  1
  Se  Se199  1  0.91491005  0.25101910  0.31427048  1
  Se  Se200  1  0.91376137  0.24348195  0.79884990  1
  Se  Se201  1  0.92449919  0.59763146  0.30507409  1
  Se  Se202  1  0.90927857  0.58236879  0.80654553  1
  Se  Se203  1  0.91508565  0.91966830  0.30680851  1
  Se  Se204  1  0.92398792  0.91542297  0.79002288  1
  Se  Se205  1  0.07712040  0.07631202  0.29692698  1
  Se  Se206  1  0.08255485  0.08055419  0.80626146  1
  Se  Se207  1  0.08959401  0.42496513  0.30566065  1
  Se  Se208  1  0.07704503  0.41339088  0.80631730  1
  Se  Se209  1  0.07766805  0.74808335  0.29894231  1
  Se  Se210  1  0.08563261  0.75043605  0.80500029  1
  Se  Se211  1  0.42708234  0.07163307  0.31900144  1
  Se  Se212  1  0.41671194  0.08306738  0.80133014  1
  Se  Se213  1  0.42507252  0.41466407  0.30850102  1
  Se  Se214  1  0.41975167  0.43084048  0.80978022  1
  Se  Se215  1  0.41840506  0.74693226  0.30921797  1
  Se  Se216  1  0.41400642  0.75435957  0.80488498  1
  Se  Se217  1  0.75946999  0.08735585  0.31584571  1
  Se  Se218  1  0.74268465  0.07638289  0.79311935  1
  Se  Se219  1  0.76080210  0.43710647  0.30814498  1
  Se  Se220  1  0.74712373  0.41792583  0.81554302  1
  Se  Se221  1  0.75842572  0.75745105  0.30900875  1
  Se  Se222  1  0.76618689  0.77594289  0.78950580  1
  Se  Se223  1  0.24405513  0.07991635  0.18169351  1
  Se  Se224  1  0.25260379  0.09005103  0.70619148  1
  Se  Se225  1  0.24441768  0.42805968  0.18122573  1
  Se  Se226  1  0.24727451  0.42542481  0.69242318  1
  Se  Se227  1  0.23785014  0.75688689  0.18359187  1
  Se  Se228  1  0.24763660  0.74997636  0.69985449  1
  Se  Se229  1  0.57754503  0.08378099  0.18983925  1
  Se  Se230  1  0.58410652  0.07759972  0.69502725  1
  Se  Se231  1  0.58306640  0.41990707  0.18822289  1
  Se  Se232  1  0.57536641  0.42642103  0.69696848  1
  Se  Se233  1  0.57879786  0.75516854  0.18747197  1
  Se  Se234  1  0.58276250  0.75275577  0.69571787  1
  Se  Se235  1  0.91158168  0.08005464  0.19948099  1
  Se  Se236  1  0.91867582  0.07634630  0.69485387  1
  Se  Se237  1  0.91508650  0.43011311  0.18768188  1
  Se  Se238  1  0.90790150  0.41268794  0.70250622  1
  Se  Se239  1  0.91630614  0.75177415  0.19337010  1
  Se  Se240  1  0.94639182  0.71605541  0.69157837  1
  Se  Se241  1  0.08982263  0.24465839  0.18152379  1
  Se  Se242  1  0.07959001  0.24826783  0.69775681  1
  Se  Se243  1  0.07712356  0.58976353  0.18798596  1
  Se  Se244  1  0.10073925  0.55910582  0.70492371  1
  Se  Se245  1  0.07370421  0.92212352  0.19000636  1
  Se  Se246  1  0.08866273  0.91962325  0.70459650  1
  Se  Se247  1  0.42794672  0.23679234  0.20193877  1
  Se  Se248  1  0.42191252  0.24983055  0.69282436  1
  Se  Se249  1  0.42434354  0.57418558  0.18420687  1
  Se  Se250  1  0.41640435  0.59410721  0.69682755  1
  Se  Se251  1  0.41007530  0.90093179  0.19039881  1
  Se  Se252  1  0.41176221  0.92035218  0.69976165  1
  Se  Se253  1  0.75698197  0.25174740  0.20032736  1
  Se  Se254  1  0.75371077  0.23545976  0.68238712  1
  Se  Se255  1  0.75816387  0.58554613  0.18774479  1
  Se  Se256  1  0.74602319  0.58579382  0.70055309  1
  Se  Se257  1  0.74955756  0.90977319  0.18760908  1
  Se  Se258  1  0.76933600  0.89095876  0.69767810  1
