# generated using pymatgen
data_In86Cu29Se144
_symmetry_space_group_name_H-M   'P 1'
_cell_length_a   17.57766921
_cell_length_b   17.58088549
_cell_length_c   23.43222893
_cell_angle_alpha   89.99990786
_cell_angle_beta   90.01829691
_cell_angle_gamma   90.01719217
_symmetry_Int_Tables_number   1
_chemical_formula_structural   In86Cu29Se144
_chemical_formula_sum   'In86 Cu29 Se144'
_cell_volume   7241.28419873
_cell_formula_units_Z   1
loop_
 _symmetry_equiv_pos_site_id
 _symmetry_equiv_pos_as_xyz
  1  'x, y, z'
loop_
 _atom_site_type_symbol
 _atom_site_label
 _atom_site_symmetry_multiplicity
 _atom_site_fract_x
 _atom_site_fract_y
 _atom_site_fract_z
 _atom_site_occupancy
  In  In0  1  0.00611525  0.16995940  0.12426828  1
  In  In1  1  0.00521590  0.18149828  0.59970253  1
  In  In2  1  -0.00744549  0.50612443  0.13272448  1
  In  In3  1  0.00283253  0.49928753  0.61706374  1
  In  In4  1  -0.00827620  0.82537240  0.11694382  1
  In  In5  1  -0.01265213  0.81977085  0.63081795  1
  In  In6  1  0.33155717  0.17544180  0.13106725  1
  In  In7  1  0.34607826  0.17319291  0.61603085  1
  In  In8  1  0.32216283  0.49560757  0.13017829  1
  In  In9  1  0.32802104  0.50319130  0.61779047  1
  In  In10  1  0.33528127  0.83839799  0.11601050  1
  In  In11  1  0.34140786  0.81535063  0.62436219  1
  In  In12  1  0.66250588  0.15797165  0.12717873  1
  In  In13  1  0.68196350  0.17328517  0.60983166  1
  In  In14  1  0.67633690  0.48649773  0.12495567  1
  In  In15  1  0.66931105  0.50424309  0.62894494  1
  In  In16  1  0.67087560  0.83380490  0.11853548  1
  In  In17  1  0.65990206  0.82643356  0.62795653  1
  In  In18  1  0.17055329  0.00241172  0.37724105  1
  In  In19  1  0.16093795  0.00554073  0.88237207  1
  In  In20  1  0.16203987  0.33070032  0.38031862  1
  In  In21  1  0.16518947  0.32578336  0.87407449  1
  In  In22  1  0.15423781  0.66847800  0.37598443  1
  In  In23  1  0.17618671  0.67279905  0.86563893  1
  In  In24  1  0.52002934  -0.01434530  0.39150324  1
  In  In25  1  0.49336684  -0.00278932  0.87674129  1
  In  In26  1  0.49096781  0.33844902  0.38598725  1
  In  In27  1  0.51133448  0.34495706  0.86220094  1
  In  In28  1  0.49383537  0.66869712  0.39353417  1
  In  In29  1  0.51000757  0.67656656  0.86500592  1
  In  In30  1  0.83332849  0.01456383  0.37352092  1
  In  In31  1  0.83480534  0.00010337  0.88366376  1
  In  In32  1  0.84097497  0.34181827  0.38280474  1
  In  In33  1  0.83094179  0.34088942  0.87826656  1
  In  In34  1  0.83761163  0.65245297  0.37806396  1
  In  In35  1  0.83752359  0.67369400  0.86864311  1
  In  In36  1  -0.02615381  0.19160040  0.40142051  1
  In  In37  1  0.00164972  0.16597152  0.88260087  1
  In  In38  1  0.00250483  0.50070878  0.37991872  1
  In  In39  1  -0.01994922  0.50296338  0.87017328  1
  In  In40  1  0.00844446  0.82605553  0.36892145  1
  In  In41  1  0.00370047  0.82991823  0.87565446  1
  In  In42  1  0.32222054  0.17452500  0.38464024  1
  In  In43  1  0.32550668  0.17309024  0.87316759  1
  In  In44  1  0.34206297  0.49257012  0.38944263  1
  In  In45  1  0.33851981  0.50222717  0.86196224  1
  In  In46  1  0.34042143  0.83736102  0.37579614  1
  In  In47  1  0.34172518  0.82805092  0.87980817  1
  In  In48  1  0.67856255  0.15460143  0.38718205  1
  In  In49  1  0.67520948  0.18129726  0.86980664  1
  In  In50  1  0.66823496  0.49653963  0.38898254  1
  In  In51  1  0.70379344  0.52967617  0.83825366  1
  In  In52  1  0.65392986  0.83408414  0.36914870  1
  In  In53  1  0.67486673  0.82363150  0.88231438  1
  In  In54  1  0.16896269  0.00090435  0.11826681  1
  In  In55  1  0.15951574  0.01397304  0.61950836  1
  In  In56  1  0.17011654  0.32167245  0.13191564  1
  In  In57  1  0.16829941  0.34978733  0.60816578  1
  In  In58  1  0.15235777  0.66090244  0.12204782  1
  In  In59  1  0.17783920  0.65346659  0.63218233  1
  In  In60  1  0.51130871  -0.00414959  0.13199455  1
  In  In61  1  0.51645178  -0.00216912  0.60861650  1
  In  In62  1  0.49782219  0.32131799  0.13335635  1
  In  In63  1  0.49887746  0.33582060  0.62300666  1
  In  In64  1  0.49361019  0.67004207  0.12150530  1
  In  In65  1  0.49640985  0.66584542  0.62209260  1
  In  In66  1  0.82482205  -0.00474780  0.12116073  1
  In  In67  1  0.82725184  0.00573941  0.61802968  1
  In  In68  1  0.84299138  0.34347985  0.11762711  1
  In  In69  1  0.83237163  0.33096188  0.61760888  1
  In  In70  1  0.84089956  0.67434772  0.11419346  1
  In  In71  1  0.84939801  0.65067484  0.65382762  1
  In  In72  1  0.16289111  0.49749372  -0.00255666  1
  In  In73  1  0.66540961  0.32758697  0.25779650  1
  In  In74  1  0.49829609  0.16441540  0.00470599  1
  In  In75  1  0.32981893  0.66422218  0.26151832  1
  In  In76  1  0.33675724  0.00323352  0.25185282  1
  In  In77  1  0.82690720  0.83475791  0.50724788  1
  In  In78  1  0.50706199  0.50052368  -0.00475344  1
  In  In79  1  -0.00177291  0.00016741  0.74973132  1
  In  In80  1  0.17208097  0.83415582  0.49722823  1
  In  In81  1  0.33640307  -0.00376791  0.75419417  1
  In  In82  1  0.00003266  0.33779391  0.74293164  1
  In  In83  1  0.66740914  0.66538264  0.25006001  1
  In  In84  1  -0.00001764  0.00495114  0.25223488  1
  In  In85  1  0.66683100  -0.00298527  0.74186622  1
  Cu  Cu86  1  0.33336365  0.67588780  -0.00609308  1
  Cu  Cu87  1  0.00044115  0.66439708  0.50561965  1
  Cu  Cu88  1  0.33545119  0.32959915  0.00326225  1
  Cu  Cu89  1  0.49611089  0.49983567  0.26376528  1
  Cu  Cu90  1  0.66987247  0.66373009  -0.01019584  1
  Cu  Cu91  1  0.49678639  0.83049568  0.74838404  1
  Cu  Cu92  1  0.84661414  0.50104371  0.25085820  1
  Cu  Cu93  1  -0.00433406  0.00144509  0.00371992  1
  Cu  Cu94  1  0.67027223  0.66478364  0.50659089  1
  Cu  Cu95  1  0.83674769  0.16884436  0.74126961  1
  Cu  Cu96  1  0.32977234  -0.00274602  -0.00192458  1
  Cu  Cu97  1  0.33821914  -0.00257006  0.49909727  1
  Cu  Cu98  1  0.49104617  0.49396112  0.73692608  1
  Cu  Cu99  1  0.15712864  0.17546390  0.25913152  1
  Cu  Cu100  1  0.17459283  0.17843557  0.74532525  1
  Cu  Cu101  1  0.83198355  0.17310708  0.25766337  1
  Cu  Cu102  1  0.67883935  0.33720947  -0.00593478  1
  Cu  Cu103  1  0.00284558  0.32808063  0.00054143  1
  Cu  Cu104  1  0.66458393  0.00000744  0.00256319  1
  Cu  Cu105  1  0.49161468  0.16518715  0.25975926  1
  Cu  Cu106  1  0.16422915  0.82774474  0.74992357  1
  Cu  Cu107  1  0.16480207  0.50078527  0.74086241  1
  Cu  Cu108  1  0.16281408  0.48583420  0.25386705  1
  Cu  Cu109  1  0.83313593  0.83026676  0.24032594  1
  Cu  Cu110  1  0.32836086  0.33288444  0.50368945  1
  Cu  Cu111  1  -0.00239652  0.66717731  -0.00419657  1
  Cu  Cu112  1  0.16277428  0.82423898  0.24372434  1
  Cu  Cu113  1  0.65905568  0.34015799  0.50451199  1
  Cu  Cu114  1  0.50284797  0.17813507  0.74131873  1
  Se  Se115  1  0.08333555  0.08451845  0.05386918  1
  Se  Se116  1  0.08163456  0.08075691  0.54337458  1
  Se  Se117  1  0.08005048  0.41008989  0.06340626  1
  Se  Se118  1  0.05548609  0.39765413  0.54796283  1
  Se  Se119  1  0.08318989  0.74819686  0.05006476  1
  Se  Se120  1  0.08280564  0.74759186  0.56204373  1
  Se  Se121  1  0.40734756  0.07347321  0.06502500  1
  Se  Se122  1  0.42245466  0.08177182  0.55043966  1
  Se  Se123  1  0.41589741  0.41202560  0.06185867  1
  Se  Se124  1  0.41468227  0.41699659  0.55372070  1
  Se  Se125  1  0.41940611  0.75310610  0.04992476  1
  Se  Se126  1  0.42610626  0.75452901  0.54913657  1
  Se  Se127  1  0.74660077  0.08633055  0.05439437  1
  Se  Se128  1  0.74637720  0.07491140  0.54383623  1
  Se  Se129  1  0.75880431  0.42358104  0.04754288  1
  Se  Se130  1  0.74710860  0.42103481  0.55601707  1
  Se  Se131  1  0.74858714  0.74861874  0.04872233  1
  Se  Se132  1  0.75499294  0.73452684  0.56994778  1
  Se  Se133  1  0.25090854  0.24764786  0.05556564  1
  Se  Se134  1  0.24582801  0.24460837  0.55392059  1
  Se  Se135  1  0.25856599  0.59031885  0.05465280  1
  Se  Se136  1  0.23581161  0.57755423  0.55015594  1
  Se  Se137  1  0.24434422  0.91332647  0.04935687  1
  Se  Se138  1  0.25866359  0.92158117  0.56435813  1
  Se  Se139  1  0.59373580  0.26255931  0.05653640  1
  Se  Se140  1  0.57923140  0.24983012  0.55355484  1
  Se  Se141  1  0.59667464  0.58892703  0.06076135  1
  Se  Se142  1  0.58372717  0.58136882  0.55697575  1
  Se  Se143  1  0.57986376  0.91686725  0.05433828  1
  Se  Se144  1  0.60542867  0.91341512  0.54951374  1
  Se  Se145  1  0.91778539  0.24693768  0.05492127  1
  Se  Se146  1  0.89641494  0.24131788  0.54314675  1
  Se  Se147  1  0.92126257  0.58001218  0.05260930  1
  Se  Se148  1  0.91073660  0.59242787  0.56258446  1
  Se  Se149  1  0.91118382  0.91551120  0.05359845  1
  Se  Se150  1  0.92909335  0.92067716  0.56036814  1
  Se  Se151  1  0.09426254  0.23880844  0.45136340  1
  Se  Se152  1  0.08997619  0.24776934  0.94848967  1
  Se  Se153  1  0.08540466  0.58490193  0.45079352  1
  Se  Se154  1  0.07805571  0.58777216  0.93453003  1
  Se  Se155  1  0.07369997  0.92015612  0.44095790  1
  Se  Se156  1  0.07723374  0.91972227  0.94600476  1
  Se  Se157  1  0.41373790  0.24840317  0.45280449  1
  Se  Se158  1  0.42017885  0.25875697  0.93929077  1
  Se  Se159  1  0.41298202  0.58365080  0.45718501  1
  Se  Se160  1  0.41231255  0.58959357  0.93792786  1
  Se  Se161  1  0.42029532  0.90870492  0.45104682  1
  Se  Se162  1  0.41873114  0.91593056  0.94908158  1
  Se  Se163  1  0.74168699  0.26517244  0.44298988  1
  Se  Se164  1  0.75883700  0.24532765  0.94659270  1
  Se  Se165  1  0.75421776  0.58272695  0.45227034  1
  Se  Se166  1  0.75345472  0.58316321  0.93512934  1
  Se  Se167  1  0.74883971  0.91625048  0.43392282  1
  Se  Se168  1  0.74830979  0.91707122  0.94838817  1
  Se  Se169  1  0.24928764  0.07843921  0.45053465  1
  Se  Se170  1  0.25357127  0.08664605  0.94475211  1
  Se  Se171  1  0.24458975  0.41552135  0.44973579  1
  Se  Se172  1  0.26221199  0.41323667  0.94010116  1
  Se  Se173  1  0.25945574  0.74086839  0.43891869  1
  Se  Se174  1  0.24344260  0.75465439  0.94341754  1
  Se  Se175  1  0.57687661  0.09328575  0.45172482  1
  Se  Se176  1  0.59041410  0.08213271  0.93840089  1
  Se  Se177  1  0.57343349  0.42371668  0.45323038  1
  Se  Se178  1  0.59874575  0.41729239  0.93507661  1
  Se  Se179  1  0.59408498  0.74926895  0.44812143  1
  Se  Se180  1  0.57845557  0.74885763  0.94706410  1
  Se  Se181  1  0.91576404  0.07479658  0.45090727  1
  Se  Se182  1  0.91471661  0.08710546  0.94984089  1
  Se  Se183  1  0.90850864  0.43494393  0.45027715  1
  Se  Se184  1  0.92220040  0.41420005  0.94710114  1
  Se  Se185  1  0.92326055  0.74704885  0.44434940  1
  Se  Se186  1  0.91464945  0.75269152  0.94396509  1
  Se  Se187  1  0.24939434  0.25332981  0.30824952  1
  Se  Se188  1  0.25527212  0.26059847  0.80046445  1
  Se  Se189  1  0.24050488  0.56903813  0.31520394  1
  Se  Se190  1  0.24939325  0.58223674  0.79739455  1
  Se  Se191  1  0.24042055  0.90493345  0.30438329  1
  Se  Se192  1  0.23964356  0.91153047  0.81205675  1
  Se  Se193  1  0.57513997  0.24350420  0.31961467  1
  Se  Se194  1  0.58986190  0.25276787  0.79788663  1
  Se  Se195  1  0.58016948  0.58058334  0.31726456  1
  Se  Se196  1  0.56621872  0.56517645  0.80682349  1
  Se  Se197  1  0.57925167  0.92373858  0.30249331  1
  Se  Se198  1  0.57776450  0.91203055  0.80833100  1
  Se  Se199  1  0.91504765  0.25410085  0.31143101  1
  Se  Se200  1  0.91727917  0.24316882  0.80660486  1
  Se  Se201  1  0.92578698  0.58622810  0.30515985  1
  Se  Se202  1  0.90938192  0.58309794  0.79711805  1
  Se  Se203  1  0.90857327  0.90879172  0.30727266  1
  Se  Se204  1  0.90718750  0.91315011  0.80906817  1
  Se  Se205  1  0.08029693  0.09298534  0.31850821  1
  Se  Se206  1  0.09303023  0.09668182  0.80430779  1
  Se  Se207  1  0.07667667  0.41025468  0.31012468  1
  Se  Se208  1  0.08874005  0.42584068  0.80915931  1
  Se  Se209  1  0.07986298  0.74115378  0.29622617  1
  Se  Se210  1  0.07856030  0.74682476  0.80245232  1
  Se  Se211  1  0.41725400  0.08449159  0.32260580  1
  Se  Se212  1  0.42830435  0.09718336  0.80583219  1
  Se  Se213  1  0.41080861  0.41399117  0.31012616  1
  Se  Se214  1  0.41220102  0.41003351  0.79610447  1
  Se  Se215  1  0.43098299  0.75321038  0.30943771  1
  Se  Se216  1  0.41073881  0.74943073  0.80171726  1
  Se  Se217  1  0.74531660  0.08575277  0.30203788  1
  Se  Se218  1  0.75972574  0.08691104  0.80370172  1
  Se  Se219  1  0.75406819  0.42901981  0.30788063  1
  Se  Se220  1  0.74495002  0.39819821  0.80117865  1
  Se  Se221  1  0.76054681  0.75319562  0.30991379  1
  Se  Se222  1  0.73289536  0.73937768  0.80501236  1
  Se  Se223  1  0.23548907  0.09149530  0.19801351  1
  Se  Se224  1  0.25097409  0.08810866  0.69152669  1
  Se  Se225  1  0.25118489  0.40871531  0.20014312  1
  Se  Se226  1  0.24608668  0.41644046  0.68780723  1
  Se  Se227  1  0.24965005  0.74830914  0.18669278  1
  Se  Se228  1  0.25223213  0.74898589  0.69712761  1
  Se  Se229  1  0.57697144  0.09001576  0.20173050  1
  Se  Se230  1  0.58081625  0.09271599  0.68455980  1
  Se  Se231  1  0.57557786  0.42408592  0.19770129  1
  Se  Se232  1  0.58470372  0.41380645  0.69278874  1
  Se  Se233  1  0.57735975  0.75415049  0.19065554  1
  Se  Se234  1  0.57858742  0.74450522  0.69691698  1
  Se  Se235  1  0.90594618  0.09034377  0.19196573  1
  Se  Se236  1  0.92090707  0.09316505  0.68219982  1
  Se  Se237  1  0.92076600  0.40901550  0.19820112  1
  Se  Se238  1  0.90521912  0.42518055  0.68927072  1
  Se  Se239  1  0.91885651  0.74478124  0.19301364  1
  Se  Se240  1  0.91599267  0.75659043  0.71233730  1
  Se  Se241  1  0.07478835  0.25316135  0.20040434  1
  Se  Se242  1  0.08854402  0.24708325  0.68292353  1
  Se  Se243  1  0.08872523  0.57709340  0.19889915  1
  Se  Se244  1  0.07569310  0.58196922  0.69262071  1
  Se  Se245  1  0.08540982  0.91249404  0.18821532  1
  Se  Se246  1  0.09191485  0.91209880  0.68861927  1
  Se  Se247  1  0.41189505  0.25054163  0.20552631  1
  Se  Se248  1  0.41105191  0.25592803  0.69326769  1
  Se  Se249  1  0.42182586  0.57578515  0.19545510  1
  Se  Se250  1  0.40960347  0.58368556  0.68999738  1
  Se  Se251  1  0.42102802  0.90539081  0.19512333  1
  Se  Se252  1  0.42667351  0.91744259  0.68660499  1
  Se  Se253  1  0.75504133  0.24829647  0.18986394  1
  Se  Se254  1  0.75049516  0.24969716  0.68979828  1
  Se  Se255  1  0.76050155  0.57668600  0.19026917  1
  Se  Se256  1  0.73380610  0.59112838  0.70586692  1
  Se  Se257  1  0.74601160  0.91475416  0.19370357  1
  Se  Se258  1  0.76310025  0.90698817  0.68990378  1
