# generated using pymatgen
data_In86Cu29Se144
_symmetry_space_group_name_H-M   'P 1'
_cell_length_a   17.57969961
_cell_length_b   17.58162380
_cell_length_c   23.44234489
_cell_angle_alpha   89.98632066
_cell_angle_beta   90.00102277
_cell_angle_gamma   90.01204671
_symmetry_Int_Tables_number   1
_chemical_formula_structural   In86Cu29Se144
_chemical_formula_sum   'In86 Cu29 Se144'
_cell_volume   7245.55173589
_cell_formula_units_Z   1
loop_
 _symmetry_equiv_pos_site_id
 _symmetry_equiv_pos_as_xyz
  1  'x, y, z'
loop_
 _atom_site_type_symbol
 _atom_site_label
 _atom_site_symmetry_multiplicity
 _atom_site_fract_x
 _atom_site_fract_y
 _atom_site_fract_z
 _atom_site_occupancy
  In  In0  1  0.01487006  0.17055747  0.11427241  1
  In  In1  1  0.00210910  0.17227920  0.62482400  1
  In  In2  1  0.01379030  0.50359847  0.11927923  1
  In  In3  1  -0.00021359  0.48630448  0.61056118  1
  In  In4  1  -0.01085781  0.83027871  0.12601865  1
  In  In5  1  0.01152629  0.83454107  0.62980178  1
  In  In6  1  0.33119548  0.16664025  0.12578161  1
  In  In7  1  0.32572166  0.17575307  0.63520878  1
  In  In8  1  0.32298335  0.50806724  0.12927800  1
  In  In9  1  0.32568421  0.50046205  0.62015141  1
  In  In10  1  0.33759707  0.82609923  0.12814918  1
  In  In11  1  0.33791448  0.83053297  0.63612978  1
  In  In12  1  0.65690000  0.17492828  0.13304150  1
  In  In13  1  0.66964240  0.15837431  0.62412396  1
  In  In14  1  0.67658573  0.49318435  0.13374726  1
  In  In15  1  0.67167756  0.50326628  0.61433603  1
  In  In16  1  0.67662539  0.83527275  0.14209333  1
  In  In17  1  0.67157829  0.83953940  0.62339531  1
  In  In18  1  0.17357146  0.00626907  0.37458417  1
  In  In19  1  0.17387338  0.00798591  0.87348242  1
  In  In20  1  0.17318219  0.32347148  0.38452075  1
  In  In21  1  0.16823809  0.32782476  0.87445722  1
  In  In22  1  0.16430514  0.65991430  0.36786240  1
  In  In23  1  0.16940825  0.65115801  0.87538945  1
  In  In24  1  0.49539136  -0.00319662  0.36958294  1
  In  In25  1  0.50803091  0.00185687  0.86907572  1
  In  In26  1  0.50620852  0.34531364  0.36908440  1
  In  In27  1  0.47709633  0.33719904  0.87525036  1
  In  In28  1  0.48742393  0.64984747  0.36361268  1
  In  In29  1  0.49298483  0.67473878  0.87448187  1
  In  In30  1  0.83240759  0.01440648  0.37429584  1
  In  In31  1  0.83318697  0.01133262  0.86454588  1
  In  In32  1  0.82871401  0.34047845  0.38490533  1
  In  In33  1  0.85557674  0.33329182  0.87518475  1
  In  In34  1  0.82068774  0.65471504  0.36058724  1
  In  In35  1  0.82874353  0.65551043  0.87736415  1
  In  In36  1  -0.00372143  0.17912629  0.39528102  1
  In  In37  1  0.00884049  0.17549029  0.86954781  1
  In  In38  1  -0.00739361  0.49885131  0.38441016  1
  In  In39  1  0.02966026  0.46481245  0.90411661  1
  In  In40  1  0.01112346  0.82991999  0.37023248  1
  In  In41  1  -0.01250410  0.84107363  0.87315655  1
  In  In42  1  0.32775135  0.16311053  0.37426875  1
  In  In43  1  0.33105604  0.16692475  0.87849278  1
  In  In44  1  0.33785278  0.50252591  0.37462020  1
  In  In45  1  0.32091080  0.49159119  0.86585297  1
  In  In46  1  0.33212601  0.83311012  0.36648234  1
  In  In47  1  0.33807521  0.83118422  0.86358692  1
  In  In48  1  0.66945044  0.17840547  0.36600133  1
  In  In49  1  0.66682624  0.15306658  0.87716209  1
  In  In50  1  0.66435010  0.49685187  0.37225014  1
  In  In51  1  0.67639733  0.50606695  0.87995090  1
  In  In52  1  0.66825814  0.83085049  0.36035708  1
  In  In53  1  0.65207221  0.84309811  0.87523039  1
  In  In54  1  0.16774010  0.01898693  0.11993224  1
  In  In55  1  0.16153288  0.00970251  0.63548735  1
  In  In56  1  0.17270215  0.34755066  0.11556632  1
  In  In57  1  0.16832393  0.33311797  0.62082946  1
  In  In58  1  0.18010753  0.64834378  0.13132638  1
  In  In59  1  0.17914687  0.65809024  0.62259414  1
  In  In60  1  0.49172311  0.00502580  0.12849270  1
  In  In61  1  0.49645554  -0.00188948  0.63974095  1
  In  In62  1  0.50483490  0.32445289  0.12995207  1
  In  In63  1  0.48416575  0.33590494  0.62659954  1
  In  In64  1  0.49714695  0.67111629  0.13235626  1
  In  In65  1  0.49329107  0.65403668  0.61694535  1
  In  In66  1  0.83208735  -0.00792393  0.12686538  1
  In  In67  1  0.82955893  0.01525420  0.62932123  1
  In  In68  1  0.82340705  0.32972464  0.12637187  1
  In  In69  1  0.85058714  0.34301291  0.61116526  1
  In  In70  1  0.85007928  0.65982217  0.14427049  1
  In  In71  1  0.84252997  0.65779799  0.62018695  1
  In  In72  1  0.16803889  0.82854559  0.49756098  1
  In  In73  1  0.83258470  0.83388256  0.00776197  1
  In  In74  1  0.66300430  0.32923901  0.74665623  1
  In  In75  1  -0.00012554  0.33505599  0.25472441  1
  In  In76  1  0.49724005  0.83275848  0.00855727  1
  In  In77  1  0.16664915  0.82978741  -0.00716378  1
  In  In78  1  0.83451941  0.82840223  0.49753535  1
  In  In79  1  -0.00068778  0.66544737  0.75156446  1
  In  In80  1  0.00302557  0.00214819  0.24717677  1
  In  In81  1  0.49914971  0.17064347  0.50721791  1
  In  In82  1  0.65877795  0.67394631  0.75051504  1
  In  In83  1  0.49921716  0.82745135  0.50024653  1
  In  In84  1  0.49569475  0.49576758  -0.00153387  1
  In  In85  1  0.83737750  0.17092166  -0.00129326  1
  Cu  Cu86  1  0.66669558  0.00696524  0.49684091  1
  Cu  Cu87  1  -0.00060703  0.00609373  0.50822256  1
  Cu  Cu88  1  0.16979187  0.49808134  0.25003325  1
  Cu  Cu89  1  0.48917135  0.50414380  0.74590388  1
  Cu  Cu90  1  0.16699350  0.49429325  0.74846693  1
  Cu  Cu91  1  0.82619546  0.84521131  0.74936453  1
  Cu  Cu92  1  0.32382998  0.00413477  0.50383217  1
  Cu  Cu93  1  0.50094072  0.83619058  0.24796771  1
  Cu  Cu94  1  0.17076389  0.16879416  0.25211583  1
  Cu  Cu95  1  -0.00311407  0.65583697  0.49375479  1
  Cu  Cu96  1  0.16615901  0.83798803  0.75145161  1
  Cu  Cu97  1  0.17011140  0.16846757  0.75129427  1
  Cu  Cu98  1  0.00128472  0.66230810  0.00819014  1
  Cu  Cu99  1  0.67049592  0.66103047  0.00844581  1
  Cu  Cu100  1  0.16938945  0.82959251  0.24780147  1
  Cu  Cu101  1  0.66376012  0.00369700  0.00023113  1
  Cu  Cu102  1  0.84244973  0.49572658  0.74744474  1
  Cu  Cu103  1  0.83903103  0.17030350  0.74857796  1
  Cu  Cu104  1  0.66345257  0.32789276  0.00600946  1
  Cu  Cu105  1  0.33478268  0.33848011  0.50068321  1
  Cu  Cu106  1  0.49138366  0.16291105  0.25030911  1
  Cu  Cu107  1  0.66972151  0.33611973  0.49329214  1
  Cu  Cu108  1  0.49528268  0.16562729  0.75346214  1
  Cu  Cu109  1  0.33269228  0.00362384  -0.00083133  1
  Cu  Cu110  1  0.32957219  0.32795975  0.00053745  1
  Cu  Cu111  1  0.66346373  0.65875916  0.48807259  1
  Cu  Cu112  1  0.82977065  0.16550745  0.24912124  1
  Cu  Cu113  1  0.83363367  0.49613219  0.25665711  1
  Cu  Cu114  1  0.50004362  0.49705613  0.24789125  1
  Se  Se115  1  0.08258451  0.08128590  0.04484022  1
  Se  Se116  1  0.08852935  0.08506083  0.55833805  1
  Se  Se117  1  0.07810987  0.41359880  0.04749610  1
  Se  Se118  1  0.10088961  0.42311601  0.54828013  1
  Se  Se119  1  0.08298689  0.74559957  0.06391792  1
  Se  Se120  1  0.07246963  0.73826265  0.55622948  1
  Se  Se121  1  0.41581910  0.08476868  0.05498297  1
  Se  Se122  1  0.41017638  0.07668406  0.56468784  1
  Se  Se123  1  0.40946913  0.40838005  0.06250100  1
  Se  Se124  1  0.41907405  0.42171683  0.55255467  1
  Se  Se125  1  0.40485902  0.73219033  0.05345186  1
  Se  Se126  1  0.40072894  0.74370669  0.55509895  1
  Se  Se127  1  0.74591265  0.08246416  0.06047022  1
  Se  Se128  1  0.75257693  0.08575568  0.55010276  1
  Se  Se129  1  0.74615585  0.41409675  0.05528663  1
  Se  Se130  1  0.75392416  0.41902405  0.54842397  1
  Se  Se131  1  0.74832512  0.74128452  0.06894715  1
  Se  Se132  1  0.73914448  0.73666523  0.55501410  1
  Se  Se133  1  0.24589389  0.24620990  0.05553760  1
  Se  Se134  1  0.25792840  0.24888417  0.55435890  1
  Se  Se135  1  0.24417878  0.57393339  0.05049549  1
  Se  Se136  1  0.24678356  0.57986514  0.54670275  1
  Se  Se137  1  0.25631454  0.91762095  0.05806617  1
  Se  Se138  1  0.25037795  0.91816121  0.56418299  1
  Se  Se139  1  0.57872078  0.24350075  0.05381045  1
  Se  Se140  1  0.59268634  0.26414629  0.56298057  1
  Se  Se141  1  0.58388942  0.58277876  0.06358409  1
  Se  Se142  1  0.58237738  0.58109466  0.54786172  1
  Se  Se143  1  0.59481813  0.91877999  0.06455057  1
  Se  Se144  1  0.58479242  0.92880157  0.55625141  1
  Se  Se145  1  0.92428092  0.26498136  0.05690705  1
  Se  Se146  1  0.90912045  0.23506340  0.55246606  1
  Se  Se147  1  0.91362960  0.58464075  0.06206053  1
  Se  Se148  1  0.91204957  0.57475099  0.54738278  1
  Se  Se149  1  0.92978074  0.93095020  0.05340910  1
  Se  Se150  1  0.92111862  0.91778306  0.56229736  1
  Se  Se151  1  0.09027343  0.25089794  0.45787733  1
  Se  Se152  1  0.06831579  0.26663057  0.94320991  1
  Se  Se153  1  0.08939163  0.58090814  0.44314736  1
  Se  Se154  1  0.08740036  0.58500665  0.95239021  1
  Se  Se155  1  0.07552519  0.92678401  0.44409157  1
  Se  Se156  1  0.07588365  0.92338571  0.93911740  1
  Se  Se157  1  0.41539216  0.25627153  0.44030971  1
  Se  Se158  1  0.41717094  0.24716525  0.94943417  1
  Se  Se159  1  0.42207977  0.58137041  0.44541442  1
  Se  Se160  1  0.40829966  0.58241574  0.93581353  1
  Se  Se161  1  0.40477468  0.92352024  0.44511546  1
  Se  Se162  1  0.41287065  0.91973997  0.94172797  1
  Se  Se163  1  0.74803943  0.24388276  0.44553799  1
  Se  Se164  1  0.74479703  0.25850171  0.93681212  1
  Se  Se165  1  0.75384637  0.57768857  0.44026166  1
  Se  Se166  1  0.75470033  0.58032711  0.95521861  1
  Se  Se167  1  0.74205371  0.91922798  0.43962507  1
  Se  Se168  1  0.74668182  0.92462691  0.94132823  1
  Se  Se169  1  0.24493004  0.08874203  0.44938778  1
  Se  Se170  1  0.24616163  0.08739714  0.94977696  1
  Se  Se171  1  0.25394249  0.41956014  0.44407053  1
  Se  Se172  1  0.25174220  0.41312246  0.94398461  1
  Se  Se173  1  0.25797752  0.74220632  0.43740804  1
  Se  Se174  1  0.26146668  0.74224917  0.93684820  1
  Se  Se175  1  0.58211370  0.08374755  0.43890524  1
  Se  Se176  1  0.57731670  0.08255050  0.94761895  1
  Se  Se177  1  0.58167345  0.41937975  0.44597101  1
  Se  Se178  1  0.58915534  0.40652444  0.93828175  1
  Se  Se179  1  0.58640881  0.74523680  0.43252362  1
  Se  Se180  1  0.59245301  0.74133648  0.94773949  1
  Se  Se181  1  0.91307246  0.08164771  0.45139668  1
  Se  Se182  1  0.92256374  0.08047427  0.93736601  1
  Se  Se183  1  0.93222779  0.39713959  0.44929238  1
  Se  Se184  1  0.89706052  0.43600415  0.94569715  1
  Se  Se185  1  0.92125950  0.74091367  0.43421022  1
  Se  Se186  1  0.92233038  0.74082793  0.94527845  1
  Se  Se187  1  0.25201297  0.25356433  0.30591654  1
  Se  Se188  1  0.25468142  0.25044896  0.80515305  1
  Se  Se189  1  0.25503247  0.58282347  0.30162009  1
  Se  Se190  1  0.24861410  0.58467221  0.79680664  1
  Se  Se191  1  0.24437540  0.91816731  0.30352895  1
  Se  Se192  1  0.25027759  0.91967416  0.80468278  1
  Se  Se193  1  0.57527948  0.25011832  0.30080718  1
  Se  Se194  1  0.57551979  0.24658823  0.81413304  1
  Se  Se195  1  0.58671341  0.58038129  0.29996998  1
  Se  Se196  1  0.57534775  0.57319025  0.80952126  1
  Se  Se197  1  0.58277781  0.92145378  0.30067918  1
  Se  Se198  1  0.58278887  0.91639113  0.79817087  1
  Se  Se199  1  0.91080427  0.24160747  0.31234664  1
  Se  Se200  1  0.92405002  0.25480047  0.79804732  1
  Se  Se201  1  0.92407171  0.57720008  0.30540056  1
  Se  Se202  1  0.91757034  0.57237811  0.81295163  1
  Se  Se203  1  0.91493258  0.91732225  0.31181219  1
  Se  Se204  1  0.91619620  0.92378743  0.79957149  1
  Se  Se205  1  0.08132965  0.09784338  0.31237294  1
  Se  Se206  1  0.08590160  0.08433052  0.80370026  1
  Se  Se207  1  0.09274287  0.42037622  0.31426960  1
  Se  Se208  1  0.08329884  0.41731115  0.80790661  1
  Se  Se209  1  0.08430313  0.74652678  0.29874492  1
  Se  Se210  1  0.08822388  0.75660623  0.81370544  1
  Se  Se211  1  0.40883319  0.07962646  0.30485269  1
  Se  Se212  1  0.41377442  0.08324543  0.80896003  1
  Se  Se213  1  0.41350040  0.41658709  0.30142467  1
  Se  Se214  1  0.40988875  0.41492616  0.79667376  1
  Se  Se215  1  0.41789814  0.75110504  0.30080126  1
  Se  Se216  1  0.42651835  0.75224688  0.79794069  1
  Se  Se217  1  0.74522541  0.08293293  0.30153820  1
  Se  Se218  1  0.74657755  0.09002145  0.79677894  1
  Se  Se219  1  0.75022233  0.40967101  0.30669237  1
  Se  Se220  1  0.75484243  0.42006210  0.80610927  1
  Se  Se221  1  0.75936770  0.75563900  0.29650782  1
  Se  Se222  1  0.75553133  0.75945267  0.81238629  1
  Se  Se223  1  0.25006217  0.08257544  0.19782705  1
  Se  Se224  1  0.25566172  0.08102350  0.70244780  1
  Se  Se225  1  0.25027401  0.41270072  0.19610127  1
  Se  Se226  1  0.25132764  0.41452142  0.69241420  1
  Se  Se227  1  0.25319975  0.74484148  0.19588965  1
  Se  Se228  1  0.24116184  0.75028604  0.69546924  1
  Se  Se229  1  0.57932893  0.08236568  0.19728466  1
  Se  Se230  1  0.58278006  0.09027633  0.69751405  1
  Se  Se231  1  0.58501742  0.41237161  0.19655050  1
  Se  Se232  1  0.57913091  0.42917012  0.68895143  1
  Se  Se233  1  0.58516188  0.74826243  0.19992932  1
  Se  Se234  1  0.57407884  0.75513353  0.68190070  1
  Se  Se235  1  0.91574003  0.09723460  0.18582557  1
  Se  Se236  1  0.92341905  0.08513245  0.69637940  1
  Se  Se237  1  0.91272583  0.42165074  0.19029305  1
  Se  Se238  1  0.92380566  0.41604639  0.69065622  1
  Se  Se239  1  0.91646215  0.76252935  0.20516861  1
  Se  Se240  1  0.90452066  0.75847901  0.69211125  1
  Se  Se241  1  0.09122207  0.24968875  0.19166013  1
  Se  Se242  1  0.08938936  0.25091927  0.69383763  1
  Se  Se243  1  0.08218956  0.58069111  0.19874091  1
  Se  Se244  1  0.08446762  0.57558109  0.68850509  1
  Se  Se245  1  0.09374791  0.91274628  0.18528273  1
  Se  Se246  1  0.07964464  0.92092869  0.70191369  1
  Se  Se247  1  0.41207948  0.24957373  0.19619445  1
  Se  Se248  1  0.41578802  0.25384386  0.70210571  1
  Se  Se249  1  0.41569811  0.58206172  0.19618954  1
  Se  Se250  1  0.40795692  0.58615964  0.69121168  1
  Se  Se251  1  0.41314010  0.91603542  0.19517766  1
  Se  Se252  1  0.41146221  0.91757475  0.70399706  1
  Se  Se253  1  0.74579876  0.25320465  0.20059495  1
  Se  Se254  1  0.76017489  0.25014755  0.68598184  1
  Se  Se255  1  0.75086855  0.58200516  0.20308497  1
  Se  Se256  1  0.75582217  0.57973226  0.69465361  1
  Se  Se257  1  0.75515360  0.92647116  0.20463119  1
  Se  Se258  1  0.74482744  0.92569223  0.69318318  1
