# generated using pymatgen
data_In86Cu29Se144
_symmetry_space_group_name_H-M   'P 1'
_cell_length_a   17.57123357
_cell_length_b   17.57310142
_cell_length_c   23.43298466
_cell_angle_alpha   89.99146102
_cell_angle_beta   90.00962245
_cell_angle_gamma   89.97409900
_symmetry_Int_Tables_number   1
_chemical_formula_structural   In86Cu29Se144
_chemical_formula_sum   'In86 Cu29 Se144'
_cell_volume   7235.66114743
_cell_formula_units_Z   1
loop_
 _symmetry_equiv_pos_site_id
 _symmetry_equiv_pos_as_xyz
  1  'x, y, z'
loop_
 _atom_site_type_symbol
 _atom_site_label
 _atom_site_symmetry_multiplicity
 _atom_site_fract_x
 _atom_site_fract_y
 _atom_site_fract_z
 _atom_site_occupancy
  In  In0  1  0.01556378  0.15984061  0.13346578  1
  In  In1  1  0.01061616  0.17159346  0.61906218  1
  In  In2  1  -0.00496990  0.49925078  0.12849643  1
  In  In3  1  -0.01105166  0.51911764  0.63504746  1
  In  In4  1  -0.00085968  0.83632306  0.13072164  1
  In  In5  1  -0.01033225  0.81837297  0.61454224  1
  In  In6  1  0.31085497  0.17406091  0.12391216  1
  In  In7  1  0.31482836  0.15569647  0.62029529  1
  In  In8  1  0.34674020  0.53145660  0.09466512  1
  In  In9  1  0.32082785  0.50047220  0.62774781  1
  In  In10  1  0.33456413  0.81672346  0.13604745  1
  In  In11  1  0.33911333  0.83934654  0.62380592  1
  In  In12  1  0.67123838  0.16758266  0.12432631  1
  In  In13  1  0.66525495  0.15172197  0.62856944  1
  In  In14  1  0.69879288  0.51867830  0.10461488  1
  In  In15  1  0.68818733  0.49882039  0.62910169  1
  In  In16  1  0.65529010  0.81944403  0.11487708  1
  In  In17  1  0.69900303  0.81083482  0.65235654  1
  In  In18  1  0.16591795  -0.00125801  0.37465639  1
  In  In19  1  0.17818642  -0.00702380  0.87634897  1
  In  In20  1  0.15114045  0.33751056  0.37477035  1
  In  In21  1  0.15398420  0.34445269  0.89373153  1
  In  In22  1  0.16693911  0.68262312  0.35712371  1
  In  In23  1  0.15845149  0.66422258  0.88390394  1
  In  In24  1  0.48642529  0.00657211  0.36989944  1
  In  In25  1  0.49401516  -0.00783950  0.87591756  1
  In  In26  1  0.50248019  0.33378767  0.37010493  1
  In  In27  1  0.50291152  0.35339905  0.88104901  1
  In  In28  1  0.49477185  0.66869394  0.36749039  1
  In  In29  1  0.50586229  0.65709156  0.88745001  1
  In  In30  1  0.84537726  -0.01121683  0.38650058  1
  In  In31  1  0.82508553  -0.00548260  0.86870809  1
  In  In32  1  0.84728871  0.32924802  0.38433136  1
  In  In33  1  0.84417549  0.33127674  0.87570701  1
  In  In34  1  0.83297843  0.66737991  0.37105060  1
  In  In35  1  0.83312853  0.67211817  0.88000417  1
  In  In36  1  0.00294006  0.16737397  0.37950192  1
  In  In37  1  -0.00541405  0.17820651  0.87209939  1
  In  In38  1  -0.00379922  0.49477543  0.36345695  1
  In  In39  1  0.00079006  0.50683465  0.88792059  1
  In  In40  1  -0.00226949  0.83411881  0.36629191  1
  In  In41  1  -0.00692239  0.81326650  0.87186200  1
  In  In42  1  0.32770436  0.14485503  0.36777683  1
  In  In43  1  0.32743235  0.15107679  0.87743690  1
  In  In44  1  0.32133178  0.51224824  0.36810793  1
  In  In45  1  0.32585384  0.50654754  0.90092139  1
  In  In46  1  0.31023829  0.81749571  0.35420577  1
  In  In47  1  0.32835012  0.84837229  0.87675274  1
  In  In48  1  0.67446590  0.17703969  0.37674290  1
  In  In49  1  0.67536893  0.16436224  0.86875801  1
  In  In50  1  0.67413736  0.52061588  0.36820064  1
  In  In51  1  0.65424228  0.51012977  0.88753842  1
  In  In52  1  0.67854115  0.82657887  0.37646853  1
  In  In53  1  0.67145707  0.83039455  0.87554654  1
  In  In54  1  0.15483843  -0.00196707  0.13601424  1
  In  In55  1  0.16854046  0.00113448  0.62128594  1
  In  In56  1  0.16876570  0.33084422  0.11843535  1
  In  In57  1  0.16393386  0.31941691  0.62324596  1
  In  In58  1  0.15989804  0.66780973  0.12761787  1
  In  In59  1  0.15291638  0.65911378  0.62176520  1
  In  In60  1  0.49776008  -0.02362618  0.12077510  1
  In  In61  1  0.50500177  -0.00621310  0.63475578  1
  In  In62  1  0.49406479  0.35449425  0.11244152  1
  In  In63  1  0.49915298  0.33727528  0.62824201  1
  In  In64  1  0.50137801  0.67313871  0.12205056  1
  In  In65  1  0.50776777  0.68251758  0.62616793  1
  In  In66  1  0.85265668  -0.00363548  0.12926289  1
  In  In67  1  0.82913349  -0.00751363  0.61697082  1
  In  In68  1  0.84370371  0.36137305  0.11558584  1
  In  In69  1  0.84753339  0.34619394  0.62363372  1
  In  In70  1  0.83265678  0.66569227  0.12601545  1
  In  In71  1  0.83938158  0.66450843  0.62524859  1
  In  In72  1  0.67141951  0.33797728  0.23786801  1
  In  In73  1  0.16604018  0.82669048  0.00763233  1
  In  In74  1  0.66954207  0.33592469  0.75972866  1
  In  In75  1  0.33143824  0.66994797  0.75979176  1
  In  In76  1  0.49561881  0.16931525  -0.00086606  1
  In  In77  1  0.83490559  0.16459671  -0.00702510  1
  In  In78  1  0.67011509  -0.00649373  0.25822009  1
  In  In79  1  0.50093956  0.83829191  0.50548881  1
  In  In80  1  0.15932214  0.50390426  0.49630686  1
  In  In81  1  0.50696252  0.50313320  0.48632763  1
  In  In82  1  0.50539047  0.16283445  0.49943374  1
  In  In83  1  -0.00368157  -0.00770585  0.74703364  1
  In  In84  1  0.33170588  0.32466021  0.76106172  1
  In  In85  1  0.32667573  0.34366301  0.23914103  1
  Cu  Cu86  1  0.33681859  0.33079273  0.50158863  1
  Cu  Cu87  1  -0.00177519  0.32873696  0.00175552  1
  Cu  Cu88  1  0.49032809  0.15981863  0.75401760  1
  Cu  Cu89  1  0.82816516  0.82875432  0.24792591  1
  Cu  Cu90  1  0.83928307  0.51107261  0.75605048  1
  Cu  Cu91  1  0.49561261  0.51328449  0.23894846  1
  Cu  Cu92  1  -0.00134497  0.67200205  0.49389401  1
  Cu  Cu93  1  0.15554928  0.49227433  0.75917460  1
  Cu  Cu94  1  0.83243949  0.50278141  0.24626935  1
  Cu  Cu95  1  0.16283338  0.16334579  0.74757424  1
  Cu  Cu96  1  0.49730138  0.16325184  0.23774064  1
  Cu  Cu97  1  0.67572557  0.66543708  0.50353350  1
  Cu  Cu98  1  0.00692066  -0.00501841  0.00234191  1
  Cu  Cu99  1  -0.00028429  0.33827658  0.50161307  1
  Cu  Cu100  1  0.16270120  0.17003598  0.25203547  1
  Cu  Cu101  1  0.32501147  -0.00625167  0.49644368  1
  Cu  Cu102  1  0.83464206  0.16906434  0.74582588  1
  Cu  Cu103  1  0.67296168  -0.00648967  0.50417618  1
  Cu  Cu104  1  0.49858639  0.51091404  0.75762582  1
  Cu  Cu105  1  0.32894719  0.00089587  0.00495983  1
  Cu  Cu106  1  0.84873561  0.16755560  0.25357509  1
  Cu  Cu107  1  0.16808116  0.50412459  0.24064827  1
  Cu  Cu108  1  0.68510094  0.33383489  0.50145920  1
  Cu  Cu109  1  0.16611061  0.83075640  0.75091622  1
  Cu  Cu110  1  0.67076896  0.67385929  0.00025429  1
  Cu  Cu111  1  0.50888983  0.83657128  0.75476688  1
  Cu  Cu112  1  0.49585141  0.82786051  0.24534953  1
  Cu  Cu113  1  0.00493268  0.00095415  0.49755793  1
  Cu  Cu114  1  0.67234960  -0.00628380  -0.00348930  1
  Se  Se115  1  0.08585008  0.07865491  0.05698468  1
  Se  Se116  1  0.08829486  0.08391934  0.55163339  1
  Se  Se117  1  0.07499140  0.41377888  0.05811260  1
  Se  Se118  1  0.07716754  0.41824988  0.56569802  1
  Se  Se119  1  0.06317047  0.73994337  0.05574030  1
  Se  Se120  1  0.08734850  0.74801819  0.54845075  1
  Se  Se121  1  0.41149634  0.08008645  0.06477715  1
  Se  Se122  1  0.41285418  0.07053977  0.55723634  1
  Se  Se123  1  0.39534746  0.40929213  0.04361971  1
  Se  Se124  1  0.41285788  0.41734834  0.55679381  1
  Se  Se125  1  0.41923303  0.76116395  0.05706442  1
  Se  Se126  1  0.40728400  0.73851658  0.55467243  1
  Se  Se127  1  0.75005189  0.07222661  0.05823432  1
  Se  Se128  1  0.74997554  0.08715265  0.55282882  1
  Se  Se129  1  0.73282919  0.39587873  0.05005423  1
  Se  Se130  1  0.76207537  0.42425018  0.55241804  1
  Se  Se131  1  0.75869650  0.75369989  0.05301456  1
  Se  Se132  1  0.75268415  0.75159489  0.55972419  1
  Se  Se133  1  0.24974582  0.25306822  0.04533784  1
  Se  Se134  1  0.24863481  0.24790769  0.54958406  1
  Se  Se135  1  0.22293365  0.58377457  0.04781567  1
  Se  Se136  1  0.25666752  0.59108649  0.55355677  1
  Se  Se137  1  0.25177835  0.92039625  0.06713795  1
  Se  Se138  1  0.24793501  0.91073220  0.55525168  1
  Se  Se139  1  0.58857863  0.25621844  0.05864640  1
  Se  Se140  1  0.59282038  0.26041569  0.55927617  1
  Se  Se141  1  0.58704380  0.58908787  0.05436409  1
  Se  Se142  1  0.59027428  0.58507100  0.56094068  1
  Se  Se143  1  0.58359577  0.91175423  0.04563022  1
  Se  Se144  1  0.59679782  0.91536647  0.56771077  1
  Se  Se145  1  0.91995839  0.24575652  0.06411230  1
  Se  Se146  1  0.91863776  0.25270714  0.55593146  1
  Se  Se147  1  0.88821366  0.55559765  0.06329401  1
  Se  Se148  1  0.92107180  0.58622511  0.55101361  1
  Se  Se149  1  0.92049497  0.91365770  0.05393374  1
  Se  Se150  1  0.92006194  0.91753415  0.55031406  1
  Se  Se151  1  0.08397470  0.25377928  0.44995096  1
  Se  Se152  1  0.07778673  0.24058039  0.94992350  1
  Se  Se153  1  0.07781081  0.59280563  0.43060482  1
  Se  Se154  1  0.10334276  0.56879015  0.95667059  1
  Se  Se155  1  0.07906124  0.91469061  0.43936747  1
  Se  Se156  1  0.07951447  0.91330802  0.93762663  1
  Se  Se157  1  0.41238604  0.25019970  0.43688532  1
  Se  Se158  1  0.41050428  0.25414242  0.93341946  1
  Se  Se159  1  0.40540568  0.59331528  0.44101554  1
  Se  Se160  1  0.41686542  0.58910397  0.95899400  1
  Se  Se161  1  0.40969650  0.91645686  0.43823862  1
  Se  Se162  1  0.41301026  0.91961390  0.95117099  1
  Se  Se163  1  0.76126752  0.24381502  0.44972382  1
  Se  Se164  1  0.73985977  0.25796260  0.94088673  1
  Se  Se165  1  0.75609259  0.58363323  0.44646714  1
  Se  Se166  1  0.75124763  0.58533194  0.94911836  1
  Se  Se167  1  0.75240733  0.90840729  0.44944480  1
  Se  Se168  1  0.75861648  0.91223395  0.94539111  1
  Se  Se169  1  0.24623507  0.08566045  0.44736953  1
  Se  Se170  1  0.24272195  0.08033889  0.95173728  1
  Se  Se171  1  0.25755252  0.41157031  0.44025017  1
  Se  Se172  1  0.25999195  0.40019532  0.95774210  1
  Se  Se173  1  0.24615633  0.74690232  0.43674278  1
  Se  Se174  1  0.25962191  0.74660604  0.94222011  1
  Se  Se175  1  0.59450445  0.07026362  0.43770579  1
  Se  Se176  1  0.59225093  0.08035988  0.94132145  1
  Se  Se177  1  0.60236847  0.40651637  0.43611425  1
  Se  Se178  1  0.58307887  0.41886922  0.95664629  1
  Se  Se179  1  0.58722186  0.73985889  0.44475216  1
  Se  Se180  1  0.58427997  0.75482369  0.94717157  1
  Se  Se181  1  0.91777006  0.08648353  0.44905982  1
  Se  Se182  1  0.92649872  0.07016098  0.93672285  1
  Se  Se183  1  0.92376819  0.42636294  0.44628755  1
  Se  Se184  1  0.91478442  0.41356199  0.95002226  1
  Se  Se185  1  0.91515293  0.75330085  0.43816158  1
  Se  Se186  1  0.92272486  0.74424220  0.95133002  1
  Se  Se187  1  0.24882281  0.25207210  0.30940556  1
  Se  Se188  1  0.23302537  0.24203383  0.81688735  1
  Se  Se189  1  0.24962948  0.58999523  0.29324401  1
  Se  Se190  1  0.24532190  0.56953917  0.81460060  1
  Se  Se191  1  0.27184470  0.94350755  0.30867303  1
  Se  Se192  1  0.25087510  0.91778557  0.79776342  1
  Se  Se193  1  0.57862702  0.24122330  0.29948564  1
  Se  Se194  1  0.56834696  0.24528354  0.81212861  1
  Se  Se195  1  0.57990236  0.58716070  0.29980433  1
  Se  Se196  1  0.58620285  0.58965383  0.80879078  1
  Se  Se197  1  0.57154289  0.90317269  0.31364960  1
  Se  Se198  1  0.58843629  0.92112309  0.80977171  1
  Se  Se199  1  0.92503583  0.25514868  0.30846796  1
  Se  Se200  1  0.91585131  0.25427518  0.79767564  1
  Se  Se201  1  0.91572419  0.58613377  0.30029312  1
  Se  Se202  1  0.92323400  0.58758309  0.81434958  1
  Se  Se203  1  0.90579535  0.91764940  0.30147928  1
  Se  Se204  1  0.90673535  0.90054903  0.80365944  1
  Se  Se205  1  0.08294427  0.08652552  0.30783046  1
  Se  Se206  1  0.08440294  0.08226815  0.81069635  1
  Se  Se207  1  0.08860213  0.41923809  0.29626973  1
  Se  Se208  1  0.07429139  0.41320836  0.81648473  1
  Se  Se209  1  0.08451587  0.76711187  0.29046552  1
  Se  Se210  1  0.09058748  0.74454430  0.80591114  1
  Se  Se211  1  0.41450796  0.08139943  0.29146922  1
  Se  Se212  1  0.40954255  0.07402479  0.80627096  1
  Se  Se213  1  0.42393569  0.42844591  0.30333835  1
  Se  Se214  1  0.41184187  0.43292215  0.81282913  1
  Se  Se215  1  0.41049153  0.74165958  0.29476717  1
  Se  Se216  1  0.42517535  0.75837145  0.81629515  1
  Se  Se217  1  0.76124548  0.09012198  0.31134866  1
  Se  Se218  1  0.75290259  0.08361417  0.79773231  1
  Se  Se219  1  0.75605423  0.41758986  0.31007290  1
  Se  Se220  1  0.75715351  0.43022555  0.81620279  1
  Se  Se221  1  0.74413881  0.74445007  0.29977246  1
  Se  Se222  1  0.74823007  0.74387772  0.80658639  1
  Se  Se223  1  0.24468767  0.08747218  0.19704234  1
  Se  Se224  1  0.24693393  0.07793749  0.69844081  1
  Se  Se225  1  0.25186424  0.43724152  0.17405479  1
  Se  Se226  1  0.23962310  0.41577793  0.69867897  1
  Se  Se227  1  0.22105468  0.76798001  0.19598121  1
  Se  Se228  1  0.24608207  0.74957349  0.68885707  1
  Se  Se229  1  0.58305544  0.07804359  0.18742417  1
  Se  Se230  1  0.58140149  0.08289424  0.70284818  1
  Se  Se231  1  0.57953502  0.43157604  0.18401920  1
  Se  Se232  1  0.57806836  0.42673867  0.69739489  1
  Se  Se233  1  0.58625695  0.74830677  0.19629211  1
  Se  Se234  1  0.58680841  0.74470124  0.70563430  1
  Se  Se235  1  0.92715579  0.07952290  0.20071229  1
  Se  Se236  1  0.91556228  0.08931551  0.68594865  1
  Se  Se237  1  0.91700659  0.41208654  0.20224204  1
  Se  Se238  1  0.91762333  0.42314199  0.70193060  1
  Se  Se239  1  0.91455596  0.74794359  0.19587308  1
  Se  Se240  1  0.92460417  0.74451966  0.69409754  1
  Se  Se241  1  0.08857573  0.25881717  0.19587979  1
  Se  Se242  1  0.08061255  0.25071751  0.69835476  1
  Se  Se243  1  0.07520939  0.58567157  0.19632807  1
  Se  Se244  1  0.08613620  0.58518279  0.70321443  1
  Se  Se245  1  0.08131097  0.91028086  0.20516498  1
  Se  Se246  1  0.08659236  0.90523361  0.68626005  1
  Se  Se247  1  0.42256556  0.25170075  0.18265568  1
  Se  Se248  1  0.41673889  0.24012908  0.68930879  1
  Se  Se249  1  0.40772324  0.59058130  0.18546948  1
  Se  Se250  1  0.41920383  0.58213474  0.69064254  1
  Se  Se251  1  0.41237844  0.91572649  0.19746253  1
  Se  Se252  1  0.41858492  0.91064393  0.69985466  1
  Se  Se253  1  0.76808202  0.24228761  0.18924763  1
  Se  Se254  1  0.75113673  0.25232566  0.68808861  1
  Se  Se255  1  0.74426716  0.58461576  0.19665066  1
  Se  Se256  1  0.75307477  0.58812063  0.70005323  1
  Se  Se257  1  0.74928116  0.91110407  0.18600264  1
  Se  Se258  1  0.74419079  0.93618399  0.69606592  1
