# generated using pymatgen
data_In86Cu29Se144
_symmetry_space_group_name_H-M   'P 1'
_cell_length_a   17.58124320
_cell_length_b   17.57512839
_cell_length_c   23.43588500
_cell_angle_alpha   89.98997153
_cell_angle_beta   90.01096780
_cell_angle_gamma   90.01821503
_symmetry_Int_Tables_number   1
_chemical_formula_structural   In86Cu29Se144
_chemical_formula_sum   'In86 Cu29 Se144'
_cell_volume   7241.51458056
_cell_formula_units_Z   1
loop_
 _symmetry_equiv_pos_site_id
 _symmetry_equiv_pos_as_xyz
  1  'x, y, z'
loop_
 _atom_site_type_symbol
 _atom_site_label
 _atom_site_symmetry_multiplicity
 _atom_site_fract_x
 _atom_site_fract_y
 _atom_site_fract_z
 _atom_site_occupancy
  In  In0  1  -0.00653907  0.15536622  0.13059020  1
  In  In1  1  0.00998198  0.17659448  0.61435093  1
  In  In2  1  0.00561574  0.51294026  0.12542292  1
  In  In3  1  -0.00470395  0.50319524  0.62276626  1
  In  In4  1  0.00325747  0.83641699  0.12870226  1
  In  In5  1  0.00391161  0.81996630  0.62730917  1
  In  In6  1  0.32051835  0.15566706  0.12933925  1
  In  In7  1  0.32043760  0.15893332  0.61797361  1
  In  In8  1  0.35342839  0.50751315  0.12092220  1
  In  In9  1  0.32729370  0.48954234  0.60468903  1
  In  In10  1  0.33738840  0.82896661  0.12552318  1
  In  In11  1  0.32822141  0.84406828  0.62720539  1
  In  In12  1  0.67487505  0.16506073  0.13283958  1
  In  In13  1  0.66473240  0.15123780  0.62332805  1
  In  In14  1  0.66526743  0.49741260  0.12248709  1
  In  In15  1  0.67139394  0.50229630  0.62197475  1
  In  In16  1  0.67239714  0.84528738  0.10765197  1
  In  In17  1  0.66632174  0.83203234  0.63947684  1
  In  In18  1  0.16814589  0.00454316  0.37129723  1
  In  In19  1  0.17017050  -0.02601818  0.87331903  1
  In  In20  1  0.17497566  0.33233217  0.38875253  1
  In  In21  1  0.16298916  0.34638019  0.86802797  1
  In  In22  1  0.16018712  0.66671000  0.37241164  1
  In  In23  1  0.16426127  0.68989729  0.87222045  1
  In  In24  1  0.49234507  -0.00574377  0.36398249  1
  In  In25  1  0.49289953  -0.01122659  0.87587546  1
  In  In26  1  0.51268181  0.33507280  0.37367875  1
  In  In27  1  0.50120306  0.34131057  0.88023225  1
  In  In28  1  0.48880160  0.67406889  0.37322747  1
  In  In29  1  0.49983148  0.65634367  0.88554788  1
  In  In30  1  0.84199019  0.00661904  0.37136457  1
  In  In31  1  0.82168942  -0.00370985  0.87760636  1
  In  In32  1  0.82462566  0.33852805  0.38115293  1
  In  In33  1  0.84561515  0.32929642  0.87234547  1
  In  In34  1  0.84682779  0.65557648  0.37951232  1
  In  In35  1  0.83363740  0.66914955  0.87724660  1
  In  In36  1  0.01029193  0.15618907  0.38529023  1
  In  In37  1  -0.00878115  0.16986190  0.86815324  1
  In  In38  1  -0.00041199  0.50170344  0.37874751  1
  In  In39  1  -0.01028194  0.49808862  0.86815684  1
  In  In40  1  0.02719624  0.85620932  0.35128193  1
  In  In41  1  0.01370642  0.81897660  0.88285090  1
  In  In42  1  0.32871832  0.15713501  0.37037581  1
  In  In43  1  0.34094809  0.15504512  0.87399130  1
  In  In44  1  0.32370918  0.50897850  0.38653563  1
  In  In45  1  0.33460927  0.51282471  0.88108385  1
  In  In46  1  0.30041447  0.81215675  0.34204602  1
  In  In47  1  0.31697312  0.83643949  0.89197998  1
  In  In48  1  0.66617602  0.17124299  0.37082469  1
  In  In49  1  0.67537931  0.15966294  0.87180889  1
  In  In50  1  0.68031994  0.49815212  0.38119006  1
  In  In51  1  0.65927998  0.51456758  0.88069509  1
  In  In52  1  0.65784098  0.83546583  0.36828152  1
  In  In53  1  0.66941372  0.83465952  0.88103130  1
  In  In54  1  0.19791177  -0.03612808  0.17104789  1
  In  In55  1  0.16829177  0.00118342  0.61799884  1
  In  In56  1  0.16953597  0.32985561  0.12990342  1
  In  In57  1  0.15963502  0.32648831  0.61609046  1
  In  In58  1  0.15700453  0.68559753  0.14267083  1
  In  In59  1  0.16081441  0.65946812  0.61916125  1
  In  In60  1  0.51297966  -0.01079225  0.12548819  1
  In  In61  1  0.50334425  -0.00369816  0.63393287  1
  In  In62  1  0.50015940  0.35263717  0.12565759  1
  In  In63  1  0.48416833  0.34006778  0.62062936  1
  In  In64  1  0.49284167  0.66726372  0.11456615  1
  In  In65  1  0.50704550  0.66288066  0.63040699  1
  In  In66  1  0.83603609  -0.00743835  0.12752560  1
  In  In67  1  0.82227801  -0.00531054  0.62187845  1
  In  In68  1  0.82388300  0.32665456  0.12543864  1
  In  In69  1  0.84244746  0.34243418  0.61707191  1
  In  In70  1  0.84531463  0.67487865  0.11626692  1
  In  In71  1  0.83771404  0.65644899  0.63190731  1
  In  In72  1  0.49200232  0.83533542  0.49977410  1
  In  In73  1  0.33502207  0.66935991  0.75255210  1
  In  In74  1  -0.00182830  0.33303398  0.26052255  1
  In  In75  1  0.83563916  0.16417082  0.00075312  1
  In  In76  1  0.32565249  0.32842741  0.73833202  1
  In  In77  1  0.33922671  0.33406746  0.25642000  1
  In  In78  1  0.49499539  0.17206606  0.49783311  1
  In  In79  1  0.84134553  0.82615765  0.49940979  1
  In  In80  1  0.16225225  0.16252720  0.01177099  1
  In  In81  1  0.66905864  0.66986734  0.24183574  1
  In  In82  1  0.66773941  0.33157293  0.75379875  1
  In  In83  1  0.17475170  0.51439826  0.00005412  1
  In  In84  1  -0.00124125  -0.00108445  0.74809307  1
  In  In85  1  0.50073938  0.16981719  -0.00474122  1
  Cu  Cu86  1  0.83136437  0.83260336  0.75585392  1
  Cu  Cu87  1  0.66901737  0.66471530  -0.00029424  1
  Cu  Cu88  1  0.49915876  0.15080471  0.75147402  1
  Cu  Cu89  1  0.83681415  0.49714448  0.25532447  1
  Cu  Cu90  1  0.66683626  0.66020392  0.50516936  1
  Cu  Cu91  1  0.50210810  0.83177156  0.75774462  1
  Cu  Cu92  1  0.82965624  0.50864438  0.74817548  1
  Cu  Cu93  1  0.50242422  0.16668423  0.24796301  1
  Cu  Cu94  1  0.49583046  0.50192192  0.75370932  1
  Cu  Cu95  1  0.15162439  0.50604114  0.74626967  1
  Cu  Cu96  1  0.50155873  0.84186439  0.24202536  1
  Cu  Cu97  1  0.00506210  0.34022356  -0.00613827  1
  Cu  Cu98  1  -0.00145274  0.66783609  0.00279257  1
  Cu  Cu99  1  -0.00556129  0.33676898  0.49823938  1
  Cu  Cu100  1  0.00614885  0.00062541  0.49326988  1
  Cu  Cu101  1  0.32882238  0.67195416  0.49268001  1
  Cu  Cu102  1  0.00376707  0.66804183  0.49885930  1
  Cu  Cu103  1  0.00293687  -0.01252626  0.00511141  1
  Cu  Cu104  1  0.82586032  0.16481320  0.25464204  1
  Cu  Cu105  1  0.16476200  0.16327877  0.74141960  1
  Cu  Cu106  1  0.66892916  0.00149676  0.49759451  1
  Cu  Cu107  1  0.50665065  0.50734436  0.24766596  1
  Cu  Cu108  1  0.32809140  -0.00611461  0.49278833  1
  Cu  Cu109  1  0.83674638  0.16868730  0.74615867  1
  Cu  Cu110  1  0.66466609  0.34325275  0.00257010  1
  Cu  Cu111  1  0.32423790  -0.00336353  0.00935483  1
  Cu  Cu112  1  0.82984359  0.82766657  0.24199260  1
  Cu  Cu113  1  0.17720449  0.50783733  0.25309602  1
  Cu  Cu114  1  0.66772641  0.33594494  0.49803993  1
  Se  Se115  1  0.07889491  0.06664732  0.06775619  1
  Se  Se116  1  0.08796896  0.08538766  0.54935020  1
  Se  Se117  1  0.08502607  0.41375676  0.05802705  1
  Se  Se118  1  0.07763989  0.41857845  0.55435806  1
  Se  Se119  1  0.08195831  0.74845926  0.05893108  1
  Se  Se120  1  0.08655171  0.75303101  0.55096878  1
  Se  Se121  1  0.41145158  0.08119162  0.05939750  1
  Se  Se122  1  0.41479091  0.06703506  0.55508413  1
  Se  Se123  1  0.41588124  0.41516956  0.05016537  1
  Se  Se124  1  0.42529432  0.42020651  0.54191532  1
  Se  Se125  1  0.42787552  0.76743306  0.05088400  1
  Se  Se126  1  0.40797686  0.74182932  0.56245878  1
  Se  Se127  1  0.74316370  0.07626553  0.05710878  1
  Se  Se128  1  0.75276123  0.08407666  0.54958894  1
  Se  Se129  1  0.75592481  0.41797727  0.05530299  1
  Se  Se130  1  0.75068004  0.42000918  0.55203693  1
  Se  Se131  1  0.75419442  0.74932441  0.04963823  1
  Se  Se132  1  0.74341601  0.74705932  0.56315999  1
  Se  Se133  1  0.26065344  0.25918614  0.05751171  1
  Se  Se134  1  0.26778779  0.26581056  0.55645583  1
  Se  Se135  1  0.24913831  0.59642337  0.07331721  1
  Se  Se136  1  0.24717448  0.58665105  0.54737387  1
  Se  Se137  1  0.24241691  0.92020001  0.06986995  1
  Se  Se138  1  0.24738758  0.91189267  0.54999708  1
  Se  Se139  1  0.59109016  0.25477478  0.06130724  1
  Se  Se140  1  0.58915475  0.25688339  0.56124776  1
  Se  Se141  1  0.58543315  0.58252740  0.05467067  1
  Se  Se142  1  0.57870277  0.58021521  0.55629972  1
  Se  Se143  1  0.57518048  0.91591921  0.04352632  1
  Se  Se144  1  0.59216614  0.91886514  0.55916669  1
  Se  Se145  1  0.92948524  0.25758287  0.05758869  1
  Se  Se146  1  0.91275612  0.24807027  0.54972284  1
  Se  Se147  1  0.91782805  0.57697347  0.05098929  1
  Se  Se148  1  0.91511153  0.58911383  0.55204554  1
  Se  Se149  1  0.91333070  0.90950179  0.05639784  1
  Se  Se150  1  0.92867109  0.92254299  0.55916291  1
  Se  Se151  1  0.08242210  0.25172423  0.45060342  1
  Se  Se152  1  0.08131917  0.25213078  0.93872687  1
  Se  Se153  1  0.08660080  0.58188518  0.44608068  1
  Se  Se154  1  0.07567664  0.58935859  0.93707024  1
  Se  Se155  1  0.08871952  0.91593300  0.44120556  1
  Se  Se156  1  0.09027769  0.90848818  0.95155267  1
  Se  Se157  1  0.40849238  0.25749482  0.43373567  1
  Se  Se158  1  0.40270867  0.25884625  0.94098988  1
  Se  Se159  1  0.42055561  0.58977266  0.44712942  1
  Se  Se160  1  0.41476656  0.58003897  0.95603172  1
  Se  Se161  1  0.40359265  0.91189548  0.43133403  1
  Se  Se162  1  0.40946152  0.92003118  0.95191046  1
  Se  Se163  1  0.74530240  0.24619939  0.44616993  1
  Se  Se164  1  0.74273490  0.25959774  0.94226514  1
  Se  Se165  1  0.75633611  0.58634098  0.45023513  1
  Se  Se166  1  0.75534939  0.58177355  0.94777402  1
  Se  Se167  1  0.74584096  0.91495399  0.44041833  1
  Se  Se168  1  0.75159303  0.91651667  0.95121831  1
  Se  Se169  1  0.24761776  0.08604508  0.44607760  1
  Se  Se170  1  0.24931174  0.07564978  0.94352282  1
  Se  Se171  1  0.25101032  0.42011648  0.45439275  1
  Se  Se172  1  0.25383534  0.41035891  0.94213362  1
  Se  Se173  1  0.24889173  0.75498032  0.43637999  1
  Se  Se174  1  0.25816503  0.72680419  0.95035525  1
  Se  Se175  1  0.58024273  0.07409249  0.43935148  1
  Se  Se176  1  0.59034875  0.07664166  0.93992798  1
  Se  Se177  1  0.58603824  0.42053338  0.44529354  1
  Se  Se178  1  0.58093079  0.42386667  0.94792735  1
  Se  Se179  1  0.59088146  0.74406194  0.44479971  1
  Se  Se180  1  0.58474064  0.74705252  0.94636940  1
  Se  Se181  1  0.91264302  0.08247283  0.45009419  1
  Se  Se182  1  0.93031593  0.07307610  0.94290517  1
  Se  Se183  1  0.91220651  0.42152953  0.44563955  1
  Se  Se184  1  0.91507309  0.41784578  0.94418493  1
  Se  Se185  1  0.93654583  0.75367977  0.43312258  1
  Se  Se186  1  0.91565132  0.75175706  0.94838662  1
  Se  Se187  1  0.23788628  0.24753487  0.30720365  1
  Se  Se188  1  0.24329887  0.24030658  0.80812231  1
  Se  Se189  1  0.25915316  0.58983915  0.30795208  1
  Se  Se190  1  0.23788491  0.57697231  0.80857901  1
  Se  Se191  1  0.25279595  0.93430005  0.29391314  1
  Se  Se192  1  0.25899880  0.90518075  0.80443657  1
  Se  Se193  1  0.58427868  0.25235137  0.30000197  1
  Se  Se194  1  0.57115777  0.23973400  0.81082941  1
  Se  Se195  1  0.58573629  0.58543363  0.31148698  1
  Se  Se196  1  0.57798802  0.58607175  0.80536236  1
  Se  Se197  1  0.58658903  0.92127519  0.29709656  1
  Se  Se198  1  0.58681353  0.91684715  0.80883511  1
  Se  Se199  1  0.90828671  0.24083639  0.31742425  1
  Se  Se200  1  0.92076145  0.25478491  0.79474966  1
  Se  Se201  1  0.92357655  0.58108806  0.30286281  1
  Se  Se202  1  0.91437842  0.59022991  0.80258927  1
  Se  Se203  1  0.90611217  0.91049641  0.30263094  1
  Se  Se204  1  0.91544342  0.91147106  0.81433211  1
  Se  Se205  1  0.06827603  0.07362255  0.30661650  1
  Se  Se206  1  0.09264480  0.08548155  0.81121884  1
  Se  Se207  1  0.09915212  0.42190757  0.31139997  1
  Se  Se208  1  0.07416858  0.41589190  0.79837306  1
  Se  Se209  1  0.08504086  0.74440088  0.29633824  1
  Se  Se210  1  0.07744036  0.75163923  0.79781866  1
  Se  Se211  1  0.41498787  0.08580320  0.29875496  1
  Se  Se212  1  0.41211571  0.07028628  0.80257696  1
  Se  Se213  1  0.42539259  0.43172473  0.31209149  1
  Se  Se214  1  0.41142067  0.41811280  0.80656911  1
  Se  Se215  1  0.42300402  0.75524969  0.29626465  1
  Se  Se216  1  0.42094965  0.75389631  0.81806058  1
  Se  Se217  1  0.74383261  0.07787476  0.30657503  1
  Se  Se218  1  0.75784928  0.08352275  0.80076338  1
  Se  Se219  1  0.74874677  0.41597864  0.30421161  1
  Se  Se220  1  0.75485171  0.42542929  0.81223275  1
  Se  Se221  1  0.75911479  0.74937539  0.31190997  1
  Se  Se222  1  0.74712970  0.74982687  0.80888607  1
  Se  Se223  1  0.23484780  0.09895080  0.20508061  1
  Se  Se224  1  0.24972641  0.07780034  0.69334078  1
  Se  Se225  1  0.25258196  0.42601675  0.19162630  1
  Se  Se226  1  0.23801115  0.42899086  0.68701545  1
  Se  Se227  1  0.25620573  0.75766653  0.20327131  1
  Se  Se228  1  0.24309068  0.75095512  0.68949407  1
  Se  Se229  1  0.58488749  0.08202245  0.19453205  1
  Se  Se230  1  0.59177463  0.07556767  0.70084482  1
  Se  Se231  1  0.58864647  0.41942320  0.19880590  1
  Se  Se232  1  0.57364437  0.41798030  0.69363768  1
  Se  Se233  1  0.58170222  0.75969882  0.18227089  1
  Se  Se234  1  0.58103592  0.74603170  0.70279572  1
  Se  Se235  1  0.90694125  0.08149197  0.19996980  1
  Se  Se236  1  0.91453918  0.08871731  0.68321733  1
  Se  Se237  1  0.91573061  0.41825832  0.19065577  1
  Se  Se238  1  0.91062470  0.42278063  0.69429368  1
  Se  Se239  1  0.91933208  0.74584740  0.19499478  1
  Se  Se240  1  0.91073045  0.75287843  0.69632983  1
  Se  Se241  1  0.08361047  0.24436052  0.19540204  1
  Se  Se242  1  0.08284203  0.25160669  0.69344008  1
  Se  Se243  1  0.08377889  0.58255173  0.20224921  1
  Se  Se244  1  0.07287942  0.59147813  0.69270997  1
  Se  Se245  1  0.06354695  0.92654036  0.20480606  1
  Se  Se246  1  0.09108413  0.91100280  0.69097630  1
  Se  Se247  1  0.42236703  0.24664335  0.18700749  1
  Se  Se248  1  0.42462729  0.23359925  0.68867775  1
  Se  Se249  1  0.42335561  0.59064945  0.19576607  1
  Se  Se250  1  0.41100712  0.57008986  0.68808478  1
  Se  Se251  1  0.41430982  0.92465480  0.19209721  1
  Se  Se252  1  0.42012840  0.91035115  0.69832641  1
  Se  Se253  1  0.74823600  0.25448092  0.20276211  1
  Se  Se254  1  0.75285709  0.24673358  0.68652849  1
  Se  Se255  1  0.76374132  0.57768047  0.18865148  1
  Se  Se256  1  0.73925587  0.58675735  0.69762534  1
  Se  Se257  1  0.74453136  0.91103818  0.19184416  1
  Se  Se258  1  0.75230244  0.91977769  0.70141707  1
