# generated using pymatgen
data_In86Cu29Se144
_symmetry_space_group_name_H-M   'P 1'
_cell_length_a   17.57646693
_cell_length_b   17.57588210
_cell_length_c   23.43656961
_cell_angle_alpha   89.98219218
_cell_angle_beta   90.00413710
_cell_angle_gamma   90.01492200
_symmetry_Int_Tables_number   1
_chemical_formula_structural   In86Cu29Se144
_chemical_formula_sum   'In86 Cu29 Se144'
_cell_volume   7240.06924557
_cell_formula_units_Z   1
loop_
 _symmetry_equiv_pos_site_id
 _symmetry_equiv_pos_as_xyz
  1  'x, y, z'
loop_
 _atom_site_type_symbol
 _atom_site_label
 _atom_site_symmetry_multiplicity
 _atom_site_fract_x
 _atom_site_fract_y
 _atom_site_fract_z
 _atom_site_occupancy
  In  In0  1  -0.00371280  0.17661632  0.12288704  1
  In  In1  1  -0.01433240  0.18394052  0.63376214  1
  In  In2  1  0.00883753  0.49221364  0.12914478  1
  In  In3  1  -0.01269972  0.51065155  0.63855955  1
  In  In4  1  -0.00153674  0.82679361  0.11628923  1
  In  In5  1  0.00445779  0.82473077  0.63321422  1
  In  In6  1  0.34127138  0.16386249  0.13848498  1
  In  In7  1  0.32285984  0.16412751  0.62411960  1
  In  In8  1  0.33248761  0.50407222  0.13669966  1
  In  In9  1  0.34417097  0.49066915  0.61752339  1
  In  In10  1  0.31685970  0.83907242  0.12920373  1
  In  In11  1  0.33939417  0.84128155  0.61655917  1
  In  In12  1  0.67810798  0.17384730  0.12234801  1
  In  In13  1  0.67885053  0.16024225  0.62932331  1
  In  In14  1  0.65330262  0.49201000  0.12230697  1
  In  In15  1  0.65794779  0.49232002  0.62227125  1
  In  In16  1  0.67455295  0.82712624  0.11723834  1
  In  In17  1  0.66631835  0.84448885  0.62649019  1
  In  In18  1  0.17375114  -0.01030490  0.38006567  1
  In  In19  1  0.15721169  -0.00653821  0.86982544  1
  In  In20  1  0.17241417  0.33999819  0.36454383  1
  In  In21  1  0.16738476  0.34581943  0.88115645  1
  In  In22  1  0.17595130  0.67501014  0.36880931  1
  In  In23  1  0.15470210  0.67475969  0.88418611  1
  In  In24  1  0.48576886  0.00453527  0.37249575  1
  In  In25  1  0.50172756  -0.00192096  0.86433007  1
  In  In26  1  0.51043283  0.33911841  0.35882253  1
  In  In27  1  0.51370484  0.33080671  0.88349015  1
  In  In28  1  0.49230571  0.67315411  0.37998463  1
  In  In29  1  0.48938922  0.65957055  0.88031698  1
  In  In30  1  0.84618266  0.00515821  0.38508195  1
  In  In31  1  0.83612961  0.00226592  0.87607997  1
  In  In32  1  0.83509195  0.33647153  0.37708338  1
  In  In33  1  0.82029630  0.32465695  0.86581031  1
  In  In34  1  0.82679774  0.65184120  0.37370129  1
  In  In35  1  0.85368070  0.66226459  0.86844038  1
  In  In36  1  -0.01097496  0.17319498  0.38088573  1
  In  In37  1  -0.01222660  0.15175904  0.86778133  1
  In  In38  1  -0.00745340  0.49413814  0.37068402  1
  In  In39  1  0.00298541  0.50680636  0.86593805  1
  In  In40  1  0.01452680  0.83502578  0.37927132  1
  In  In41  1  -0.00206840  0.83541865  0.87358839  1
  In  In42  1  0.35398656  0.17490895  0.34964151  1
  In  In43  1  0.34380350  0.16266229  0.87524309  1
  In  In44  1  0.34198570  0.50177029  0.36614834  1
  In  In45  1  0.33379125  0.49465562  0.89068680  1
  In  In46  1  0.33343583  0.83446371  0.37461075  1
  In  In47  1  0.32231719  0.83657438  0.88079919  1
  In  In48  1  0.66772502  0.18826716  0.37404906  1
  In  In49  1  0.67806666  0.17988970  0.86974944  1
  In  In50  1  0.67548955  0.49188974  0.38110745  1
  In  In51  1  0.67079918  0.46979550  0.87796907  1
  In  In52  1  0.66339244  0.81582741  0.37780437  1
  In  In53  1  0.67063093  0.85132959  0.86873923  1
  In  In54  1  0.18230773  -0.00862830  0.11689793  1
  In  In55  1  0.17492851  -0.00716348  0.63160715  1
  In  In56  1  0.15486884  0.33947838  0.13145891  1
  In  In57  1  0.16426597  0.32758142  0.62301466  1
  In  In58  1  0.16624579  0.66482886  0.12696916  1
  In  In59  1  0.14962715  0.66978131  0.62395436  1
  In  In60  1  0.48803310  -0.00566722  0.12608425  1
  In  In61  1  0.50690437  -0.00317152  0.62867961  1
  In  In62  1  0.49550665  0.34266474  0.14385513  1
  In  In63  1  0.50170159  0.34743925  0.62055196  1
  In  In64  1  0.49648192  0.64632420  0.13008212  1
  In  In65  1  0.49156844  0.65954450  0.61527289  1
  In  In66  1  0.83662952  0.00354077  0.11098975  1
  In  In67  1  0.82225614  0.00446295  0.63545332  1
  In  In68  1  0.83502857  0.33098927  0.12644171  1
  In  In69  1  0.83267962  0.33637157  0.62424982  1
  In  In70  1  0.83467422  0.67947934  0.12017320  1
  In  In71  1  0.84465212  0.66497043  0.62943810  1
  In  In72  1  0.83324199  0.83203284  0.51346402  1
  In  In73  1  0.66519602  0.65668469  0.24550470  1
  In  In74  1  0.49892778  0.83092876  0.00005394  1
  In  In75  1  0.33207418  0.33034098  0.74586803  1
  In  In76  1  0.16878187  0.50545575  0.49241883  1
  In  In77  1  0.16978327  0.16572138  0.49914851  1
  In  In78  1  0.16413254  0.16472154  0.00112269  1
  In  In79  1  0.67112942  0.66492828  0.75085677  1
  In  In80  1  0.49986191  0.17008984  0.00992619  1
  In  In81  1  0.83620190  0.50201649  -0.00747431  1
  In  In82  1  0.50344994  0.16735685  0.48868269  1
  In  In83  1  0.00629043  0.00378293  0.25109997  1
  In  In84  1  0.32760535  0.67033060  0.75559969  1
  In  In85  1  0.66190613  0.00611837  0.24946614  1
  Cu  Cu86  1  0.16787082  0.82959608  0.25175658  1
  Cu  Cu87  1  0.00927472  0.66458902  -0.00341757  1
  Cu  Cu88  1  0.32795052  0.67168929  0.49333794  1
  Cu  Cu89  1  0.83133894  0.16700852  0.74995869  1
  Cu  Cu90  1  0.83634339  0.49518999  0.25041268  1
  Cu  Cu91  1  0.00485170  0.00883575  0.50693311  1
  Cu  Cu92  1  0.65868781  0.65600178  0.49950490  1
  Cu  Cu93  1  0.16216798  0.50315407  0.25006960  1
  Cu  Cu94  1  0.83110571  0.17558414  0.25253308  1
  Cu  Cu95  1  -0.00040762  -0.00680648  -0.00781083  1
  Cu  Cu96  1  0.50726742  0.16482191  0.75030770  1
  Cu  Cu97  1  0.16271024  0.16357139  0.24386462  1
  Cu  Cu98  1  0.33393797  -0.00077274  0.49655698  1
  Cu  Cu99  1  -0.00668008  0.32983956  0.00073884  1
  Cu  Cu100  1  0.49374216  0.82933996  0.25101307  1
  Cu  Cu101  1  0.33301220  0.65884632  0.00882494  1
  Cu  Cu102  1  0.16131678  0.50482413  0.75385261  1
  Cu  Cu103  1  0.67125595  0.33084024  0.49953895  1
  Cu  Cu104  1  0.67267941  0.66797521  -0.00248448  1
  Cu  Cu105  1  0.33158181  0.33963903  0.01609973  1
  Cu  Cu106  1  0.49985553  0.83781912  0.74332935  1
  Cu  Cu107  1  0.16502569  0.83396287  0.75517088  1
  Cu  Cu108  1  0.50300100  0.49401838  0.75281147  1
  Cu  Cu109  1  -0.00348720  0.67029484  0.50299531  1
  Cu  Cu110  1  0.84097835  0.83446141  0.24221847  1
  Cu  Cu111  1  0.66661609  -0.00260006  0.50625945  1
  Cu  Cu112  1  -0.00415122  0.34241524  0.50316557  1
  Cu  Cu113  1  0.66825976  0.01022925  -0.00674768  1
  Cu  Cu114  1  0.16595188  0.16368058  0.74854630  1
  Se  Se115  1  0.07317453  0.07176809  0.06069597  1
  Se  Se116  1  0.08274406  0.08822706  0.56922030  1
  Se  Se117  1  0.07952945  0.41177874  0.05217269  1
  Se  Se118  1  0.08117245  0.42144516  0.55975513  1
  Se  Se119  1  0.09022042  0.74824734  0.05237783  1
  Se  Se120  1  0.08064114  0.75712935  0.55123612  1
  Se  Se121  1  0.40097787  0.07569562  0.05601943  1
  Se  Se122  1  0.41408743  0.08126723  0.55605708  1
  Se  Se123  1  0.41754479  0.41944426  0.06821847  1
  Se  Se124  1  0.41952354  0.41331456  0.54505974  1
  Se  Se125  1  0.41402388  0.74345977  0.06539712  1
  Se  Se126  1  0.41444621  0.75024739  0.54995554  1
  Se  Se127  1  0.75116366  0.09108927  0.04892473  1
  Se  Se128  1  0.75381197  0.08035173  0.55424764  1
  Se  Se129  1  0.74835595  0.41464374  0.05553806  1
  Se  Se130  1  0.74927730  0.41784190  0.55413554  1
  Se  Se131  1  0.75748902  0.75521036  0.04379227  1
  Se  Se132  1  0.73712210  0.73632128  0.56315732  1
  Se  Se133  1  0.25204327  0.24964057  0.06768027  1
  Se  Se134  1  0.26325133  0.26342106  0.55213916  1
  Se  Se135  1  0.24798579  0.57641390  0.06101434  1
  Se  Se136  1  0.25503091  0.59310761  0.56179658  1
  Se  Se137  1  0.25102066  0.90606910  0.04484123  1
  Se  Se138  1  0.24780177  0.92037172  0.55124338  1
  Se  Se139  1  0.58456697  0.26562087  0.06543365  1
  Se  Se140  1  0.58974180  0.24904557  0.55873349  1
  Se  Se141  1  0.58932181  0.59020984  0.05429216  1
  Se  Se142  1  0.57418189  0.57190180  0.55160358  1
  Se  Se143  1  0.59163495  0.92831240  0.05645050  1
  Se  Se144  1  0.57909363  0.91413461  0.55327206  1
  Se  Se145  1  0.90881408  0.24693108  0.05154761  1
  Se  Se146  1  0.91426261  0.25240844  0.55199046  1
  Se  Se147  1  0.92480739  0.58733425  0.05779046  1
  Se  Se148  1  0.91865197  0.58239762  0.55571358  1
  Se  Se149  1  0.91587314  0.91165995  0.04886807  1
  Se  Se150  1  0.92441643  0.92702814  0.56599053  1
  Se  Se151  1  0.08065119  0.26442437  0.44355596  1
  Se  Se152  1  0.07428241  0.25051803  0.93825993  1
  Se  Se153  1  0.07426330  0.59500874  0.43661078  1
  Se  Se154  1  0.08478204  0.57214442  0.94532733  1
  Se  Se155  1  0.08264812  0.92341791  0.45200021  1
  Se  Se156  1  0.08773474  0.91010996  0.94520352  1
  Se  Se157  1  0.41313507  0.25697703  0.43201092  1
  Se  Se158  1  0.40515916  0.26095742  0.94911287  1
  Se  Se159  1  0.41033593  0.58324002  0.44451084  1
  Se  Se160  1  0.41986316  0.57862555  0.95605202  1
  Se  Se161  1  0.41943064  0.91543097  0.44495488  1
  Se  Se162  1  0.41508010  0.92677340  0.94163887  1
  Se  Se163  1  0.75744168  0.24818279  0.44815087  1
  Se  Se164  1  0.73952900  0.26497852  0.94599636  1
  Se  Se165  1  0.75215672  0.57956618  0.45126222  1
  Se  Se166  1  0.74415803  0.58919576  0.93111274  1
  Se  Se167  1  0.74623007  0.91632137  0.44206784  1
  Se  Se168  1  0.75013354  0.92005122  0.94588546  1
  Se  Se169  1  0.26508207  0.08786971  0.43463627  1
  Se  Se170  1  0.25219939  0.07797102  0.93837841  1
  Se  Se171  1  0.25872795  0.41154361  0.43897440  1
  Se  Se172  1  0.24631261  0.41591421  0.95840688  1
  Se  Se173  1  0.24391756  0.75787375  0.44510267  1
  Se  Se174  1  0.25681230  0.74032920  0.94800166  1
  Se  Se175  1  0.59661401  0.07274377  0.43441847  1
  Se  Se176  1  0.58147946  0.08636946  0.93713997  1
  Se  Se177  1  0.58441574  0.40590845  0.44160816  1
  Se  Se178  1  0.56865616  0.43186669  0.95051703  1
  Se  Se179  1  0.57967082  0.74816277  0.45196658  1
  Se  Se180  1  0.59128439  0.74775957  0.93558312  1
  Se  Se181  1  0.91846824  0.09069446  0.45655598  1
  Se  Se182  1  0.91501801  0.08522997  0.94975566  1
  Se  Se183  1  0.91276123  0.42400479  0.44772071  1
  Se  Se184  1  0.92196839  0.40858266  0.93347521  1
  Se  Se185  1  0.91460356  0.74839002  0.44010683  1
  Se  Se186  1  0.92203711  0.74532871  0.94415883  1
  Se  Se187  1  0.24577256  0.24798998  0.29741353  1
  Se  Se188  1  0.24378449  0.24402292  0.81197911  1
  Se  Se189  1  0.24940292  0.58282209  0.30324699  1
  Se  Se190  1  0.24611229  0.57518760  0.81687686  1
  Se  Se191  1  0.24998608  0.91652890  0.30351421  1
  Se  Se192  1  0.25268616  0.91676833  0.80435934  1
  Se  Se193  1  0.56950343  0.22762291  0.30054933  1
  Se  Se194  1  0.58200476  0.25455615  0.80425807  1
  Se  Se195  1  0.58247071  0.58036500  0.31715280  1
  Se  Se196  1  0.57875632  0.57743924  0.81303743  1
  Se  Se197  1  0.58065751  0.90525880  0.30930881  1
  Se  Se198  1  0.58643217  0.92046859  0.79420948  1
  Se  Se199  1  0.91905965  0.25454251  0.30579083  1
  Se  Se200  1  0.91704310  0.24889908  0.80302686  1
  Se  Se201  1  0.91550801  0.58433754  0.30174566  1
  Se  Se202  1  0.91351061  0.57414633  0.79447567  1
  Se  Se203  1  0.91274374  0.91166557  0.30959662  1
  Se  Se204  1  0.93092292  0.93391651  0.80877977  1
  Se  Se205  1  0.09075527  0.09194264  0.31664760  1
  Se  Se206  1  0.08137424  0.08029740  0.80038704  1
  Se  Se207  1  0.07886209  0.41682884  0.30151495  1
  Se  Se208  1  0.08572545  0.41204091  0.80430931  1
  Se  Se209  1  0.07943422  0.75017008  0.30364241  1
  Se  Se210  1  0.08193828  0.74784289  0.80569386  1
  Se  Se211  1  0.41551357  0.06832564  0.29024845  1
  Se  Se212  1  0.41666463  0.08455200  0.79950727  1
  Se  Se213  1  0.40898622  0.40773042  0.29782868  1
  Se  Se214  1  0.41695781  0.41774331  0.81221404  1
  Se  Se215  1  0.41165585  0.74676049  0.30496346  1
  Se  Se216  1  0.42487587  0.76140750  0.81012012  1
  Se  Se217  1  0.76026419  0.08637955  0.31249663  1
  Se  Se218  1  0.74970119  0.08334066  0.80604866  1
  Se  Se219  1  0.75119433  0.41494520  0.30491563  1
  Se  Se220  1  0.75471028  0.42175203  0.79770788  1
  Se  Se221  1  0.75815889  0.75424363  0.30171075  1
  Se  Se222  1  0.75848600  0.75592139  0.81039911  1
  Se  Se223  1  0.24463646  0.07748192  0.19351412  1
  Se  Se224  1  0.25434990  0.08215348  0.69929711  1
  Se  Se225  1  0.24381195  0.41555903  0.19889930  1
  Se  Se226  1  0.24261466  0.42940501  0.69022800  1
  Se  Se227  1  0.25053469  0.74473708  0.19846281  1
  Se  Se228  1  0.24385874  0.75688064  0.68912402  1
  Se  Se229  1  0.57680671  0.09028645  0.18331901  1
  Se  Se230  1  0.58911267  0.08098960  0.69551247  1
  Se  Se231  1  0.58800732  0.42495657  0.20521179  1
  Se  Se232  1  0.58400557  0.41136476  0.69862130  1
  Se  Se233  1  0.57914849  0.75792110  0.18840613  1
  Se  Se234  1  0.57256555  0.74668178  0.68805097  1
  Se  Se235  1  0.90672360  0.08788279  0.19312177  1
  Se  Se236  1  0.91680340  0.08428906  0.69767894  1
  Se  Se237  1  0.91926047  0.41240419  0.19473182  1
  Se  Se238  1  0.93791449  0.39304946  0.69029409  1
  Se  Se239  1  0.92292364  0.74819538  0.19282406  1
  Se  Se240  1  0.90512011  0.75997942  0.69803267  1
  Se  Se241  1  0.07507383  0.24879662  0.19801690  1
  Se  Se242  1  0.08689105  0.25300776  0.69782586  1
  Se  Se243  1  0.07861666  0.58656978  0.19677533  1
  Se  Se244  1  0.08067721  0.59131265  0.70136038  1
  Se  Se245  1  0.08937286  0.91099925  0.18932177  1
  Se  Se246  1  0.08429139  0.91623514  0.69776945  1
  Se  Se247  1  0.41307647  0.25221570  0.20598637  1
  Se  Se248  1  0.42654254  0.24189352  0.68669609  1
  Se  Se249  1  0.41909530  0.58030602  0.20726300  1
  Se  Se250  1  0.41858115  0.57535442  0.69664247  1
  Se  Se251  1  0.41132100  0.91233799  0.19660863  1
  Se  Se252  1  0.41194620  0.92008766  0.69317541  1
  Se  Se253  1  0.74704107  0.25604815  0.19865606  1
  Se  Se254  1  0.75031157  0.25354974  0.69595791  1
  Se  Se255  1  0.76147869  0.57442407  0.18396060  1
  Se  Se256  1  0.75345379  0.57226180  0.68896307  1
  Se  Se257  1  0.75667871  0.91637547  0.18839874  1
  Se  Se258  1  0.75494551  0.90479092  0.69943267  1
