# generated using pymatgen
data_In86Cu29Se144
_symmetry_space_group_name_H-M   'P 1'
_cell_length_a   17.61889150
_cell_length_b   17.62888101
_cell_length_c   23.47136393
_cell_angle_alpha   90.02709462
_cell_angle_beta   89.98164820
_cell_angle_gamma   90.00831507
_symmetry_Int_Tables_number   1
_chemical_formula_structural   In86Cu29Se144
_chemical_formula_sum   'In86 Cu29 Se144'
_cell_volume   7290.23586258
_cell_formula_units_Z   1
loop_
 _symmetry_equiv_pos_site_id
 _symmetry_equiv_pos_as_xyz
  1  'x, y, z'
loop_
 _atom_site_type_symbol
 _atom_site_label
 _atom_site_symmetry_multiplicity
 _atom_site_fract_x
 _atom_site_fract_y
 _atom_site_fract_z
 _atom_site_occupancy
  In  In0  1  0.00306839  0.15652484  0.12299911  1
  In  In1  1  -0.00128720  0.16118972  0.63007450  1
  In  In2  1  -0.01086622  0.51084012  0.11458806  1
  In  In3  1  -0.01560878  0.49911221  0.63305583  1
  In  In4  1  -0.02146566  0.80792994  0.09188774  1
  In  In5  1  -0.00289118  0.84555229  0.63104410  1
  In  In6  1  0.34265870  0.18544112  0.10292460  1
  In  In7  1  0.32777949  0.16509392  0.62408696  1
  In  In8  1  0.37148634  0.51047405  0.10600670  1
  In  In9  1  0.35628309  0.50078562  0.63124721  1
  In  In10  1  0.34920541  0.83459116  0.10385013  1
  In  In11  1  0.34722383  0.82658681  0.63746597  1
  In  In12  1  0.65131298  0.16391153  0.12532085  1
  In  In13  1  0.66631517  0.16676021  0.62773038  1
  In  In14  1  0.66229649  0.51234075  0.10720152  1
  In  In15  1  0.65510119  0.51148792  0.63604080  1
  In  In16  1  0.67146053  0.84067755  0.12540355  1
  In  In17  1  0.66718754  0.83203733  0.62584577  1
  In  In18  1  0.17674215  0.00625349  0.37790392  1
  In  In19  1  0.16816668  -0.00244722  0.87050749  1
  In  In20  1  0.16124881  0.32400172  0.37972846  1
  In  In21  1  0.15159526  0.33494985  0.87410505  1
  In  In22  1  0.16370937  0.67813127  0.37805315  1
  In  In23  1  0.18691311  0.66902943  0.87846222  1
  In  In24  1  0.51612735  -0.02538730  0.38664391  1
  In  In25  1  0.50027054  0.00216259  0.87203916  1
  In  In26  1  0.50733473  0.33007045  0.38922347  1
  In  In27  1  0.51327702  0.32263154  0.89065213  1
  In  In28  1  0.51971275  0.65606261  0.38985468  1
  In  In29  1  0.50282605  0.66497266  0.88395879  1
  In  In30  1  0.82306391  0.00905210  0.38484773  1
  In  In31  1  0.82055947  -0.01529649  0.86307048  1
  In  In32  1  0.81385291  0.32748005  0.38100616  1
  In  In33  1  0.83248807  0.33589319  0.87058292  1
  In  In34  1  0.82562869  0.68481239  0.37877684  1
  In  In35  1  0.81221225  0.67942871  0.89986992  1
  In  In36  1  0.00365536  0.16008094  0.38711817  1
  In  In37  1  0.00374863  0.16986672  0.86618293  1
  In  In38  1  -0.01300114  0.49984511  0.37321598  1
  In  In39  1  -0.00323281  0.48868491  0.87258680  1
  In  In40  1  -0.00983715  0.82453892  0.37343390  1
  In  In41  1  -0.01173366  0.83582771  0.88138701  1
  In  In42  1  0.33813544  0.16018852  0.38751986  1
  In  In43  1  0.34620776  0.16040415  0.87995727  1
  In  In44  1  0.35251784  0.51230802  0.37302007  1
  In  In45  1  0.33781087  0.51171983  0.87502511  1
  In  In46  1  0.33619975  0.83996493  0.36827132  1
  In  In47  1  0.33789974  0.83353616  0.87897019  1
  In  In48  1  0.67352364  0.15561066  0.39373110  1
  In  In49  1  0.66493028  0.16289868  0.86832609  1
  In  In50  1  0.65660166  0.49743761  0.37434563  1
  In  In51  1  0.66034380  0.49818378  0.88428827  1
  In  In52  1  0.66349935  0.83494906  0.37133461  1
  In  In53  1  0.66004136  0.83129659  0.88266256  1
  In  In54  1  0.16923287  0.00255385  0.11611298  1
  In  In55  1  0.16130125  0.00730949  0.63682318  1
  In  In56  1  0.19018765  0.33438165  0.11805924  1
  In  In57  1  0.16779589  0.31928852  0.62920272  1
  In  In58  1  0.15960723  0.67301814  0.11354022  1
  In  In59  1  0.17254942  0.68139717  0.62941969  1
  In  In60  1  0.50322092  0.00684558  0.12158077  1
  In  In61  1  0.49994266  0.00137327  0.63177467  1
  In  In62  1  0.51180207  0.34577299  0.10008556  1
  In  In63  1  0.51598005  0.34121337  0.61789579  1
  In  In64  1  0.54205199  0.70460980  0.06397694  1
  In  In65  1  0.50691202  0.66771337  0.62852472  1
  In  In66  1  0.83234100  -0.00926603  0.12539707  1
  In  In67  1  0.83063142  -0.00361715  0.62873713  1
  In  In68  1  0.81223666  0.34607829  0.11591226  1
  In  In69  1  0.84313387  0.32806579  0.63797245  1
  In  In70  1  0.80867014  0.65331574  0.09950826  1
  In  In71  1  0.80788655  0.66605569  0.62471108  1
  In  In72  1  0.34180192  0.33107432  0.24025927  1
  In  In73  1  0.16617117  0.49343765  -0.00444874  1
  In  In74  1  0.33551064  0.33671976  0.75473063  1
  In  In75  1  0.17329785  0.49352275  0.49992354  1
  In  In76  1  0.82774222  0.49318314  0.50091702  1
  In  In77  1  0.33719179  0.00335497  0.24425032  1
  In  In78  1  -0.00171480  0.33388861  0.25156448  1
  In  In79  1  0.83570428  0.16771217  -0.01062073  1
  In  In80  1  0.66325482  0.32884805  0.25370836  1
  In  In81  1  -0.00453606  0.66006377  0.76063457  1
  In  In82  1  -0.01130178  0.67240809  0.23257108  1
  In  In83  1  0.33843666  0.66862980  0.23887301  1
  In  In84  1  0.00162853  -0.00524495  0.24719367  1
  In  In85  1  0.16997498  0.84097869  0.49556491  1
  Cu  Cu86  1  0.82985971  0.82372392  0.75536194  1
  Cu  Cu87  1  0.82390640  0.16616545  0.26149933  1
  Cu  Cu88  1  0.16696709  0.16408272  0.74948999  1
  Cu  Cu89  1  0.82238618  0.50298080  0.75720206  1
  Cu  Cu90  1  0.17436760  0.50337110  0.24959205  1
  Cu  Cu91  1  0.51051219  0.50348313  0.24938352  1
  Cu  Cu92  1  0.17475175  0.83171037  0.75386292  1
  Cu  Cu93  1  0.00442652  0.00101647  -0.00545583  1
  Cu  Cu94  1  0.34660578  0.66194107  0.50802473  1
  Cu  Cu95  1  0.33490540  0.00085727  -0.00687523  1
  Cu  Cu96  1  0.15872463  0.83752304  0.23309203  1
  Cu  Cu97  1  0.50808311  0.50720847  0.75585223  1
  Cu  Cu98  1  0.32848200  0.00000016  0.50755811  1
  Cu  Cu99  1  0.81973304  0.83494317  0.24867765  1
  Cu  Cu100  1  0.00405153  0.32145195  0.50854871  1
  Cu  Cu101  1  0.66676521  -0.00404209  0.50784898  1
  Cu  Cu102  1  -0.00461565  0.00173479  0.50782448  1
  Cu  Cu103  1  0.50083825  0.15881770  0.25056382  1
  Cu  Cu104  1  0.66400330  0.00416547  -0.00493950  1
  Cu  Cu105  1  0.33706607  0.33254902  0.50417897  1
  Cu  Cu106  1  0.16870857  0.50247534  0.75686532  1
  Cu  Cu107  1  0.50988927  0.82010269  0.24394044  1
  Cu  Cu108  1  -0.00581765  0.67142052  0.49841685  1
  Cu  Cu109  1  -0.00222100  0.32606253  -0.00400332  1
  Cu  Cu110  1  0.50025084  0.17134288  0.75182439  1
  Cu  Cu111  1  0.82518722  0.51247638  0.23793652  1
  Cu  Cu112  1  0.50544189  0.83145574  0.75523035  1
  Cu  Cu113  1  0.17410853  0.16958837  0.24629314  1
  Cu  Cu114  1  0.83395325  0.16170488  0.74953257  1
  Se  Se115  1  0.08376384  0.08527979  0.04898468  1
  Se  Se116  1  0.08401168  0.08078949  0.55977494  1
  Se  Se117  1  0.07492985  0.40652370  0.06092636  1
  Se  Se118  1  0.07578639  0.41444927  0.56341169  1
  Se  Se119  1  0.09725865  0.76036677  0.04047465  1
  Se  Se120  1  0.07812327  0.74946653  0.55644402  1
  Se  Se121  1  0.41869018  0.08175671  0.05012695  1
  Se  Se122  1  0.41425461  0.08046472  0.56056194  1
  Se  Se123  1  0.37575816  0.37511989  0.06539293  1
  Se  Se124  1  0.41995731  0.41868782  0.55408782  1
  Se  Se125  1  0.39913978  0.73016817  0.03853632  1
  Se  Se126  1  0.42151751  0.75258909  0.55999386  1
  Se  Se127  1  0.74835145  0.08202179  0.05693415  1
  Se  Se128  1  0.75023221  0.08077501  0.55962114  1
  Se  Se129  1  0.75695414  0.43757109  0.04254372  1
  Se  Se130  1  0.75026622  0.41722841  0.57571679  1
  Se  Se131  1  0.75634441  0.77130182  0.05055927  1
  Se  Se132  1  0.74666119  0.75311084  0.55197381  1
  Se  Se133  1  0.22373869  0.22949008  0.04762113  1
  Se  Se134  1  0.24901989  0.25136113  0.55332641  1
  Se  Se135  1  0.25400581  0.58098245  0.05888433  1
  Se  Se136  1  0.25544521  0.58732531  0.56241794  1
  Se  Se137  1  0.25335801  0.92017203  0.04982671  1
  Se  Se138  1  0.25296969  0.91750016  0.56844316  1
  Se  Se139  1  0.59817278  0.25204818  0.04909130  1
  Se  Se140  1  0.57746992  0.23781121  0.55683461  1
  Se  Se141  1  0.54406735  0.55430767  0.04896811  1
  Se  Se142  1  0.58728599  0.58702148  0.55747026  1
  Se  Se143  1  0.58558408  0.92254185  0.05510453  1
  Se  Se144  1  0.57954521  0.91728117  0.56123292  1
  Se  Se145  1  0.91635677  0.25593845  0.06367739  1
  Se  Se146  1  0.91510605  0.24649069  0.56203602  1
  Se  Se147  1  0.92992123  0.60605249  0.04701178  1
  Se  Se148  1  0.91823726  0.58987816  0.55861251  1
  Se  Se149  1  0.91334421  0.92555009  0.04776599  1
  Se  Se150  1  0.91389137  0.91393361  0.55666253  1
  Se  Se151  1  0.08958296  0.24255008  0.45337202  1
  Se  Se152  1  0.08070033  0.24415656  0.94382857  1
  Se  Se153  1  0.07440064  0.58818901  0.44211969  1
  Se  Se154  1  0.08241548  0.58448291  0.93371033  1
  Se  Se155  1  0.07071715  0.92759122  0.43741395  1
  Se  Se156  1  0.08488618  0.91589925  0.94081501  1
  Se  Se157  1  0.41986214  0.24644825  0.45247995  1
  Se  Se158  1  0.41094362  0.25308810  0.94899454  1
  Se  Se159  1  0.42683210  0.57701889  0.45372149  1
  Se  Se160  1  0.41807180  0.57986604  0.95072492  1
  Se  Se161  1  0.40298367  0.91834204  0.44571659  1
  Se  Se162  1  0.42435900  0.91812461  0.94547442  1
  Se  Se163  1  0.74183395  0.25501748  0.45683584  1
  Se  Se164  1  0.73914942  0.25854445  0.94049928  1
  Se  Se165  1  0.74463754  0.58806782  0.44061052  1
  Se  Se166  1  0.75108637  0.56894269  0.95658945  1
  Se  Se167  1  0.74451450  0.91506030  0.44532578  1
  Se  Se168  1  0.74926330  0.91818485  0.94554086  1
  Se  Se169  1  0.24566741  0.08520454  0.45418097  1
  Se  Se170  1  0.24963508  0.08137882  0.94034336  1
  Se  Se171  1  0.26558877  0.41025258  0.43426238  1
  Se  Se172  1  0.25699405  0.40781620  0.93473950  1
  Se  Se173  1  0.26609477  0.74111680  0.44554013  1
  Se  Se174  1  0.26063798  0.74924337  0.95128968  1
  Se  Se175  1  0.57815672  0.07466539  0.45297045  1
  Se  Se176  1  0.58251333  0.08760362  0.94149964  1
  Se  Se177  1  0.60099193  0.40806590  0.44897551  1
  Se  Se178  1  0.56179980  0.43442879  0.95417428  1
  Se  Se179  1  0.55909503  0.77901065  0.43844045  1
  Se  Se180  1  0.59120212  0.73941973  0.95638054  1
  Se  Se181  1  0.91284688  0.08544146  0.45221650  1
  Se  Se182  1  0.92009698  0.07238133  0.93085754  1
  Se  Se183  1  0.92673196  0.40124183  0.44451004  1
  Se  Se184  1  0.91620965  0.41117951  0.94482612  1
  Se  Se185  1  0.91083424  0.75792832  0.45084648  1
  Se  Se186  1  0.92735171  0.73994664  0.95107780  1
  Se  Se187  1  0.25357583  0.24522937  0.30910440  1
  Se  Se188  1  0.24392947  0.24498540  0.81147133  1
  Se  Se189  1  0.24583474  0.58576286  0.31078703  1
  Se  Se190  1  0.25563189  0.58655235  0.80165624  1
  Se  Se191  1  0.23611387  0.91217480  0.29898681  1
  Se  Se192  1  0.25816204  0.91564718  0.80638953  1
  Se  Se193  1  0.57811452  0.23737780  0.31446786  1
  Se  Se194  1  0.58208154  0.25573789  0.80631819  1
  Se  Se195  1  0.58764831  0.58913666  0.30466119  1
  Se  Se196  1  0.58887957  0.58843416  0.81289754  1
  Se  Se197  1  0.58015152  0.91406222  0.29827971  1
  Se  Se198  1  0.58771041  0.91545944  0.80922360  1
  Se  Se199  1  0.91116990  0.24312309  0.31561913  1
  Se  Se200  1  0.91332331  0.25027860  0.80278515  1
  Se  Se201  1  0.90611369  0.58540818  0.30345477  1
  Se  Se202  1  0.89801271  0.58214929  0.82109540  1
  Se  Se203  1  0.90521297  0.91226679  0.30796413  1
  Se  Se204  1  0.91862795  0.90941380  0.80078156  1
  Se  Se205  1  0.09200162  0.09126734  0.30588483  1
  Se  Se206  1  0.08298084  0.07920114  0.80152114  1
  Se  Se207  1  0.09400758  0.42659162  0.30960242  1
  Se  Se208  1  0.08040889  0.41628197  0.79857036  1
  Se  Se209  1  0.08562209  0.75637636  0.29831445  1
  Se  Se210  1  0.09048132  0.75238234  0.81323392  1
  Se  Se211  1  0.42278831  0.08239122  0.31361315  1
  Se  Se212  1  0.41646039  0.08418572  0.80161258  1
  Se  Se213  1  0.43156503  0.41916007  0.30639269  1
  Se  Se214  1  0.42963186  0.42152323  0.81362062  1
  Se  Se215  1  0.42471734  0.74982971  0.30749672  1
  Se  Se216  1  0.42447478  0.74980884  0.81296169  1
  Se  Se217  1  0.74019656  0.08216233  0.31098210  1
  Se  Se218  1  0.74609455  0.07946109  0.79972880  1
  Se  Se219  1  0.75968023  0.42588625  0.30443155  1
  Se  Se220  1  0.73986370  0.41775243  0.80983640  1
  Se  Se221  1  0.74236629  0.74689476  0.30143028  1
  Se  Se222  1  0.74803503  0.74839239  0.81536284  1
  Se  Se223  1  0.25324043  0.09573758  0.18329173  1
  Se  Se224  1  0.25639336  0.08361813  0.69988972  1
  Se  Se225  1  0.25676195  0.43262826  0.18739650  1
  Se  Se226  1  0.24552322  0.42516768  0.68967803  1
  Se  Se227  1  0.24788321  0.76007764  0.18089535  1
  Se  Se228  1  0.25773999  0.74599166  0.70365130  1
  Se  Se229  1  0.58509929  0.07603863  0.19884900  1
  Se  Se230  1  0.58354049  0.08569419  0.69914161  1
  Se  Se231  1  0.58309729  0.41886409  0.18643258  1
  Se  Se232  1  0.58118095  0.41567288  0.70065138  1
  Se  Se233  1  0.57370273  0.74447639  0.17034782  1
  Se  Se234  1  0.58764469  0.75075896  0.69829711  1
  Se  Se235  1  0.90692189  0.09224018  0.19755011  1
  Se  Se236  1  0.91762051  0.07635509  0.69798732  1
  Se  Se237  1  0.90809764  0.42498301  0.18796862  1
  Se  Se238  1  0.91326661  0.42162961  0.70868627  1
  Se  Se239  1  0.89490087  0.76143180  0.18012089  1
  Se  Se240  1  0.91225263  0.74633296  0.69206917  1
  Se  Se241  1  0.08980432  0.24956360  0.18930824  1
  Se  Se242  1  0.08060808  0.24849229  0.69944022  1
  Se  Se243  1  0.08971093  0.57625133  0.18792288  1
  Se  Se244  1  0.08950493  0.58090777  0.69092161  1
  Se  Se245  1  0.07454730  0.90963705  0.17389438  1
  Se  Se246  1  0.08702266  0.91218627  0.70190720  1
  Se  Se247  1  0.43509619  0.24168327  0.18447017  1
  Se  Se248  1  0.42112507  0.25054284  0.68990556  1
  Se  Se249  1  0.43772014  0.58515792  0.18667576  1
  Se  Se250  1  0.42275454  0.58891007  0.70248588  1
  Se  Se251  1  0.42310583  0.90343630  0.18934488  1
  Se  Se252  1  0.42126891  0.91754528  0.70409616  1
  Se  Se253  1  0.75681785  0.24468955  0.19062443  1
  Se  Se254  1  0.75000463  0.24698975  0.69898867  1
  Se  Se255  1  0.73822465  0.58920325  0.18393665  1
  Se  Se256  1  0.74322118  0.58981090  0.70455804  1
  Se  Se257  1  0.74344323  0.92733711  0.19935183  1
  Se  Se258  1  0.75233869  0.90913741  0.69764511  1
