# generated using pymatgen
data_In86Cu29Se144
_symmetry_space_group_name_H-M   'P 1'
_cell_length_a   17.68318195
_cell_length_b   17.68200285
_cell_length_c   23.53461402
_cell_angle_alpha   90.01790446
_cell_angle_beta   90.01532413
_cell_angle_gamma   90.03050883
_symmetry_Int_Tables_number   1
_chemical_formula_structural   In86Cu29Se144
_chemical_formula_sum   'In86 Cu29 Se144'
_cell_volume   7358.66197525
_cell_formula_units_Z   1
loop_
 _symmetry_equiv_pos_site_id
 _symmetry_equiv_pos_as_xyz
  1  'x, y, z'
loop_
 _atom_site_type_symbol
 _atom_site_label
 _atom_site_symmetry_multiplicity
 _atom_site_fract_x
 _atom_site_fract_y
 _atom_site_fract_z
 _atom_site_occupancy
  In  In0  1  0.00095969  0.17466027  0.12015967  1
  In  In1  1  0.00471909  0.17007672  0.63156679  1
  In  In2  1  -0.00457270  0.49604063  0.11781926  1
  In  In3  1  -0.00478331  0.49734454  0.63019128  1
  In  In4  1  -0.00284161  0.82661339  0.11330794  1
  In  In5  1  0.00515056  0.83252486  0.62818377  1
  In  In6  1  0.32772509  0.16378689  0.11609898  1
  In  In7  1  0.34216408  0.15499817  0.63499220  1
  In  In8  1  0.33186499  0.50628972  0.11838980  1
  In  In9  1  0.38575908  0.47620326  0.67655191  1
  In  In10  1  0.33435513  0.84514539  0.12259456  1
  In  In11  1  0.34103897  0.82997130  0.63212209  1
  In  In12  1  0.67538744  0.17986927  0.10945576  1
  In  In13  1  0.66345006  0.17357592  0.63194092  1
  In  In14  1  0.67020363  0.48667194  0.12627240  1
  In  In15  1  0.61933030  0.52163387  0.67666234  1
  In  In16  1  0.66815412  0.82654150  0.12071551  1
  In  In17  1  0.65443247  0.85861938  0.64028336  1
  In  In18  1  0.16948902  -0.01427190  0.36908309  1
  In  In19  1  0.16625739  0.00494199  0.87882354  1
  In  In20  1  0.16485870  0.34285082  0.37166566  1
  In  In21  1  0.16139992  0.32679064  0.87694032  1
  In  In22  1  0.16045799  0.67068416  0.36901881  1
  In  In23  1  0.17573138  0.65876394  0.87711831  1
  In  In24  1  0.49728769  0.00283233  0.38334333  1
  In  In25  1  0.50914604  0.00496014  0.86858594  1
  In  In26  1  0.50514525  0.32338436  0.39086598  1
  In  In27  1  0.48712434  0.33110716  0.86334535  1
  In  In28  1  0.49534483  0.66543055  0.39107909  1
  In  In29  1  0.50085363  0.66334583  0.86041993  1
  In  In30  1  0.82635959  0.00843713  0.37253253  1
  In  In31  1  0.83399283  -0.00226027  0.87498311  1
  In  In32  1  0.82448421  0.33086928  0.35811638  1
  In  In33  1  0.83441332  0.32968297  0.88005646  1
  In  In34  1  0.82749467  0.64697572  0.36854415  1
  In  In35  1  0.82525500  0.67348356  0.87915208  1
  In  In36  1  -0.00896184  0.17239702  0.37371930  1
  In  In37  1  -0.00050605  0.16493872  0.87950142  1
  In  In38  1  -0.02161591  0.48242920  0.34644096  1
  In  In39  1  0.00912186  0.48502513  0.88184992  1
  In  In40  1  0.00780115  0.82837570  0.36606186  1
  In  In41  1  -0.01254901  0.84799032  0.88040500  1
  In  In42  1  0.34805987  0.16848377  0.38204612  1
  In  In43  1  0.33452766  0.16567746  0.87559829  1
  In  In44  1  0.33430350  0.50741765  0.38112530  1
  In  In45  1  0.29452520  0.47098340  0.83174264  1
  In  In46  1  0.33314148  0.84087108  0.37660806  1
  In  In47  1  0.32485507  0.82584865  0.86956231  1
  In  In48  1  0.66107855  0.16589706  0.37572341  1
  In  In49  1  0.66662576  0.16755822  0.87649677  1
  In  In50  1  0.66125615  0.48921857  0.38210323  1
  In  In51  1  0.67176454  0.51124709  0.86307730  1
  In  In52  1  0.66268825  0.82265639  0.38335058  1
  In  In53  1  0.68059466  0.83823723  0.85982009  1
  In  In54  1  0.17608850  0.01006948  0.11494676  1
  In  In55  1  0.16072172  0.00325608  0.63583040  1
  In  In56  1  0.15536875  0.32538019  0.11359202  1
  In  In57  1  0.17097347  0.34870299  0.64555330  1
  In  In58  1  0.15694990  0.65182096  0.10622693  1
  In  In59  1  0.17581518  0.66538940  0.62956854  1
  In  In60  1  0.48433467  0.00444691  0.13135979  1
  In  In61  1  0.49799464  0.00467146  0.62408603  1
  In  In62  1  0.51922583  0.33365922  0.13058068  1
  In  In63  1  0.51040127  0.32583291  0.62740371  1
  In  In64  1  0.50778604  0.66835649  0.12716875  1
  In  In65  1  0.48684631  0.67450342  0.62651852  1
  In  In66  1  0.83925084  0.00705273  0.11456674  1
  In  In67  1  0.83960493  -0.00238834  0.63703782  1
  In  In68  1  0.83168983  0.33546610  0.12166582  1
  In  In69  1  0.82713421  0.34285273  0.63296589  1
  In  In70  1  0.83858242  0.67257807  0.11284211  1
  In  In71  1  0.82779194  0.65046160  0.62388835  1
  In  In72  1  0.00437520  0.00300160  0.23391395  1
  In  In73  1  0.50326785  0.83257968  -0.00291809  1
  In  In74  1  0.17703207  0.16648960  0.51441619  1
  In  In75  1  0.66470036  0.00505555  0.25531321  1
  In  In76  1  0.83120490  0.82611172  0.51057635  1
  In  In77  1  0.67139011  0.66660129  0.24618023  1
  In  In78  1  0.49459031  0.49696544  -0.01038023  1
  In  In79  1  0.33226029  0.33038897  0.25205593  1
  In  In80  1  0.16382525  0.51010241  0.49842240  1
  In  In81  1  0.16884958  0.83368128  0.49882348  1
  In  In82  1  0.83021094  0.49194525  0.49368124  1
  In  In83  1  0.83185147  0.16467826  0.49705590  1
  In  In84  1  0.33217632  0.67020714  0.25404967  1
  In  In85  1  -0.00242032  0.66922812  0.75790177  1
  Cu  Cu86  1  0.15542576  0.84797802  0.75704889  1
  Cu  Cu87  1  0.50402508  0.49660405  0.25621392  1
  Cu  Cu88  1  -0.00171286  0.00122273  -0.00167615  1
  Cu  Cu89  1  0.34109341  0.34143903  0.51671305  1
  Cu  Cu90  1  0.16652273  0.16753341  0.75637826  1
  Cu  Cu91  1  0.66272381  0.33635430  0.50877485  1
  Cu  Cu92  1  0.33911465  0.65996322  0.50803055  1
  Cu  Cu93  1  -0.00270687  0.33025575  -0.00136151  1
  Cu  Cu94  1  0.83782296  0.83818271  0.24190434  1
  Cu  Cu95  1  0.15729415  0.49609898  0.23830999  1
  Cu  Cu96  1  0.33608650  0.00200818  -0.00177051  1
  Cu  Cu97  1  0.50098876  0.84425931  0.74723289  1
  Cu  Cu98  1  0.50168302  0.16228947  0.75129666  1
  Cu  Cu99  1  0.66339105  -0.00039921  -0.00842836  1
  Cu  Cu100  1  0.33484088  0.66306505  -0.00933101  1
  Cu  Cu101  1  0.83794222  0.16602059  0.75898211  1
  Cu  Cu102  1  0.66571332  0.66385842  -0.00490852  1
  Cu  Cu103  1  0.84148879  0.48847945  0.75566650  1
  Cu  Cu104  1  0.33297659  0.33871353  -0.01043835  1
  Cu  Cu105  1  0.00450666  0.32851999  0.50046322  1
  Cu  Cu106  1  0.17387326  0.82828114  0.24448692  1
  Cu  Cu107  1  0.66404755  0.33535049  -0.00311535  1
  Cu  Cu108  1  0.65102198  0.66243298  0.51661569  1
  Cu  Cu109  1  0.33557210  -0.00023912  0.50212668  1
  Cu  Cu110  1  0.00129163  0.66590398  0.48679622  1
  Cu  Cu111  1  0.66339240  0.00224609  0.50396580  1
  Cu  Cu112  1  0.50220841  0.16817190  0.25813993  1
  Cu  Cu113  1  0.00169040  0.66669283  -0.00921382  1
  Cu  Cu114  1  0.17234688  0.15876363  0.24258496  1
  Se  Se115  1  0.07931330  0.08445827  0.05406793  1
  Se  Se116  1  0.07546243  0.07614429  0.55826083  1
  Se  Se117  1  0.08262801  0.41750394  0.04787150  1
  Se  Se118  1  0.08121505  0.41084700  0.55989577  1
  Se  Se119  1  0.08513246  0.75092878  0.04482072  1
  Se  Se120  1  0.07758077  0.73796442  0.55423376  1
  Se  Se121  1  0.41937197  0.08385909  0.05243692  1
  Se  Se122  1  0.41560025  0.08745892  0.55362146  1
  Se  Se123  1  0.41424914  0.40740526  0.05943122  1
  Se  Se124  1  0.41873082  0.42160826  0.57613442  1
  Se  Se125  1  0.41276719  0.73847804  0.05625132  1
  Se  Se126  1  0.41307676  0.75876807  0.55203419  1
  Se  Se127  1  0.74624518  0.08012155  0.04879906  1
  Se  Se128  1  0.74946151  0.07591901  0.56284585  1
  Se  Se129  1  0.74822945  0.41767167  0.04982952  1
  Se  Se130  1  0.74146269  0.42087639  0.56365084  1
  Se  Se131  1  0.74612099  0.75111664  0.04815142  1
  Se  Se132  1  0.73588403  0.74383808  0.56996294  1
  Se  Se133  1  0.25515621  0.25680573  0.05035489  1
  Se  Se134  1  0.25705138  0.26445504  0.57410987  1
  Se  Se135  1  0.25309095  0.57646705  0.04321095  1
  Se  Se136  1  0.25855573  0.57870130  0.56466576  1
  Se  Se137  1  0.25257293  0.91715817  0.04940205  1
  Se  Se138  1  0.25080423  0.92536758  0.56209916  1
  Se  Se139  1  0.57630182  0.25465021  0.04862534  1
  Se  Se140  1  0.58482130  0.24111892  0.55315187  1
  Se  Se141  1  0.58633657  0.58388642  0.05595571  1
  Se  Se142  1  0.57963039  0.57806008  0.57715839  1
  Se  Se143  1  0.58638841  0.92581135  0.06004265  1
  Se  Se144  1  0.58095510  0.91842126  0.55605857  1
  Se  Se145  1  0.91197520  0.24910567  0.05217160  1
  Se  Se146  1  0.91870324  0.25582212  0.55976292  1
  Se  Se147  1  0.91985918  0.58561190  0.04808545  1
  Se  Se148  1  0.92660878  0.58429617  0.55071300  1
  Se  Se149  1  0.91472636  0.91566811  0.04991964  1
  Se  Se150  1  0.92422212  0.92183827  0.55868358  1
  Se  Se151  1  0.08828044  0.25058354  0.44343506  1
  Se  Se152  1  0.08361894  0.24585188  0.94942789  1
  Se  Se153  1  0.07019266  0.57732948  0.42720109  1
  Se  Se154  1  0.08698991  0.58110936  0.94336058  1
  Se  Se155  1  0.07292332  0.92131553  0.44106558  1
  Se  Se156  1  0.08255454  0.91928091  0.94582554  1
  Se  Se157  1  0.41259961  0.25228210  0.45841930  1
  Se  Se158  1  0.41802823  0.25368230  0.94184078  1
  Se  Se159  1  0.41937099  0.57302636  0.45578024  1
  Se  Se160  1  0.41053630  0.58514731  0.92829706  1
  Se  Se161  1  0.41565313  0.91431291  0.44881224  1
  Se  Se162  1  0.41345731  0.92051113  0.93702984  1
  Se  Se163  1  0.74361838  0.26325433  0.44261641  1
  Se  Se164  1  0.74810030  0.24855304  0.94765516  1
  Se  Se165  1  0.73432050  0.59487833  0.44899767  1
  Se  Se166  1  0.74778562  0.57875864  0.94354236  1
  Se  Se167  1  0.74620012  0.92250896  0.44518267  1
  Se  Se168  1  0.74539448  0.91366144  0.94166122  1
  Se  Se169  1  0.25163545  0.07515239  0.44114678  1
  Se  Se170  1  0.25159430  0.08651273  0.94696993  1
  Se  Se171  1  0.25831002  0.40740130  0.44817593  1
  Se  Se172  1  0.25494699  0.42010340  0.93147465  1
  Se  Se173  1  0.25753649  0.73469814  0.44256915  1
  Se  Se174  1  0.24911979  0.75134512  0.94604692  1
  Se  Se175  1  0.58481733  0.08593273  0.44771869  1
  Se  Se176  1  0.57924912  0.08541493  0.94444163  1
  Se  Se177  1  0.57791346  0.41961955  0.45561096  1
  Se  Se178  1  0.58829767  0.41217491  0.93116130  1
  Se  Se179  1  0.58076500  0.74932852  0.45600898  1
  Se  Se180  1  0.58769635  0.74343801  0.93390718  1
  Se  Se181  1  0.92622983  0.07218397  0.44248645  1
  Se  Se182  1  0.91265620  0.08209722  0.94550394  1
  Se  Se183  1  0.92439482  0.40305190  0.43616654  1
  Se  Se184  1  0.91429260  0.41620661  0.94884963  1
  Se  Se185  1  0.91454424  0.74656941  0.43507758  1
  Se  Se186  1  0.91411690  0.75153746  0.94484070  1
  Se  Se187  1  0.24373952  0.23738765  0.31218171  1
  Se  Se188  1  0.25162592  0.24956928  0.80779865  1
  Se  Se189  1  0.23870255  0.56950945  0.30441539  1
  Se  Se190  1  0.26290038  0.60727155  0.79745568  1
  Se  Se191  1  0.25421108  0.91125939  0.29901243  1
  Se  Se192  1  0.24774403  0.92183262  0.80824734  1
  Se  Se193  1  0.58121535  0.25539398  0.31081807  1
  Se  Se194  1  0.58165789  0.24687906  0.80574311  1
  Se  Se195  1  0.57874769  0.58447974  0.31379611  1
  Se  Se196  1  0.57752590  0.57481092  0.79130498  1
  Se  Se197  1  0.58091252  0.91094149  0.31521775  1
  Se  Se198  1  0.58922948  0.92203500  0.79981267  1
  Se  Se199  1  0.92147140  0.25357870  0.30194990  1
  Se  Se200  1  0.92012931  0.25092041  0.81058910  1
  Se  Se201  1  0.93118245  0.60463221  0.30062172  1
  Se  Se202  1  0.91375212  0.57410172  0.81665910  1
  Se  Se203  1  0.91333286  0.91928958  0.30479214  1
  Se  Se204  1  0.90251605  0.90721725  0.80338637  1
  Se  Se205  1  0.08901102  0.08500945  0.30671701  1
  Se  Se206  1  0.08216983  0.08442872  0.80865232  1
  Se  Se207  1  0.08375692  0.40702417  0.29427426  1
  Se  Se208  1  0.08877737  0.41617967  0.80658218  1
  Se  Se209  1  0.08530577  0.74835395  0.29432807  1
  Se  Se210  1  0.08660680  0.75911032  0.81719488  1
  Se  Se211  1  0.41907019  0.08364002  0.30970132  1
  Se  Se212  1  0.41601543  0.08264844  0.80525127  1
  Se  Se213  1  0.42046879  0.41922154  0.31537191  1
  Se  Se214  1  0.42840716  0.42964068  0.79285125  1
  Se  Se215  1  0.42608746  0.75293963  0.31388130  1
  Se  Se216  1  0.42139143  0.76038344  0.80207991  1
  Se  Se217  1  0.76015013  0.10332252  0.30291321  1
  Se  Se218  1  0.75034214  0.08474055  0.80861178  1
  Se  Se219  1  0.77036963  0.45368253  0.31524414  1
  Se  Se220  1  0.75319699  0.41178322  0.80853619  1
  Se  Se221  1  0.75961178  0.76127112  0.30771418  1
  Se  Se222  1  0.73788070  0.72873032  0.80150542  1
  Se  Se223  1  0.25850091  0.07955363  0.19154529  1
  Se  Se224  1  0.24746984  0.08377631  0.70067685  1
  Se  Se225  1  0.24734403  0.41835553  0.18575390  1
  Se  Se226  1  0.25073947  0.43176762  0.71272097  1
  Se  Se227  1  0.24665989  0.74457742  0.18131446  1
  Se  Se228  1  0.23059864  0.77227908  0.69132313  1
  Se  Se229  1  0.57816774  0.09220009  0.19183110  1
  Se  Se230  1  0.58424038  0.08155790  0.69468450  1
  Se  Se231  1  0.59043698  0.41765691  0.20391028  1
  Se  Se232  1  0.61661778  0.37826343  0.69390495  1
  Se  Se233  1  0.57579651  0.76308824  0.19736758  1
  Se  Se234  1  0.57724462  0.75530188  0.69321339  1
  Se  Se235  1  0.90591894  0.09621173  0.18998624  1
  Se  Se236  1  0.92055164  0.08902687  0.69875347  1
  Se  Se237  1  0.92195112  0.41126813  0.18844704  1
  Se  Se238  1  0.92483570  0.40932736  0.69979060  1
  Se  Se239  1  0.91514022  0.75348151  0.18735898  1
  Se  Se240  1  0.91025415  0.74611249  0.68723055  1
  Se  Se241  1  0.09058354  0.24456619  0.19207175  1
  Se  Se242  1  0.08713006  0.25178874  0.69970971  1
  Se  Se243  1  0.08112425  0.58287552  0.18494683  1
  Se  Se244  1  0.08597430  0.58045369  0.69458083  1
  Se  Se245  1  0.09560535  0.90831789  0.18183281  1
  Se  Se246  1  0.07050044  0.92283799  0.69964620  1
  Se  Se247  1  0.42408982  0.24486626  0.19172172  1
  Se  Se248  1  0.42141278  0.24750299  0.69671539  1
  Se  Se249  1  0.42524545  0.57480176  0.19477991  1
  Se  Se250  1  0.38315362  0.62069752  0.69545429  1
  Se  Se251  1  0.42389766  0.90382828  0.19586884  1
  Se  Se252  1  0.41434657  0.92573225  0.69514972  1
  Se  Se253  1  0.73472774  0.26206310  0.18669952  1
  Se  Se254  1  0.75953940  0.24347562  0.69688376  1
  Se  Se255  1  0.75933741  0.58128920  0.18510560  1
  Se  Se256  1  0.75958967  0.56719924  0.69739088  1
  Se  Se257  1  0.75291747  0.91757003  0.18793158  1
  Se  Se258  1  0.76559613  0.90638400  0.70110858  1
