# generated using pymatgen
data_In86Cu29Se144
_symmetry_space_group_name_H-M   'P 1'
_cell_length_a   17.59379991
_cell_length_b   17.59541035
_cell_length_c   23.45035629
_cell_angle_alpha   89.96081966
_cell_angle_beta   89.98821924
_cell_angle_gamma   89.97938884
_symmetry_Int_Tables_number   1
_chemical_formula_structural   In86Cu29Se144
_chemical_formula_sum   'In86 Cu29 Se144'
_cell_volume   7259.52750103
_cell_formula_units_Z   1
loop_
 _symmetry_equiv_pos_site_id
 _symmetry_equiv_pos_as_xyz
  1  'x, y, z'
loop_
 _atom_site_type_symbol
 _atom_site_label
 _atom_site_symmetry_multiplicity
 _atom_site_fract_x
 _atom_site_fract_y
 _atom_site_fract_z
 _atom_site_occupancy
  In  In0  1  0.00901772  0.16048754  0.13087322  1
  In  In1  1  0.00833921  0.17353733  0.61703785  1
  In  In2  1  -0.00657681  0.49909296  0.12151360  1
  In  In3  1  0.00675164  0.50163505  0.63515163  1
  In  In4  1  0.01213305  0.82695717  0.14378217  1
  In  In5  1  -0.00170845  0.81827949  0.61994396  1
  In  In6  1  0.32655100  0.16183086  0.12384397  1
  In  In7  1  0.33061605  0.18044903  0.62558741  1
  In  In8  1  0.33700384  0.51382077  0.12770055  1
  In  In9  1  0.33667630  0.48836353  0.62359336  1
  In  In10  1  0.32768344  0.82577208  0.14175065  1
  In  In11  1  0.33405457  0.83237688  0.61257470  1
  In  In12  1  0.66450426  0.16415987  0.13122082  1
  In  In13  1  0.66204468  0.14973777  0.62118515  1
  In  In14  1  0.67267960  0.49577939  0.12964606  1
  In  In15  1  0.66910995  0.51787739  0.61929245  1
  In  In16  1  0.65920979  0.83799731  0.13535216  1
  In  In17  1  0.66834611  0.83508765  0.62261099  1
  In  In18  1  0.17053541  0.00074424  0.37324513  1
  In  In19  1  0.17744146  0.00220011  0.88087966  1
  In  In20  1  0.15076715  0.33741411  0.37386598  1
  In  In21  1  0.16273038  0.33669890  0.88104594  1
  In  In22  1  0.18885456  0.69841094  0.34721336  1
  In  In23  1  0.15038533  0.65626509  0.86972236  1
  In  In24  1  0.48739019  -0.00283956  0.36191369  1
  In  In25  1  0.51765210  0.00480441  0.87589294  1
  In  In26  1  0.51683030  0.32794589  0.36880599  1
  In  In27  1  0.48665856  0.33273768  0.87597911  1
  In  In28  1  0.50786324  0.67064340  0.37907275  1
  In  In29  1  0.51122272  0.65665017  0.87306000  1
  In  In30  1  0.84423088  0.00819653  0.36865602  1
  In  In31  1  0.82410823  0.00901269  0.87677207  1
  In  In32  1  0.82485532  0.32677315  0.36894498  1
  In  In33  1  0.86254814  0.33828076  0.87171746  1
  In  In34  1  0.82924862  0.66638737  0.37011472  1
  In  In35  1  0.83060057  0.66423257  0.87655289  1
  In  In36  1  -0.00017367  0.16765923  0.37516122  1
  In  In37  1  -0.00054344  0.18211131  0.87772884  1
  In  In38  1  0.00413541  0.50495948  0.36724264  1
  In  In39  1  0.00281749  0.50302951  0.88574989  1
  In  In40  1  0.01708941  0.84894741  0.35704125  1
  In  In41  1  0.00665529  0.82369508  0.87536057  1
  In  In42  1  0.33544001  0.14786795  0.36992122  1
  In  In43  1  0.32124961  0.18109770  0.88666339  1
  In  In44  1  0.33809610  0.51454440  0.36972379  1
  In  In45  1  0.33601647  0.48452434  0.87616156  1
  In  In46  1  0.33694964  0.84114652  0.37808892  1
  In  In47  1  0.33268037  0.83441747  0.87699588  1
  In  In48  1  0.67163199  0.17617050  0.36399759  1
  In  In49  1  0.66907982  0.15489431  0.87696581  1
  In  In50  1  0.66025020  0.50000805  0.37001093  1
  In  In51  1  0.66359349  0.51625470  0.87447440  1
  In  In52  1  0.65144996  0.82218640  0.37257861  1
  In  In53  1  0.67108168  0.83337998  0.86984308  1
  In  In54  1  0.16015641  0.00126003  0.13926487  1
  In  In55  1  0.16890927  0.00218116  0.61480791  1
  In  In56  1  0.15581158  0.32456623  0.12057377  1
  In  In57  1  0.17424506  0.33141801  0.62858332  1
  In  In58  1  0.16939750  0.65878579  0.13080213  1
  In  In59  1  0.15414349  0.66241530  0.62010995  1
  In  In60  1  0.49619458  0.00587618  0.13514508  1
  In  In61  1  0.51343261  -0.00196791  0.62148542  1
  In  In62  1  0.52193802  0.33032748  0.13203335  1
  In  In63  1  0.48413968  0.32900131  0.62353132  1
  In  In64  1  0.50074610  0.65200339  0.14627086  1
  In  In65  1  0.51493794  0.67859235  0.60467164  1
  In  In66  1  0.83181486  0.00290902  0.13407987  1
  In  In67  1  0.81979871  -0.00321932  0.62012979  1
  In  In68  1  0.82187990  0.34329278  0.12718302  1
  In  In69  1  0.84839703  0.33878094  0.62473452  1
  In  In70  1  0.84251422  0.65321855  0.13005058  1
  In  In71  1  0.84055569  0.66190242  0.62952750  1
  In  In72  1  0.66992790  0.33530436  0.74724196  1
  In  In73  1  0.49750164  0.16145638  0.49542650  1
  In  In74  1  0.33471588  0.65970717  0.75094427  1
  In  In75  1  0.33869297  0.00447939  0.74943527  1
  In  In76  1  0.49739496  0.49701295  0.00259876  1
  In  In77  1  0.83441842  0.83260107  0.49686613  1
  In  In78  1  0.83092563  0.49908679  0.49400276  1
  In  In79  1  0.83426489  0.83504196  0.00205004  1
  In  In80  1  0.16714247  0.83077159  0.01560509  1
  In  In81  1  0.49313627  0.83610582  0.01719586  1
  In  In82  1  0.33676045  0.33522309  0.24739007  1
  In  In83  1  -0.00630104  -0.00200813  0.75387412  1
  In  In84  1  0.16862991  0.50224878  0.49973350  1
  In  In85  1  0.83403740  0.17284905  0.00129033  1
  Cu  Cu86  1  0.32928175  0.32901244  0.49897190  1
  Cu  Cu87  1  0.82893684  0.49718793  0.24964378  1
  Cu  Cu88  1  0.66822459  0.33032211  0.49194718  1
  Cu  Cu89  1  0.16015518  0.82754883  0.74423909  1
  Cu  Cu90  1  0.66783777  0.67303176  0.00113728  1
  Cu  Cu91  1  0.82898549  0.82541208  0.74712837  1
  Cu  Cu92  1  0.33520804  0.67295948  0.48925370  1
  Cu  Cu93  1  0.83922919  0.50317926  0.75433646  1
  Cu  Cu94  1  0.00374745  0.00002734  0.01082398  1
  Cu  Cu95  1  -0.00125855  0.32351913  0.49875741  1
  Cu  Cu96  1  0.83852762  0.16981924  0.24836126  1
  Cu  Cu97  1  0.67324093  0.33326108  0.00224959  1
  Cu  Cu98  1  0.49880367  0.83110857  0.25505739  1
  Cu  Cu99  1  0.00539305  0.66821532  0.49264900  1
  Cu  Cu100  1  0.15590059  0.49591408  0.24651552  1
  Cu  Cu101  1  0.33034336  -0.00257673  0.49412528  1
  Cu  Cu102  1  0.33128664  0.32975665  0.00384160  1
  Cu  Cu103  1  0.66566995  -0.00271235  0.49439820  1
  Cu  Cu104  1  0.16303646  0.17799637  0.75348145  1
  Cu  Cu105  1  0.32302815  0.66606861  0.00529700  1
  Cu  Cu106  1  0.00375545  0.00287030  0.49010772  1
  Cu  Cu107  1  0.82799409  0.83502180  0.25294144  1
  Cu  Cu108  1  0.00328122  0.33841926  0.00134201  1
  Cu  Cu109  1  0.82911412  0.16150556  0.74989544  1
  Cu  Cu110  1  0.49698860  0.16713627  0.74786480  1
  Cu  Cu111  1  0.50176536  0.50245317  0.74681579  1
  Cu  Cu112  1  0.16581010  0.16666616  0.25187448  1
  Cu  Cu113  1  0.51010878  0.82863736  0.74512679  1
  Cu  Cu114  1  0.33856114  0.00745922  0.00560991  1
  Se  Se115  1  0.09160087  0.08101685  0.05998636  1
  Se  Se116  1  0.08435738  0.08483940  0.54920878  1
  Se  Se117  1  0.08626202  0.42111345  0.05479163  1
  Se  Se118  1  0.07531380  0.41142615  0.55717391  1
  Se  Se119  1  0.07065925  0.73870483  0.06304428  1
  Se  Se120  1  0.08759687  0.75202366  0.54708541  1
  Se  Se121  1  0.42293972  0.08676922  0.05929910  1
  Se  Se122  1  0.40681151  0.07577442  0.56171681  1
  Se  Se123  1  0.41224909  0.40755608  0.06588220  1
  Se  Se124  1  0.41554100  0.41260525  0.54842516  1
  Se  Se125  1  0.40699919  0.73525494  0.06881861  1
  Se  Se126  1  0.41934071  0.75634373  0.54346249  1
  Se  Se127  1  0.74855060  0.07822572  0.05761200  1
  Se  Se128  1  0.74825491  0.08204806  0.54685157  1
  Se  Se129  1  0.75015892  0.42441792  0.05127561  1
  Se  Se130  1  0.74376942  0.40848534  0.55834951  1
  Se  Se131  1  0.74340185  0.74972067  0.06498654  1
  Se  Se132  1  0.75127714  0.73878582  0.55802039  1
  Se  Se133  1  0.24607675  0.24581871  0.05486794  1
  Se  Se134  1  0.24455247  0.24851891  0.55202080  1
  Se  Se135  1  0.24426933  0.57738244  0.05540312  1
  Se  Se136  1  0.26236232  0.59375164  0.55723075  1
  Se  Se137  1  0.26182204  0.92386553  0.06665158  1
  Se  Se138  1  0.24647125  0.91429677  0.54819034  1
  Se  Se139  1  0.59270773  0.24998047  0.05570882  1
  Se  Se140  1  0.58710009  0.25368869  0.55711126  1
  Se  Se141  1  0.58335998  0.59325209  0.06003352  1
  Se  Se142  1  0.57020374  0.56538351  0.54810713  1
  Se  Se143  1  0.59100602  0.92917504  0.06091790  1
  Se  Se144  1  0.58594175  0.91359591  0.54967227  1
  Se  Se145  1  0.92436608  0.25680246  0.06388746  1
  Se  Se146  1  0.91055589  0.24660443  0.55252416  1
  Se  Se147  1  0.90830672  0.57773877  0.05134896  1
  Se  Se148  1  0.92907855  0.58468251  0.55432546  1
  Se  Se149  1  0.92593020  0.91750891  0.06811057  1
  Se  Se150  1  0.92661076  0.92502519  0.55680858  1
  Se  Se151  1  0.08730466  0.24631484  0.44624844  1
  Se  Se152  1  0.08452376  0.24814650  0.95198382  1
  Se  Se153  1  0.08906896  0.59160082  0.43362789  1
  Se  Se154  1  0.08943327  0.58512435  0.95190473  1
  Se  Se155  1  0.08537861  0.91483604  0.44146672  1
  Se  Se156  1  0.07971726  0.92046722  0.94572275  1
  Se  Se157  1  0.41036382  0.25355846  0.43503135  1
  Se  Se158  1  0.42021211  0.24963104  0.95226569  1
  Se  Se159  1  0.41892803  0.58385046  0.44504599  1
  Se  Se160  1  0.40817589  0.59230790  0.94206262  1
  Se  Se161  1  0.42474302  0.92282832  0.44572762  1
  Se  Se162  1  0.41218514  0.92347808  0.94440099  1
  Se  Se163  1  0.75094943  0.24441128  0.44343969  1
  Se  Se164  1  0.75123171  0.26165737  0.93326591  1
  Se  Se165  1  0.73874386  0.59226332  0.44286287  1
  Se  Se166  1  0.74693670  0.58602819  0.94868101  1
  Se  Se167  1  0.74808005  0.92047611  0.43317376  1
  Se  Se168  1  0.73929703  0.92494055  0.94592648  1
  Se  Se169  1  0.24875297  0.08610793  0.44622651  1
  Se  Se170  1  0.24905491  0.08508190  0.95280813  1
  Se  Se171  1  0.25653358  0.41282506  0.43586326  1
  Se  Se172  1  0.25166937  0.41592382  0.94999137  1
  Se  Se173  1  0.24575064  0.75332005  0.44010744  1
  Se  Se174  1  0.24903364  0.74652151  0.94195507  1
  Se  Se175  1  0.58789745  0.07851556  0.43256077  1
  Se  Se176  1  0.58039635  0.09176822  0.94944158  1
  Se  Se177  1  0.58403146  0.41427566  0.44294338  1
  Se  Se178  1  0.59017299  0.41069768  0.93931952  1
  Se  Se179  1  0.58165624  0.75399109  0.45325805  1
  Se  Se180  1  0.58213237  0.75189214  0.94483296  1
  Se  Se181  1  0.91455985  0.08706768  0.44586809  1
  Se  Se182  1  0.92678727  0.07594660  0.94419465  1
  Se  Se183  1  0.92470827  0.40935915  0.43802888  1
  Se  Se184  1  0.91332816  0.42032793  0.95379512  1
  Se  Se185  1  0.92498189  0.74920552  0.43413349  1
  Se  Se186  1  0.92532638  0.74252949  0.94699160  1
  Se  Se187  1  0.24535198  0.24932720  0.31119124  1
  Se  Se188  1  0.24794369  0.25607649  0.80929217  1
  Se  Se189  1  0.24144160  0.57536006  0.30040964  1
  Se  Se190  1  0.24584851  0.56995464  0.80927308  1
  Se  Se191  1  0.25944916  0.92385633  0.30695202  1
  Se  Se192  1  0.24119236  0.90802326  0.80340144  1
  Se  Se193  1  0.58344359  0.24741630  0.29343661  1
  Se  Se194  1  0.57966843  0.24662341  0.80874471  1
  Se  Se195  1  0.58382812  0.59062729  0.30482626  1
  Se  Se196  1  0.58793381  0.58680211  0.79505774  1
  Se  Se197  1  0.58501380  0.91716901  0.30313569  1
  Se  Se198  1  0.58409237  0.91517423  0.80349250  1
  Se  Se199  1  0.91962041  0.25222320  0.30453425  1
  Se  Se200  1  0.91803422  0.24349325  0.79759936  1
  Se  Se201  1  0.91082141  0.58103739  0.30325916  1
  Se  Se202  1  0.91986339  0.58341228  0.81219705  1
  Se  Se203  1  0.91715370  0.92139100  0.29716525  1
  Se  Se204  1  0.90350963  0.90509875  0.81379066  1
  Se  Se205  1  0.08274504  0.08412501  0.30685543  1
  Se  Se206  1  0.09023828  0.08717374  0.81114295  1
  Se  Se207  1  0.07367990  0.41103163  0.29806137  1
  Se  Se208  1  0.05746590  0.39798321  0.81896531  1
  Se  Se209  1  0.05635229  0.72522457  0.30630355  1
  Se  Se210  1  0.07908267  0.74604326  0.79911541  1
  Se  Se211  1  0.42217730  0.09230564  0.29349090  1
  Se  Se212  1  0.41889797  0.09322405  0.81554603  1
  Se  Se213  1  0.42550167  0.42193724  0.30891948  1
  Se  Se214  1  0.42081951  0.41808995  0.80026738  1
  Se  Se215  1  0.41705087  0.75080035  0.31208533  1
  Se  Se216  1  0.42702345  0.75677051  0.80940930  1
  Se  Se217  1  0.75500772  0.08588994  0.30130924  1
  Se  Se218  1  0.74467814  0.07856871  0.79992592  1
  Se  Se219  1  0.74476424  0.41507440  0.30371210  1
  Se  Se220  1  0.75635726  0.42192280  0.81279137  1
  Se  Se221  1  0.74488025  0.75034554  0.30448957  1
  Se  Se222  1  0.74788873  0.74345462  0.80453419  1
  Se  Se223  1  0.25203363  0.08473921  0.20050274  1
  Se  Se224  1  0.23977496  0.09165964  0.69401125  1
  Se  Se225  1  0.24140881  0.41938956  0.18685842  1
  Se  Se226  1  0.24231740  0.42817462  0.69301628  1
  Se  Se227  1  0.23303777  0.75098633  0.20319622  1
  Se  Se228  1  0.24976509  0.75414233  0.68811551  1
  Se  Se229  1  0.59424149  0.07317117  0.20011749  1
  Se  Se230  1  0.58023380  0.08130194  0.69806073  1
  Se  Se231  1  0.56692939  0.44062581  0.19397278  1
  Se  Se232  1  0.57887649  0.42006196  0.68463033  1
  Se  Se233  1  0.58350646  0.74795949  0.20269125  1
  Se  Se234  1  0.58682055  0.74507028  0.68813177  1
  Se  Se235  1  0.92166974  0.08219759  0.19856513  1
  Se  Se236  1  0.91091891  0.08462185  0.68666236  1
  Se  Se237  1  0.91351621  0.41647878  0.19444756  1
  Se  Se238  1  0.91953900  0.41783759  0.69991248  1
  Se  Se239  1  0.90864717  0.75076887  0.19786750  1
  Se  Se240  1  0.92045884  0.74794783  0.69739127  1
  Se  Se241  1  0.08244700  0.25132431  0.19984101  1
  Se  Se242  1  0.08071557  0.25266984  0.69315137  1
  Se  Se243  1  0.07428875  0.58106314  0.19351715  1
  Se  Se244  1  0.08806639  0.58769221  0.69895896  1
  Se  Se245  1  0.09263259  0.91064334  0.20913309  1
  Se  Se246  1  0.08480276  0.91499382  0.68742305  1
  Se  Se247  1  0.42350503  0.24355620  0.18864813  1
  Se  Se248  1  0.41088276  0.25239868  0.70097400  1
  Se  Se249  1  0.39746551  0.59046198  0.20837237  1
  Se  Se250  1  0.42631163  0.58370452  0.68350862  1
  Se  Se251  1  0.41675107  0.91368916  0.19988981  1
  Se  Se252  1  0.42317301  0.90786376  0.68948147  1
  Se  Se253  1  0.75132197  0.25015869  0.19477112  1
  Se  Se254  1  0.75398154  0.24185517  0.68526679  1
  Se  Se255  1  0.74724455  0.58549894  0.19833761  1
  Se  Se256  1  0.75503824  0.57975804  0.69628958  1
  Se  Se257  1  0.74636346  0.92062281  0.20026052  1
  Se  Se258  1  0.75022827  0.91394528  0.69501276  1
