# generated using pymatgen
data_In86Cu29Se144
_symmetry_space_group_name_H-M   'P 1'
_cell_length_a   17.58953754
_cell_length_b   17.58546595
_cell_length_c   23.45274920
_cell_angle_alpha   90.00491037
_cell_angle_beta   90.01369205
_cell_angle_gamma   89.99709603
_symmetry_Int_Tables_number   1
_chemical_formula_structural   In86Cu29Se144
_chemical_formula_sum   'In86 Cu29 Se144'
_cell_volume   7254.40914568
_cell_formula_units_Z   1
loop_
 _symmetry_equiv_pos_site_id
 _symmetry_equiv_pos_as_xyz
  1  'x, y, z'
loop_
 _atom_site_type_symbol
 _atom_site_label
 _atom_site_symmetry_multiplicity
 _atom_site_fract_x
 _atom_site_fract_y
 _atom_site_fract_z
 _atom_site_occupancy
  In  In0  1  0.00618945  0.17127462  0.12178131  1
  In  In1  1  -0.00738859  0.13937410  0.61977760  1
  In  In2  1  0.00039041  0.50089517  0.13384127  1
  In  In3  1  0.00562768  0.50602947  0.62384864  1
  In  In4  1  -0.00043257  0.82083331  0.12863708  1
  In  In5  1  0.00423918  0.85524977  0.60896298  1
  In  In6  1  0.33670877  0.16700001  0.12458032  1
  In  In7  1  0.33845435  0.16297660  0.60457509  1
  In  In8  1  0.34163287  0.49192888  0.13152247  1
  In  In9  1  0.33957413  0.47988619  0.63038293  1
  In  In10  1  0.32828303  0.84270034  0.13329488  1
  In  In11  1  0.32511680  0.85061482  0.61917491  1
  In  In12  1  0.66551684  0.16687072  0.12327589  1
  In  In13  1  0.65729153  0.17450502  0.63761014  1
  In  In14  1  0.65025168  0.50826871  0.12822243  1
  In  In15  1  0.64922566  0.49154876  0.62133181  1
  In  In16  1  0.65938595  0.83544328  0.13372771  1
  In  In17  1  0.67418095  0.84337501  0.61943996  1
  In  In18  1  0.18148613  -0.01398139  0.39463546  1
  In  In19  1  0.16623573  0.00433105  0.87659592  1
  In  In20  1  0.16610196  0.32430059  0.36426879  1
  In  In21  1  0.16834281  0.31491272  0.87516850  1
  In  In22  1  0.17196755  0.67102651  0.36655056  1
  In  In23  1  0.18556703  0.67964681  0.88199203  1
  In  In24  1  0.50944291  0.01034021  0.36996603  1
  In  In25  1  0.51563893  0.01793513  0.86863121  1
  In  In26  1  0.50056970  0.32881331  0.37382703  1
  In  In27  1  0.49913053  0.32737842  0.87995025  1
  In  In28  1  0.48863417  0.65590769  0.36852335  1
  In  In29  1  0.49781029  0.65715935  0.88266820  1
  In  In30  1  0.82261003  0.00381001  0.37997384  1
  In  In31  1  0.84164332  -0.00188344  0.87273463  1
  In  In32  1  0.83338059  0.32912533  0.36417969  1
  In  In33  1  0.79511580  0.32239406  0.86864631  1
  In  In34  1  0.84035531  0.67395463  0.36773698  1
  In  In35  1  0.82155032  0.67271536  0.87844255  1
  In  In36  1  -0.00066885  0.16788980  0.37329125  1
  In  In37  1  0.01243583  0.15088893  0.87925236  1
  In  In38  1  0.00137911  0.49849375  0.36418505  1
  In  In39  1  -0.00238452  0.50254046  0.87921854  1
  In  In40  1  0.00952235  0.83190279  0.38359929  1
  In  In41  1  0.00212209  0.85337964  0.87354815  1
  In  In42  1  0.33303185  0.16521849  0.37147958  1
  In  In43  1  0.33125368  0.17147180  0.87651181  1
  In  In44  1  0.34408044  0.50549383  0.37045125  1
  In  In45  1  0.37510243  0.48329316  0.89478543  1
  In  In46  1  0.32775247  0.82657748  0.36827917  1
  In  In47  1  0.32652394  0.82399645  0.88322554  1
  In  In48  1  0.65770758  0.15794680  0.36749219  1
  In  In49  1  0.66523357  0.16350452  0.88972428  1
  In  In50  1  0.65536472  0.48569806  0.36806012  1
  In  In51  1  0.65356500  0.48564397  0.87212614  1
  In  In52  1  0.67302094  0.84199120  0.36984321  1
  In  In53  1  0.67423084  0.83904724  0.86858940  1
  In  In54  1  0.17704333  0.01138296  0.11912711  1
  In  In55  1  0.16914171  -0.00256465  0.60726632  1
  In  In56  1  0.17446958  0.32551463  0.13165297  1
  In  In57  1  0.18843203  0.32902123  0.62765800  1
  In  In58  1  0.16262398  0.67371282  0.13265959  1
  In  In59  1  0.15917422  0.67623650  0.61885861  1
  In  In60  1  0.49629585  0.00273029  0.12928278  1
  In  In61  1  0.49639636  0.04922494  0.62542923  1
  In  In62  1  0.49707547  0.33466161  0.12461285  1
  In  In63  1  0.49916009  0.32700909  0.62373947  1
  In  In64  1  0.50351799  0.66522347  0.13142772  1
  In  In65  1  0.49992904  0.65683776  0.61905157  1
  In  In66  1  0.81833227  0.00604612  0.12377930  1
  In  In67  1  0.83445189  -0.01228962  0.64450827  1
  In  In68  1  0.83836207  0.32369686  0.12902264  1
  In  In69  1  0.82547106  0.31670548  0.62788860  1
  In  In70  1  0.83035419  0.66622991  0.13336699  1
  In  In71  1  0.82534869  0.68732601  0.62024237  1
  In  In72  1  0.17666353  0.50568411  0.49424736  1
  In  In73  1  0.84022351  0.83493948  -0.00225329  1
  In  In74  1  0.33959564  0.00673352  0.74891103  1
  In  In75  1  -0.00315023  0.32184996  0.74719991  1
  In  In76  1  0.00382245  0.67028916  0.74198741  1
  In  In77  1  0.17175727  0.49156880  0.01715477  1
  In  In78  1  0.82973040  0.50473993  0.49571631  1
  In  In79  1  0.00445114  0.00092498  0.25773461  1
  In  In80  1  0.82970843  0.16147398  0.50167224  1
  In  In81  1  0.66983389  0.67370570  0.75531545  1
  In  In82  1  0.49642551  0.84367828  0.00100524  1
  In  In83  1  0.50124585  0.83798050  0.49451113  1
  In  In84  1  0.83285522  0.49126240  0.00283602  1
  In  In85  1  0.33603665  0.65936068  0.75361594  1
  Cu  Cu86  1  0.00806395  0.33643001  0.49645021  1
  Cu  Cu87  1  0.01232156  0.66557948  0.00408923  1
  Cu  Cu88  1  0.33469634  0.00254702  0.00175371  1
  Cu  Cu89  1  0.49947964  0.17088456  0.24641799  1
  Cu  Cu90  1  0.83228178  0.50845901  0.74487239  1
  Cu  Cu91  1  0.83131623  0.83346154  0.24948496  1
  Cu  Cu92  1  0.16643214  0.50063143  0.24789621  1
  Cu  Cu93  1  0.16341069  0.83745375  0.25422575  1
  Cu  Cu94  1  0.82456174  0.16412093  0.75727778  1
  Cu  Cu95  1  0.16364816  0.84059933  0.74280149  1
  Cu  Cu96  1  -0.00864326  0.32096507  -0.00235459  1
  Cu  Cu97  1  0.16542631  0.15809048  0.74883422  1
  Cu  Cu98  1  0.83103209  0.16529805  0.25084902  1
  Cu  Cu99  1  0.50039255  0.49653239  0.25005577  1
  Cu  Cu100  1  0.49967183  0.83321530  0.25419419  1
  Cu  Cu101  1  0.66419986  0.66492653  0.49784989  1
  Cu  Cu102  1  0.65728363  0.32787835  0.49824231  1
  Cu  Cu103  1  0.66329219  0.00866641  0.50296247  1
  Cu  Cu104  1  0.17528437  0.16458153  0.24836009  1
  Cu  Cu105  1  0.33057807  0.66700022  0.49405735  1
  Cu  Cu106  1  0.00614598  -0.00013454  0.00116101  1
  Cu  Cu107  1  0.17950916  0.48876404  0.75820960  1
  Cu  Cu108  1  -0.00163798  0.67993348  0.49439296  1
  Cu  Cu109  1  0.50017600  0.83297320  0.74669056  1
  Cu  Cu110  1  0.33268005  0.32790061  0.00492499  1
  Cu  Cu111  1  0.34332587  0.32943915  0.49705703  1
  Cu  Cu112  1  0.82740629  0.49806877  0.24839357  1
  Cu  Cu113  1  0.65604519  0.33173669  0.00271790  1
  Cu  Cu114  1  0.66048069  0.66596065  0.00510768  1
  Se  Se115  1  0.08682103  0.08719820  0.05265008  1
  Se  Se116  1  0.09201206  0.09619553  0.54829844  1
  Se  Se117  1  0.06748958  0.40192536  0.06201184  1
  Se  Se118  1  0.08721481  0.41451712  0.55839603  1
  Se  Se119  1  0.08835560  0.75466341  0.05577056  1
  Se  Se120  1  0.08488945  0.75874664  0.54793154  1
  Se  Se121  1  0.41894224  0.08269062  0.05552950  1
  Se  Se122  1  0.39601999  0.05076077  0.54728912  1
  Se  Se123  1  0.41477059  0.41733257  0.05274737  1
  Se  Se124  1  0.42045275  0.41573082  0.55251269  1
  Se  Se125  1  0.41550584  0.75444449  0.06549769  1
  Se  Se126  1  0.40929707  0.74696603  0.55794745  1
  Se  Se127  1  0.75371081  0.09258494  0.05199803  1
  Se  Se128  1  0.74321931  0.08137247  0.56912172  1
  Se  Se129  1  0.73834128  0.41090371  0.06440276  1
  Se  Se130  1  0.74683708  0.40522512  0.55477320  1
  Se  Se131  1  0.74568622  0.74693068  0.05918938  1
  Se  Se132  1  0.74332800  0.75612328  0.54527116  1
  Se  Se133  1  0.24661768  0.24598227  0.05554309  1
  Se  Se134  1  0.24904978  0.25265673  0.54552971  1
  Se  Se135  1  0.25758078  0.59000209  0.06885388  1
  Se  Se136  1  0.26086078  0.58882454  0.56550226  1
  Se  Se137  1  0.25339607  0.91756379  0.05453914  1
  Se  Se138  1  0.24479657  0.90728262  0.53995480  1
  Se  Se139  1  0.57560138  0.24719166  0.05637809  1
  Se  Se140  1  0.58354695  0.24163064  0.55538118  1
  Se  Se141  1  0.57245560  0.58366156  0.05254968  1
  Se  Se142  1  0.58148943  0.57947317  0.54753934  1
  Se  Se143  1  0.59322724  0.92549816  0.05914496  1
  Se  Se144  1  0.57787630  0.93016467  0.56172262  1
  Se  Se145  1  0.90955646  0.24060786  0.05405329  1
  Se  Se146  1  0.92590939  0.25719833  0.55724760  1
  Se  Se147  1  0.92239804  0.59009084  0.05835938  1
  Se  Se148  1  0.92365986  0.59527216  0.55628336  1
  Se  Se149  1  0.92558179  0.92363549  0.06393936  1
  Se  Se150  1  0.89560947  0.92471379  0.55701595  1
  Se  Se151  1  0.08391981  0.25262132  0.43946553  1
  Se  Se152  1  0.08437109  0.24385305  0.94817192  1
  Se  Se153  1  0.07508373  0.58970006  0.43871972  1
  Se  Se154  1  0.08914373  0.58163396  0.94532526  1
  Se  Se155  1  0.07255008  0.92594840  0.45222041  1
  Se  Se156  1  0.08945183  0.91646963  0.94764249  1
  Se  Se157  1  0.42144301  0.24265424  0.44256597  1
  Se  Se158  1  0.41548488  0.24534769  0.94951801  1
  Se  Se159  1  0.41760594  0.58136489  0.44865366  1
  Se  Se160  1  0.39327465  0.60789924  0.94887325  1
  Se  Se161  1  0.41384015  0.92133190  0.43052524  1
  Se  Se162  1  0.41113443  0.93070627  0.93318518  1
  Se  Se163  1  0.74539768  0.25383366  0.43848607  1
  Se  Se164  1  0.74992616  0.25110114  0.95787417  1
  Se  Se165  1  0.74069247  0.58819201  0.43234667  1
  Se  Se166  1  0.73931505  0.58360820  0.94362642  1
  Se  Se167  1  0.74108190  0.92153797  0.44924390  1
  Se  Se168  1  0.74393769  0.92310344  0.94498872  1
  Se  Se169  1  0.23589664  0.10533749  0.44261574  1
  Se  Se170  1  0.25159139  0.08380838  0.94411202  1
  Se  Se171  1  0.25921478  0.40871938  0.43646897  1
  Se  Se172  1  0.25171031  0.40922545  0.94194655  1
  Se  Se173  1  0.24660227  0.74901397  0.44278790  1
  Se  Se174  1  0.24845398  0.75777168  0.96091426  1
  Se  Se175  1  0.58165862  0.09012667  0.44748408  1
  Se  Se176  1  0.57628957  0.08192915  0.95448763  1
  Se  Se177  1  0.57822062  0.41582211  0.44638032  1
  Se  Se178  1  0.57532183  0.42046532  0.95088782  1
  Se  Se179  1  0.58495493  0.74370215  0.43333779  1
  Se  Se180  1  0.59168286  0.75040029  0.94055320  1
  Se  Se181  1  0.92468000  0.07530154  0.44392581  1
  Se  Se182  1  0.91970383  0.07786838  0.94656270  1
  Se  Se183  1  0.92191886  0.41109742  0.43906851  1
  Se  Se184  1  0.91574304  0.40274670  0.93593096  1
  Se  Se185  1  0.90740703  0.75706233  0.44418923  1
  Se  Se186  1  0.93058908  0.73983492  0.93951037  1
  Se  Se187  1  0.25950775  0.25239306  0.29728891  1
  Se  Se188  1  0.24802830  0.24293753  0.80013334  1
  Se  Se189  1  0.25153503  0.58034020  0.30343904  1
  Se  Se190  1  0.25088027  0.57376511  0.81952381  1
  Se  Se191  1  0.24556800  0.92152655  0.30735185  1
  Se  Se192  1  0.25013677  0.90920737  0.80649892  1
  Se  Se193  1  0.58551805  0.25170944  0.30116864  1
  Se  Se194  1  0.61170749  0.26919364  0.82212766  1
  Se  Se195  1  0.58321225  0.58213250  0.30283668  1
  Se  Se196  1  0.57264374  0.57906776  0.80472643  1
  Se  Se197  1  0.58557585  0.92013411  0.30193084  1
  Se  Se198  1  0.57891166  0.91352380  0.80559252  1
  Se  Se199  1  0.92071970  0.24674274  0.29992102  1
  Se  Se200  1  0.91003045  0.24439232  0.81735290  1
  Se  Se201  1  0.91339128  0.58074847  0.30094099  1
  Se  Se202  1  0.90916303  0.58442353  0.80773340  1
  Se  Se203  1  0.90897909  0.91200202  0.31318960  1
  Se  Se204  1  0.92148760  0.92026216  0.79948934  1
  Se  Se205  1  0.10023034  0.08675664  0.31287441  1
  Se  Se206  1  0.08286359  0.07407961  0.80028207  1
  Se  Se207  1  0.08359978  0.41319556  0.29921043  1
  Se  Se208  1  0.08364884  0.41713595  0.80999966  1
  Se  Se209  1  0.07827780  0.75299888  0.30542871  1
  Se  Se210  1  0.09422848  0.75476238  0.80762993  1
  Se  Se211  1  0.41940127  0.08561552  0.30183063  1
  Se  Se212  1  0.42793662  0.10388404  0.80261294  1
  Se  Se213  1  0.41799612  0.41321285  0.30427293  1
  Se  Se214  1  0.41222707  0.40479004  0.80913268  1
  Se  Se215  1  0.41333562  0.74640129  0.30079792  1
  Se  Se216  1  0.42525513  0.75647481  0.81037143  1
  Se  Se217  1  0.74957207  0.07925634  0.30259006  1
  Se  Se218  1  0.74633132  0.08284727  0.81595905  1
  Se  Se219  1  0.74680457  0.41154854  0.30033532  1
  Se  Se220  1  0.74818952  0.42712459  0.79933424  1
  Se  Se221  1  0.74703067  0.74993994  0.30224178  1
  Se  Se222  1  0.77280218  0.76697204  0.80021098  1
  Se  Se223  1  0.25753282  0.08065654  0.19558337  1
  Se  Se224  1  0.24646985  0.08532985  0.68410361  1
  Se  Se225  1  0.25084579  0.41533493  0.19804836  1
  Se  Se226  1  0.26128794  0.40487354  0.70543648  1
  Se  Se227  1  0.24828273  0.75449289  0.20096768  1
  Se  Se228  1  0.24816759  0.75494392  0.69110061  1
  Se  Se229  1  0.58354514  0.08514597  0.19504028  1
  Se  Se230  1  0.59645587  0.07020864  0.70191787  1
  Se  Se231  1  0.58265777  0.41301719  0.19603837  1
  Se  Se232  1  0.58369263  0.40748780  0.69350309  1
  Se  Se233  1  0.58380364  0.74840467  0.20170769  1
  Se  Se234  1  0.57735977  0.75163900  0.68613921  1
  Se  Se235  1  0.91545181  0.08514358  0.19211975  1
  Se  Se236  1  0.91235439  0.08689464  0.70334493  1
  Se  Se237  1  0.91372724  0.41569631  0.19603515  1
  Se  Se238  1  0.91093693  0.42358034  0.68739319  1
  Se  Se239  1  0.91619468  0.74737811  0.20062994  1
  Se  Se240  1  0.91909410  0.76445036  0.68479029  1
  Se  Se241  1  0.08528878  0.24491488  0.19765055  1
  Se  Se242  1  0.08863951  0.23986824  0.68390675  1
  Se  Se243  1  0.08079641  0.58717630  0.19971146  1
  Se  Se244  1  0.10469772  0.57254116  0.69555720  1
  Se  Se245  1  0.08838799  0.91630292  0.18908747  1
  Se  Se246  1  0.08842314  0.92372144  0.68468079  1
  Se  Se247  1  0.41399291  0.25345741  0.19480118  1
  Se  Se248  1  0.41343474  0.23360995  0.68161571  1
  Se  Se249  1  0.41729694  0.58315603  0.19867455  1
  Se  Se250  1  0.42786443  0.57149217  0.69480310  1
  Se  Se251  1  0.41855701  0.91886045  0.20048062  1
  Se  Se252  1  0.42625723  0.91594255  0.68594940  1
  Se  Se253  1  0.74790695  0.24759573  0.19617872  1
  Se  Se254  1  0.74624353  0.25375442  0.70644022  1
  Se  Se255  1  0.74381966  0.58204542  0.19558823  1
  Se  Se256  1  0.75076115  0.58567805  0.68389336  1
  Se  Se257  1  0.75009225  0.91804577  0.19596503  1
  Se  Se258  1  0.73213890  0.91759129  0.70293627  1
