# generated using pymatgen
data_In86Cu29Se144
_symmetry_space_group_name_H-M   'P 1'
_cell_length_a   17.58209095
_cell_length_b   17.58318242
_cell_length_c   23.43559320
_cell_angle_alpha   90.00530884
_cell_angle_beta   90.01541658
_cell_angle_gamma   90.01476682
_symmetry_Int_Tables_number   1
_chemical_formula_structural   In86Cu29Se144
_chemical_formula_sum   'In86 Cu29 Se144'
_cell_volume   7245.09230471
_cell_formula_units_Z   1
loop_
 _symmetry_equiv_pos_site_id
 _symmetry_equiv_pos_as_xyz
  1  'x, y, z'
loop_
 _atom_site_type_symbol
 _atom_site_label
 _atom_site_symmetry_multiplicity
 _atom_site_fract_x
 _atom_site_fract_y
 _atom_site_fract_z
 _atom_site_occupancy
  In  In0  1  0.00573914  0.18075653  0.10770028  1
  In  In1  1  -0.00522869  0.16097754  0.61975121  1
  In  In2  1  0.00212351  0.50663710  0.11502538  1
  In  In3  1  -0.00989859  0.51050638  0.63303929  1
  In  In4  1  0.00555518  0.82387928  0.12659489  1
  In  In5  1  -0.00554671  0.83073443  0.62254928  1
  In  In6  1  0.34746694  0.17944961  0.11089519  1
  In  In7  1  0.32287715  0.17783053  0.63223073  1
  In  In8  1  0.32784239  0.50368666  0.12536391  1
  In  In9  1  0.34268968  0.49415326  0.63360525  1
  In  In10  1  0.33773981  0.84221335  0.10507936  1
  In  In11  1  0.31998093  0.83395938  0.62845630  1
  In  In12  1  0.66731164  0.17064412  0.12213747  1
  In  In13  1  0.67488073  0.15615882  0.62508744  1
  In  In14  1  0.66551626  0.46497077  0.12047460  1
  In  In15  1  0.68740166  0.53439646  0.59439267  1
  In  In16  1  0.67086790  0.84787884  0.12865384  1
  In  In17  1  0.67666411  0.80927884  0.62526719  1
  In  In18  1  0.15649813  0.00450971  0.38598339  1
  In  In19  1  0.15724340  0.00986207  0.88385273  1
  In  In20  1  0.16604908  0.32749142  0.37175173  1
  In  In21  1  0.17022773  0.32500421  0.88339774  1
  In  In22  1  0.16597979  0.68014006  0.37712942  1
  In  In23  1  0.16684406  0.66591183  0.87022906  1
  In  In24  1  0.51193575  -0.00902339  0.37065497  1
  In  In25  1  0.48648022  0.00717848  0.89360938  1
  In  In26  1  0.51033870  0.34495509  0.35495047  1
  In  In27  1  0.49128365  0.33851723  0.88070722  1
  In  In28  1  0.49647638  0.66146711  0.38222773  1
  In  In29  1  0.50573158  0.67109323  0.87184252  1
  In  In30  1  0.82994981  0.01261752  0.38301908  1
  In  In31  1  0.84504575  -0.00610769  0.87110778  1
  In  In32  1  0.82430974  0.34153393  0.38196291  1
  In  In33  1  0.83807378  0.33569395  0.89523328  1
  In  In34  1  0.83795661  0.64980984  0.38107438  1
  In  In35  1  0.82862143  0.65667407  0.85869645  1
  In  In36  1  -0.00131736  0.16550693  0.38436257  1
  In  In37  1  0.00448081  0.16232083  0.88265410  1
  In  In38  1  -0.01660564  0.49998901  0.37546457  1
  In  In39  1  -0.00783275  0.51424770  0.88070729  1
  In  In40  1  0.01087185  0.82577190  0.38141561  1
  In  In41  1  0.00347251  0.83799016  0.86346607  1
  In  In42  1  0.32289853  0.17482895  0.37246909  1
  In  In43  1  0.31903993  0.17470671  0.88741812  1
  In  In44  1  0.34086804  0.49728733  0.37445484  1
  In  In45  1  0.32723215  0.48781205  0.86726897  1
  In  In46  1  0.32629235  0.82404969  0.37979159  1
  In  In47  1  0.34103535  0.82989688  0.88208707  1
  In  In48  1  0.67227459  0.17407171  0.36614333  1
  In  In49  1  0.67034177  0.17277088  0.89169778  1
  In  In50  1  0.67085947  0.49262691  0.37907080  1
  In  In51  1  0.66615687  0.50507469  0.88020577  1
  In  In52  1  0.66233804  0.84382539  0.37283555  1
  In  In53  1  0.66535738  0.81998607  0.87489985  1
  In  In54  1  0.17976366  0.00476298  0.10792893  1
  In  In55  1  0.14147235  -0.01801356  0.60640444  1
  In  In56  1  0.16542561  0.35174349  0.10857731  1
  In  In57  1  0.17695675  0.33023524  0.62744287  1
  In  In58  1  0.16510873  0.66597936  0.11516407  1
  In  In59  1  0.15385254  0.67654841  0.63912949  1
  In  In60  1  0.50832264  0.01380371  0.11142378  1
  In  In61  1  0.50636306  -0.00210225  0.62558286  1
  In  In62  1  0.51433531  0.32296131  0.14160488  1
  In  In63  1  0.49013614  0.34206588  0.63133851  1
  In  In64  1  0.48905883  0.66156977  0.12402392  1
  In  In65  1  0.51522598  0.65127581  0.63714205  1
  In  In66  1  0.82331275  0.00934435  0.13103198  1
  In  In67  1  0.85362756  0.00673908  0.61241829  1
  In  In68  1  0.82237172  0.32398550  0.10692168  1
  In  In69  1  0.83240827  0.33778856  0.61859835  1
  In  In70  1  0.84818221  0.66607453  0.12892874  1
  In  In71  1  0.83183894  0.66606090  0.62219302  1
  In  In72  1  0.16179656  0.50109719  0.51454464  1
  In  In73  1  -0.00214056  0.33831036  0.75523927  1
  In  In74  1  0.33616978  0.00028186  0.24802061  1
  In  In75  1  0.32971047  0.66552009  0.24611664  1
  In  In76  1  0.67002401  0.65963451  0.25743790  1
  In  In77  1  -0.00142354  0.00167985  0.25205994  1
  In  In78  1  0.50365108  0.49758593  0.00170989  1
  In  In79  1  -0.00432099  0.33766898  0.24624705  1
  In  In80  1  0.49860245  0.82926006  0.49870998  1
  In  In81  1  0.66978198  -0.00925532  0.75252940  1
  In  In82  1  0.49782916  0.17000612  0.50099313  1
  In  In83  1  0.83617121  0.83413865  -0.00107617  1
  In  In84  1  0.32290610  0.00005707  0.75532299  1
  In  In85  1  0.66617025  0.34502773  0.75511116  1
  Cu  Cu86  1  0.50007056  0.83063889  0.75523228  1
  Cu  Cu87  1  0.33387371  0.33508280  0.50307204  1
  Cu  Cu88  1  0.00213355  0.67172271  -0.00506508  1
  Cu  Cu89  1  0.32608617  0.00672580  0.50070399  1
  Cu  Cu90  1  0.50360990  0.83495625  0.24604119  1
  Cu  Cu91  1  0.82982906  0.17332389  0.24766167  1
  Cu  Cu92  1  0.16080291  0.50556128  0.23991892  1
  Cu  Cu93  1  0.16552305  0.16439842  0.75738421  1
  Cu  Cu94  1  0.83638329  0.16447311  0.75039017  1
  Cu  Cu95  1  0.66996550  0.66596081  -0.00216456  1
  Cu  Cu96  1  0.83833947  0.83406043  0.25025195  1
  Cu  Cu97  1  -0.00567760  0.32922758  0.50020835  1
  Cu  Cu98  1  0.67688992  -0.00170165  0.49929451  1
  Cu  Cu99  1  0.82963221  0.49617513  0.25016963  1
  Cu  Cu100  1  0.16004715  0.83217529  0.74908608  1
  Cu  Cu101  1  0.17233822  0.49747894  0.75123496  1
  Cu  Cu102  1  -0.00031733  0.66495390  0.50550144  1
  Cu  Cu103  1  0.33628316  0.33458523  0.00039300  1
  Cu  Cu104  1  0.16496642  0.83271956  0.24925411  1
  Cu  Cu105  1  0.17366797  0.17420276  0.24529266  1
  Cu  Cu106  1  0.33110148  0.66784328  0.50545300  1
  Cu  Cu107  1  0.66285380  0.32730210  0.49396758  1
  Cu  Cu108  1  0.33015887  0.66128787  -0.00275789  1
  Cu  Cu109  1  0.83660816  0.83117903  0.74413096  1
  Cu  Cu110  1  0.49369578  0.17373746  0.75615807  1
  Cu  Cu111  1  0.66445832  0.00260637  0.00451030  1
  Cu  Cu112  1  0.50455502  0.50520667  0.75266095  1
  Cu  Cu113  1  -0.00441587  0.00144883  -0.00132843  1
  Cu  Cu114  1  0.50337004  0.16143774  0.24134322  1
  Se  Se115  1  0.08437365  0.08409329  0.04788455  1
  Se  Se116  1  0.10059488  0.10464639  0.55631902  1
  Se  Se117  1  0.06047973  0.40888325  0.04335068  1
  Se  Se118  1  0.06899524  0.40583894  0.56819758  1
  Se  Se119  1  0.08393915  0.75493229  0.04887152  1
  Se  Se120  1  0.08533744  0.74661805  0.55724097  1
  Se  Se121  1  0.39052516  0.06002672  0.05669351  1
  Se  Se122  1  0.40880025  0.07831965  0.56336241  1
  Se  Se123  1  0.41614859  0.41033686  0.06463785  1
  Se  Se124  1  0.41666429  0.41958847  0.55444288  1
  Se  Se125  1  0.41811482  0.74183338  0.04928520  1
  Se  Se126  1  0.41374129  0.74593266  0.56661064  1
  Se  Se127  1  0.75215318  0.08516026  0.05387635  1
  Se  Se128  1  0.75644278  0.08625174  0.55125709  1
  Se  Se129  1  0.76867197  0.43716852  0.04813570  1
  Se  Se130  1  0.74470854  0.41182800  0.54863193  1
  Se  Se131  1  0.74687505  0.74646917  0.06260342  1
  Se  Se132  1  0.75517252  0.74667002  0.54767738  1
  Se  Se133  1  0.24634995  0.25302918  0.05101945  1
  Se  Se134  1  0.24980700  0.24924675  0.55183169  1
  Se  Se135  1  0.24789759  0.57749286  0.05059723  1
  Se  Se136  1  0.25389522  0.59148986  0.57101568  1
  Se  Se137  1  0.22641333  0.89335505  0.04655180  1
  Se  Se138  1  0.25137702  0.91417976  0.55159542  1
  Se  Se139  1  0.57256383  0.24807173  0.05920462  1
  Se  Se140  1  0.58890169  0.25480072  0.56474774  1
  Se  Se141  1  0.59465490  0.58663070  0.06387951  1
  Se  Se142  1  0.56546252  0.58449044  0.54761190  1
  Se  Se143  1  0.58479595  0.91169736  0.05338208  1
  Se  Se144  1  0.59481691  0.91833701  0.55836501  1
  Se  Se145  1  0.90579292  0.23968893  0.04229523  1
  Se  Se146  1  0.91021252  0.24686490  0.55406300  1
  Se  Se147  1  0.91585307  0.59154506  0.04861247  1
  Se  Se148  1  0.91544559  0.57797859  0.55329191  1
  Se  Se149  1  0.92014421  0.92397531  0.06516886  1
  Se  Se150  1  0.92520511  0.91493336  0.54713855  1
  Se  Se151  1  0.08364391  0.25597359  0.44536242  1
  Se  Se152  1  0.09412575  0.23630656  0.94924369  1
  Se  Se153  1  0.08001274  0.58457292  0.44229354  1
  Se  Se154  1  0.08848576  0.58679643  0.94535496  1
  Se  Se155  1  0.09019590  0.90869139  0.45041511  1
  Se  Se156  1  0.07224123  0.91532891  0.94257071  1
  Se  Se157  1  0.41408704  0.26018264  0.43803614  1
  Se  Se158  1  0.41925198  0.24820979  0.94955549  1
  Se  Se159  1  0.40843710  0.58366880  0.44911210  1
  Se  Se160  1  0.41316632  0.58145420  0.93733596  1
  Se  Se161  1  0.40864876  0.92738414  0.44045102  1
  Se  Se162  1  0.42095464  0.90659420  0.95456014  1
  Se  Se163  1  0.74986179  0.24320531  0.44501277  1
  Se  Se164  1  0.75135534  0.25413776  0.95887709  1
  Se  Se165  1  0.74464549  0.57987927  0.44778332  1
  Se  Se166  1  0.75567964  0.58999120  0.94249892  1
  Se  Se167  1  0.75287995  0.91296720  0.44299081  1
  Se  Se168  1  0.74147912  0.92322929  0.93958197  1
  Se  Se169  1  0.24914820  0.09053071  0.44411442  1
  Se  Se170  1  0.26194621  0.06697003  0.94772464  1
  Se  Se171  1  0.24787849  0.41612767  0.44584032  1
  Se  Se172  1  0.25285078  0.41784352  0.94693353  1
  Se  Se173  1  0.24621950  0.75076721  0.45414287  1
  Se  Se174  1  0.24928281  0.74534190  0.94247466  1
  Se  Se175  1  0.58989440  0.07810999  0.44249208  1
  Se  Se176  1  0.58039151  0.08877258  0.95381593  1
  Se  Se177  1  0.57756557  0.40870221  0.44104245  1
  Se  Se178  1  0.59581338  0.40433132  0.94648174  1
  Se  Se179  1  0.59437155  0.74270394  0.44173513  1
  Se  Se180  1  0.58238760  0.74803932  0.94900037  1
  Se  Se181  1  0.93295194  0.06882881  0.44911612  1
  Se  Se182  1  0.90948062  0.08108295  0.94510933  1
  Se  Se183  1  0.91354002  0.41802047  0.45025964  1
  Se  Se184  1  0.94608449  0.40654671  0.94923644  1
  Se  Se185  1  0.92028772  0.74165213  0.44331972  1
  Se  Se186  1  0.91790348  0.74650988  0.93277562  1
  Se  Se187  1  0.25346692  0.26003299  0.29788557  1
  Se  Se188  1  0.25016942  0.24933292  0.80694906  1
  Se  Se189  1  0.23882067  0.57878821  0.30892083  1
  Se  Se190  1  0.25492089  0.58396941  0.80264420  1
  Se  Se191  1  0.24356206  0.91321655  0.31065750  1
  Se  Se192  1  0.23789865  0.90772558  0.81524404  1
  Se  Se193  1  0.58645901  0.24710071  0.29507333  1
  Se  Se194  1  0.58203312  0.24606317  0.81390205  1
  Se  Se195  1  0.57198805  0.57336195  0.31138140  1
  Se  Se196  1  0.59026709  0.58515990  0.80658695  1
  Se  Se197  1  0.58992417  0.91992869  0.29412194  1
  Se  Se198  1  0.57127681  0.91705091  0.81687729  1
  Se  Se199  1  0.91194819  0.24731927  0.31115572  1
  Se  Se200  1  0.90878182  0.24597287  0.81455727  1
  Se  Se201  1  0.91452683  0.58213243  0.29970777  1
  Se  Se202  1  0.92267081  0.57960404  0.79768156  1
  Se  Se203  1  0.91496434  0.91212775  0.31513871  1
  Se  Se204  1  0.91824175  0.91916037  0.79432395  1
  Se  Se205  1  0.09299885  0.09626115  0.30622588  1
  Se  Se206  1  0.07853653  0.08156412  0.80653182  1
  Se  Se207  1  0.08653017  0.42822423  0.30756361  1
  Se  Se208  1  0.09245666  0.42169060  0.81490217  1
  Se  Se209  1  0.08272959  0.74840737  0.30142575  1
  Se  Se210  1  0.07875716  0.74319202  0.79974842  1
  Se  Se211  1  0.42632472  0.09017013  0.31123935  1
  Se  Se212  1  0.41616636  0.08953100  0.81313526  1
  Se  Se213  1  0.39828862  0.40621851  0.30142279  1
  Se  Se214  1  0.42325046  0.41445763  0.80147120  1
  Se  Se215  1  0.42435626  0.75735783  0.30760723  1
  Se  Se216  1  0.41365250  0.74875785  0.80612764  1
  Se  Se217  1  0.75488363  0.08340569  0.30276864  1
  Se  Se218  1  0.75101281  0.09119611  0.81216292  1
  Se  Se219  1  0.74752655  0.41271588  0.30379142  1
  Se  Se220  1  0.76343119  0.42102902  0.81798220  1
  Se  Se221  1  0.75949230  0.75470568  0.31280702  1
  Se  Se222  1  0.74904654  0.75400412  0.79896962  1
  Se  Se223  1  0.24915544  0.08996926  0.18671269  1
  Se  Se224  1  0.23480756  0.08232693  0.68959976  1
  Se  Se225  1  0.24199375  0.41819669  0.18999985  1
  Se  Se226  1  0.25390702  0.41172496  0.69903221  1
  Se  Se227  1  0.24872887  0.76093175  0.18536321  1
  Se  Se228  1  0.25186463  0.75013424  0.70318301  1
  Se  Se229  1  0.58826394  0.07925752  0.19035068  1
  Se  Se230  1  0.57543593  0.09191321  0.69887259  1
  Se  Se231  1  0.58032076  0.42537748  0.20283397  1
  Se  Se232  1  0.58470637  0.43050270  0.68797651  1
  Se  Se233  1  0.58187775  0.74855294  0.19000757  1
  Se  Se234  1  0.58555998  0.75102054  0.70079790  1
  Se  Se235  1  0.91996829  0.10024535  0.18937337  1
  Se  Se236  1  0.91754560  0.08347828  0.69487369  1
  Se  Se237  1  0.90807987  0.42247296  0.18313592  1
  Se  Se238  1  0.89993681  0.42252827  0.69729498  1
  Se  Se239  1  0.92314726  0.75086801  0.20058765  1
  Se  Se240  1  0.91840887  0.74432079  0.69292479  1
  Se  Se241  1  0.09000192  0.25172170  0.18655361  1
  Se  Se242  1  0.08606739  0.24625217  0.69530908  1
  Se  Se243  1  0.08031761  0.58959216  0.18726022  1
  Se  Se244  1  0.08276149  0.57791427  0.70213009  1
  Se  Se245  1  0.09340281  0.92063682  0.18850530  1
  Se  Se246  1  0.07934729  0.91503408  0.69258059  1
  Se  Se247  1  0.41154740  0.24483007  0.19736711  1
  Se  Se248  1  0.41311826  0.25324868  0.69897758  1
  Se  Se249  1  0.42574511  0.56951491  0.19892326  1
  Se  Se250  1  0.41464128  0.58646308  0.70245255  1
  Se  Se251  1  0.42305727  0.91187083  0.18494559  1
  Se  Se252  1  0.42257569  0.91346655  0.69481538  1
  Se  Se253  1  0.75149744  0.25630605  0.19032727  1
  Se  Se254  1  0.75411876  0.24649883  0.69478427  1
  Se  Se255  1  0.75201437  0.57679860  0.18693077  1
  Se  Se256  1  0.74383682  0.58312735  0.68764277  1
  Se  Se257  1  0.75391613  0.92008262  0.20246996  1
  Se  Se258  1  0.75816774  0.91454481  0.68334175  1
