# generated using pymatgen
data_In86Cu29Se144
_symmetry_space_group_name_H-M   'P 1'
_cell_length_a   17.60192458
_cell_length_b   17.59468916
_cell_length_c   23.45320754
_cell_angle_alpha   90.02667373
_cell_angle_beta   89.99662479
_cell_angle_gamma   90.01253554
_symmetry_Int_Tables_number   1
_chemical_formula_structural   In86Cu29Se144
_chemical_formula_sum   'In86 Cu29 Se144'
_cell_volume   7263.46658420
_cell_formula_units_Z   1
loop_
 _symmetry_equiv_pos_site_id
 _symmetry_equiv_pos_as_xyz
  1  'x, y, z'
loop_
 _atom_site_type_symbol
 _atom_site_label
 _atom_site_symmetry_multiplicity
 _atom_site_fract_x
 _atom_site_fract_y
 _atom_site_fract_z
 _atom_site_occupancy
  In  In0  1  -0.00876804  0.15375115  0.13179936  1
  In  In1  1  -0.02393580  0.13895274  0.60121461  1
  In  In2  1  0.00602140  0.51871940  0.12213467  1
  In  In3  1  0.00616647  0.53845329  0.62154239  1
  In  In4  1  -0.02326549  0.84998997  0.15062521  1
  In  In5  1  0.00645344  0.83378004  0.61814975  1
  In  In6  1  0.32574305  0.15321956  0.13082340  1
  In  In7  1  0.31388465  0.14470882  0.60940672  1
  In  In8  1  0.33967372  0.50686241  0.12275843  1
  In  In9  1  0.32084906  0.51381513  0.63422316  1
  In  In10  1  0.32469395  0.84300562  0.13990159  1
  In  In11  1  0.33118433  0.83188482  0.62176979  1
  In  In12  1  0.67970026  0.16701941  0.13850978  1
  In  In13  1  0.66845815  0.16323936  0.62281861  1
  In  In14  1  0.65903178  0.49836102  0.12080032  1
  In  In15  1  0.67162956  0.48860597  0.63076299  1
  In  In16  1  0.67974087  0.83429783  0.12633100  1
  In  In17  1  0.67756369  0.84832105  0.61693020  1
  In  In18  1  0.17310610  -0.01071978  0.37834067  1
  In  In19  1  0.15353553  -0.02150991  0.84638498  1
  In  In20  1  0.15696907  0.33023861  0.37764934  1
  In  In21  1  0.16413823  0.32894707  0.87248389  1
  In  In22  1  0.17009404  0.68453305  0.36787413  1
  In  In23  1  0.16580326  0.67235388  0.85013122  1
  In  In24  1  0.50018813  0.00154624  0.37442705  1
  In  In25  1  0.50104560  -0.00066452  0.86704792  1
  In  In26  1  0.50229404  0.31982816  0.37442978  1
  In  In27  1  0.51750677  0.33210721  0.87294480  1
  In  In28  1  0.49491303  0.67739370  0.37767530  1
  In  In29  1  0.49001978  0.66630331  0.87858611  1
  In  In30  1  0.83285069  0.00363449  0.38367136  1
  In  In31  1  0.83037097  -0.00539668  0.87186549  1
  In  In32  1  0.82905332  0.32681133  0.37526033  1
  In  In33  1  0.83335992  0.34748330  0.87122354  1
  In  In34  1  0.84640418  0.67056185  0.39191737  1
  In  In35  1  0.83547575  0.66328265  0.87403827  1
  In  In36  1  0.02725472  0.12796007  0.40947697  1
  In  In37  1  0.00293291  0.15916594  0.87048249  1
  In  In38  1  -0.01302295  0.50393186  0.37654130  1
  In  In39  1  -0.01126019  0.50361818  0.87216289  1
  In  In40  1  0.00166429  0.84174383  0.38432492  1
  In  In41  1  -0.00572882  0.83024954  0.86715054  1
  In  In42  1  0.34932766  0.15812094  0.38491909  1
  In  In43  1  0.33302221  0.15824100  0.86850088  1
  In  In44  1  0.32374914  0.50942573  0.37245729  1
  In  In45  1  0.33508153  0.51760411  0.87718382  1
  In  In46  1  0.33283044  0.83718128  0.37346948  1
  In  In47  1  0.33231248  0.82965667  0.85966609  1
  In  In48  1  0.66651051  0.16519826  0.37497205  1
  In  In49  1  0.66148349  0.16035889  0.86281298  1
  In  In50  1  0.68518103  0.49925081  0.37217494  1
  In  In51  1  0.67612434  0.49232663  0.87742477  1
  In  In52  1  0.64982098  0.84206848  0.38538796  1
  In  In53  1  0.67880322  0.85095661  0.87193194  1
  In  In54  1  0.15547433  -0.00855474  0.14268613  1
  In  In55  1  0.15937230  -0.00659584  0.62240835  1
  In  In56  1  0.16331189  0.32637760  0.13029933  1
  In  In57  1  0.16750031  0.32562810  0.62192095  1
  In  In58  1  0.14699856  0.70034581  0.14712557  1
  In  In59  1  0.14442409  0.70177000  0.65906896  1
  In  In60  1  0.50405217  0.00042938  0.12963515  1
  In  In61  1  0.49895993  -0.00051595  0.62084991  1
  In  In62  1  0.50564925  0.34425479  0.12420736  1
  In  In63  1  0.51341387  0.32992001  0.62796109  1
  In  In64  1  0.49735465  0.66007365  0.12482012  1
  In  In65  1  0.48384068  0.67247173  0.62661062  1
  In  In66  1  0.83428886  -0.00715264  0.13476650  1
  In  In67  1  0.84073220  -0.01486562  0.61885619  1
  In  In68  1  0.82281476  0.33192707  0.12718642  1
  In  In69  1  0.82828059  0.33052349  0.62144959  1
  In  In70  1  0.84124141  0.67666633  0.11623631  1
  In  In71  1  0.86162221  0.68881941  0.59698114  1
  In  In72  1  0.16683481  0.51130798  -0.00305139  1
  In  In73  1  0.33546977  0.33192807  0.24667737  1
  In  In74  1  0.66913163  0.66131426  0.74218446  1
  In  In75  1  0.50082505  0.49475972  0.50932707  1
  In  In76  1  0.16170834  0.50281895  0.49769267  1
  In  In77  1  0.50392874  0.16613820  -0.00809324  1
  In  In78  1  -0.00380882  0.33471928  0.74488035  1
  In  In79  1  -0.01377234  0.33045524  0.25715170  1
  In  In80  1  0.16365748  0.83443866  -0.00588746  1
  In  In81  1  0.17261271  0.15921163  0.01073950  1
  In  In82  1  0.83112896  0.16367724  -0.00180966  1
  In  In83  1  0.33714308  0.32901106  0.74054442  1
  In  In84  1  0.50622710  0.82807184  0.00181395  1
  In  In85  1  0.66791744  0.67010243  0.25130582  1
  Cu  Cu86  1  0.50300209  0.49895771  0.24758399  1
  Cu  Cu87  1  0.33384018  -0.00894435  0.49915267  1
  Cu  Cu88  1  0.32860261  0.66908998  0.00132632  1
  Cu  Cu89  1  0.83627117  0.50676675  0.25186270  1
  Cu  Cu90  1  0.67267982  0.66258324  -0.00294850  1
  Cu  Cu91  1  0.16252067  0.51345478  0.25046670  1
  Cu  Cu92  1  0.66297146  0.00660302  0.50071809  1
  Cu  Cu93  1  0.32807022  0.67311100  0.50148775  1
  Cu  Cu94  1  0.33143283  -0.00502039  -0.00505012  1
  Cu  Cu95  1  0.50194983  0.49495142  0.75130135  1
  Cu  Cu96  1  0.84329074  0.15769169  0.26186875  1
  Cu  Cu97  1  -0.00124184  0.33500769  -0.00229263  1
  Cu  Cu98  1  0.34268402  0.34280381  0.00101350  1
  Cu  Cu99  1  0.16581371  0.15908020  0.26424830  1
  Cu  Cu100  1  0.83772827  0.50814388  0.74704162  1
  Cu  Cu101  1  0.66476680  0.33045569  0.49970621  1
  Cu  Cu102  1  0.33901844  0.33043905  0.50436331  1
  Cu  Cu103  1  0.83854415  0.83492224  0.73958271  1
  Cu  Cu104  1  0.83301973  0.16071799  0.73807583  1
  Cu  Cu105  1  -0.00332943  0.33543813  0.49894269  1
  Cu  Cu106  1  0.49594197  0.84069115  0.25489391  1
  Cu  Cu107  1  0.50642833  0.16362681  0.25475160  1
  Cu  Cu108  1  -0.00540595  0.67378825  -0.00499114  1
  Cu  Cu109  1  0.82644811  0.83422641  0.26072294  1
  Cu  Cu110  1  0.66796224  0.33577189  0.00063603  1
  Cu  Cu111  1  0.50221199  0.83767688  0.74594149  1
  Cu  Cu112  1  0.49805468  0.15984119  0.74432402  1
  Cu  Cu113  1  0.15758239  0.15996806  0.73699105  1
  Cu  Cu114  1  0.66309293  0.66195485  0.49790554  1
  Se  Se115  1  0.07666726  0.06926336  0.06316858  1
  Se  Se116  1  0.09278963  0.08570118  0.55015414  1
  Se  Se117  1  0.08184749  0.41123016  0.05825504  1
  Se  Se118  1  0.07419336  0.41544753  0.56216133  1
  Se  Se119  1  0.07305700  0.75132497  0.05733895  1
  Se  Se120  1  0.08424477  0.73014554  0.56245715  1
  Se  Se121  1  0.41019844  0.07772336  0.05378280  1
  Se  Se122  1  0.41812390  0.08061496  0.54787949  1
  Se  Se123  1  0.42362509  0.42489858  0.05481471  1
  Se  Se124  1  0.40501157  0.41230047  0.57097807  1
  Se  Se125  1  0.40424503  0.75224343  0.06273539  1
  Se  Se126  1  0.41822957  0.75343606  0.54941108  1
  Se  Se127  1  0.74540289  0.07806975  0.06286239  1
  Se  Se128  1  0.75331290  0.07782235  0.55773878  1
  Se  Se129  1  0.75082049  0.41757012  0.05563906  1
  Se  Se130  1  0.74598881  0.41639575  0.55241645  1
  Se  Se131  1  0.74873112  0.75176769  0.05066206  1
  Se  Se132  1  0.74294920  0.74935932  0.55014426  1
  Se  Se133  1  0.26645505  0.26130762  0.06140552  1
  Se  Se134  1  0.24666567  0.24918032  0.54916479  1
  Se  Se135  1  0.24537899  0.59799753  0.06571857  1
  Se  Se136  1  0.24709945  0.59249797  0.55903526  1
  Se  Se137  1  0.25038021  0.92450843  0.06022969  1
  Se  Se138  1  0.24684548  0.91272391  0.55345449  1
  Se  Se139  1  0.59203496  0.25045371  0.05990418  1
  Se  Se140  1  0.58305868  0.24729728  0.55366697  1
  Se  Se141  1  0.58401354  0.58920472  0.05296867  1
  Se  Se142  1  0.58859019  0.58856839  0.56635430  1
  Se  Se143  1  0.59232097  0.92353779  0.05830835  1
  Se  Se144  1  0.58095739  0.91694646  0.55058196  1
  Se  Se145  1  0.92448437  0.25393052  0.06143495  1
  Se  Se146  1  0.91094702  0.25254555  0.54994899  1
  Se  Se147  1  0.91799666  0.58459553  0.04900875  1
  Se  Se148  1  0.91156021  0.57098594  0.54276765  1
  Se  Se149  1  0.92100014  0.91791838  0.06476186  1
  Se  Se150  1  0.90977566  0.89600330  0.54543771  1
  Se  Se151  1  0.08737656  0.25227652  0.45372210  1
  Se  Se152  1  0.08059140  0.24957276  0.94601498  1
  Se  Se153  1  0.07995599  0.59308017  0.43498743  1
  Se  Se154  1  0.08016333  0.60003930  0.93373890  1
  Se  Se155  1  0.07478981  0.93490171  0.45103854  1
  Se  Se156  1  0.07811512  0.92763388  0.93530202  1
  Se  Se157  1  0.42472195  0.25070920  0.45165091  1
  Se  Se158  1  0.40887235  0.25844316  0.93573767  1
  Se  Se159  1  0.40897734  0.58409331  0.44780118  1
  Se  Se160  1  0.41680759  0.58555436  0.95394195  1
  Se  Se161  1  0.42049329  0.91445456  0.44312687  1
  Se  Se162  1  0.41312309  0.91441012  0.93856131  1
  Se  Se163  1  0.74727536  0.24761118  0.44629094  1
  Se  Se164  1  0.74308836  0.25535054  0.93636960  1
  Se  Se165  1  0.75117645  0.58221018  0.44770329  1
  Se  Se166  1  0.75590120  0.57961807  0.94402478  1
  Se  Se167  1  0.74348050  0.91907125  0.44861158  1
  Se  Se168  1  0.75472699  0.91986852  0.94865770  1
  Se  Se169  1  0.25511362  0.07962230  0.44575315  1
  Se  Se170  1  0.24865652  0.07498005  0.93737612  1
  Se  Se171  1  0.25988988  0.40884831  0.44222085  1
  Se  Se172  1  0.25404573  0.41113862  0.94080073  1
  Se  Se173  1  0.24917060  0.75586639  0.44462203  1
  Se  Se174  1  0.25439875  0.74254951  0.93459173  1
  Se  Se175  1  0.57972371  0.08691720  0.44451789  1
  Se  Se176  1  0.59508003  0.07093709  0.94068812  1
  Se  Se177  1  0.58842378  0.41526864  0.43920878  1
  Se  Se178  1  0.58416665  0.41845442  0.94687303  1
  Se  Se179  1  0.57546531  0.74779253  0.45212787  1
  Se  Se180  1  0.59614974  0.74481607  0.93548123  1
  Se  Se181  1  0.90098698  0.09342665  0.45649962  1
  Se  Se182  1  0.92643596  0.07614499  0.94312831  1
  Se  Se183  1  0.91334533  0.41257482  0.44205953  1
  Se  Se184  1  0.91700425  0.41875990  0.94559608  1
  Se  Se185  1  0.91013828  0.77084127  0.45836201  1
  Se  Se186  1  0.91210302  0.75538129  0.94032620  1
  Se  Se187  1  0.24981566  0.24594550  0.31298939  1
  Se  Se188  1  0.23749442  0.23836563  0.79971093  1
  Se  Se189  1  0.25032430  0.59199445  0.30211531  1
  Se  Se190  1  0.25236655  0.57617240  0.80041593  1
  Se  Se191  1  0.25276285  0.91700895  0.30260803  1
  Se  Se192  1  0.27123513  0.93013387  0.79543039  1
  Se  Se193  1  0.58862929  0.25235342  0.30194296  1
  Se  Se194  1  0.57990816  0.24624170  0.79675994  1
  Se  Se195  1  0.57773771  0.57777929  0.31311845  1
  Se  Se196  1  0.58091950  0.57883744  0.81105183  1
  Se  Se197  1  0.58553748  0.91995696  0.30454183  1
  Se  Se198  1  0.58662568  0.91681309  0.80115210  1
  Se  Se199  1  0.92554043  0.23064530  0.32429885  1
  Se  Se200  1  0.90555091  0.24217805  0.80682679  1
  Se  Se201  1  0.91085424  0.59237502  0.30873385  1
  Se  Se202  1  0.92084311  0.59196275  0.79968358  1
  Se  Se203  1  0.91027078  0.91652889  0.31401137  1
  Se  Se204  1  0.91475288  0.91849643  0.80022681  1
  Se  Se205  1  0.08135446  0.07593007  0.31434743  1
  Se  Se206  1  0.07319510  0.08088248  0.79385445  1
  Se  Se207  1  0.08683097  0.42537167  0.30706503  1
  Se  Se208  1  0.08671309  0.42198171  0.80861033  1
  Se  Se209  1  0.06705420  0.75244840  0.31006144  1
  Se  Se210  1  0.09702474  0.77846100  0.79683363  1
  Se  Se211  1  0.41636394  0.08433035  0.30373758  1
  Se  Se212  1  0.41495172  0.07973176  0.79961675  1
  Se  Se213  1  0.42209841  0.42288098  0.31126209  1
  Se  Se214  1  0.41867568  0.41658473  0.81130558  1
  Se  Se215  1  0.41639045  0.75052270  0.30386012  1
  Se  Se216  1  0.42657948  0.74731826  0.80043646  1
  Se  Se217  1  0.74957488  0.07934528  0.30870241  1
  Se  Se218  1  0.75442075  0.08216830  0.80130758  1
  Se  Se219  1  0.75783106  0.41462604  0.30035090  1
  Se  Se220  1  0.75295637  0.42279042  0.79738864  1
  Se  Se221  1  0.74858695  0.75310469  0.32191916  1
  Se  Se222  1  0.75611304  0.75615319  0.80163570  1
  Se  Se223  1  0.24456402  0.07934531  0.20279486  1
  Se  Se224  1  0.24737775  0.07572434  0.69205526  1
  Se  Se225  1  0.23960093  0.42707448  0.19260988  1
  Se  Se226  1  0.23466483  0.41962488  0.69561442  1
  Se  Se227  1  0.26932789  0.73456069  0.19952885  1
  Se  Se228  1  0.28029246  0.72841444  0.69165663  1
  Se  Se229  1  0.58798527  0.08228929  0.19735935  1
  Se  Se230  1  0.58427914  0.07945261  0.69150955  1
  Se  Se231  1  0.58896573  0.41626021  0.19796000  1
  Se  Se232  1  0.58712096  0.41143284  0.70172615  1
  Se  Se233  1  0.57439523  0.75947454  0.19153627  1
  Se  Se234  1  0.58296130  0.75795168  0.68548566  1
  Se  Se235  1  0.92076075  0.07223341  0.20528045  1
  Se  Se236  1  0.91754305  0.07490739  0.68985318  1
  Se  Se237  1  0.91498684  0.42691489  0.18791666  1
  Se  Se238  1  0.91531555  0.42856105  0.68296999  1
  Se  Se239  1  0.90171248  0.74489312  0.20395047  1
  Se  Se240  1  0.91881271  0.74872521  0.68763361  1
  Se  Se241  1  0.08707090  0.23793145  0.20042844  1
  Se  Se242  1  0.07355514  0.23892902  0.68127858  1
  Se  Se243  1  0.07315650  0.59397748  0.20147976  1
  Se  Se244  1  0.08754477  0.57962829  0.70529770  1
  Se  Se245  1  0.10068181  0.88301519  0.20394843  1
  Se  Se246  1  0.08537860  0.90822607  0.69405035  1
  Se  Se247  1  0.42777499  0.23987467  0.18768258  1
  Se  Se248  1  0.41709903  0.23331256  0.68020370  1
  Se  Se249  1  0.41769575  0.58273933  0.19822625  1
  Se  Se250  1  0.42112005  0.57921230  0.69865998  1
  Se  Se251  1  0.41657137  0.92672394  0.19914684  1
  Se  Se252  1  0.41743127  0.91548677  0.68985105  1
  Se  Se253  1  0.76549845  0.24662572  0.20624987  1
  Se  Se254  1  0.74890625  0.24970379  0.69304915  1
  Se  Se255  1  0.75470845  0.58136576  0.18807750  1
  Se  Se256  1  0.76607195  0.58644773  0.67955309  1
  Se  Se257  1  0.74472080  0.91659170  0.20408268  1
  Se  Se258  1  0.75052933  0.92115346  0.69544591  1
