# generated using pymatgen
data_In86Cu29Se144
_symmetry_space_group_name_H-M   'P 1'
_cell_length_a   17.62032446
_cell_length_b   17.62106324
_cell_length_c   23.47616662
_cell_angle_alpha   89.95172762
_cell_angle_beta   89.96577982
_cell_angle_gamma   90.00185142
_symmetry_Int_Tables_number   1
_chemical_formula_structural   In86Cu29Se144
_chemical_formula_sum   'In86 Cu29 Se144'
_cell_volume   7289.08412035
_cell_formula_units_Z   1
loop_
 _symmetry_equiv_pos_site_id
 _symmetry_equiv_pos_as_xyz
  1  'x, y, z'
loop_
 _atom_site_type_symbol
 _atom_site_label
 _atom_site_symmetry_multiplicity
 _atom_site_fract_x
 _atom_site_fract_y
 _atom_site_fract_z
 _atom_site_occupancy
  In  In0  1  -0.00629465  0.17603754  0.11992399  1
  In  In1  1  0.04034572  0.16106325  0.63387180  1
  In  In2  1  0.02020943  0.50514133  0.11981941  1
  In  In3  1  0.00542723  0.49349218  0.63345012  1
  In  In4  1  -0.00322498  0.83025951  0.11990329  1
  In  In5  1  0.00379621  0.82473093  0.62542440  1
  In  In6  1  0.34734307  0.16387825  0.12641908  1
  In  In7  1  0.32602068  0.15477369  0.61746062  1
  In  In8  1  0.32351454  0.49499233  0.11610340  1
  In  In9  1  0.33763627  0.51590876  0.62540340  1
  In  In10  1  0.33869486  0.85100995  0.10360298  1
  In  In11  1  0.32721681  0.84140566  0.61916469  1
  In  In12  1  0.65374531  0.15315915  0.11526824  1
  In  In13  1  0.65134591  0.17908898  0.62958906  1
  In  In14  1  0.66024510  0.51545034  0.11694158  1
  In  In15  1  0.66145130  0.49995872  0.63361208  1
  In  In16  1  0.66238258  0.83814113  0.11758483  1
  In  In17  1  0.61778895  0.87130596  0.68065753  1
  In  In18  1  0.19246240  -0.02021192  0.41057825  1
  In  In19  1  0.16927514  -0.01678873  0.87293570  1
  In  In20  1  0.17680928  0.32437293  0.38670661  1
  In  In21  1  0.17443821  0.34012508  0.87121552  1
  In  In22  1  0.16341167  0.67611340  0.38205712  1
  In  In23  1  0.16836209  0.66772534  0.86819939  1
  In  In24  1  0.51005213  -0.00932478  0.38755139  1
  In  In25  1  0.50001694  -0.00846601  0.86615539  1
  In  In26  1  0.48906475  0.34351923  0.37486410  1
  In  In27  1  0.50566347  0.31791512  0.88174663  1
  In  In28  1  0.50831465  0.67765380  0.38118228  1
  In  In29  1  0.49653180  0.66681506  0.86873340  1
  In  In30  1  0.82299056  0.00531139  0.36994875  1
  In  In31  1  0.82271119  0.00587793  0.87929557  1
  In  In32  1  0.84067551  0.32394977  0.37469336  1
  In  In33  1  0.82355668  0.31864510  0.86975920  1
  In  In34  1  0.83307307  0.65841968  0.37256939  1
  In  In35  1  0.84318745  0.67078397  0.87160984  1
  In  In36  1  0.00697233  0.16737341  0.37887651  1
  In  In37  1  -0.01264218  0.15413688  0.87145010  1
  In  In38  1  0.00136192  0.51405002  0.37522257  1
  In  In39  1  0.01086016  0.51105143  0.86911481  1
  In  In40  1  0.01683898  0.83358119  0.37044658  1
  In  In41  1  0.00965624  0.81949966  0.87966154  1
  In  In42  1  0.33029900  0.16772422  0.38200404  1
  In  In43  1  0.34438165  0.15953336  0.87422587  1
  In  In44  1  0.33743309  0.48594570  0.37530684  1
  In  In45  1  0.32142519  0.50685722  0.87829376  1
  In  In46  1  0.34372768  0.83198198  0.38525061  1
  In  In47  1  0.34091813  0.82970894  0.86496412  1
  In  In48  1  0.67366541  0.15128616  0.37695814  1
  In  In49  1  0.66566085  0.16178102  0.86896179  1
  In  In50  1  0.66426173  0.51083020  0.37761126  1
  In  In51  1  0.65805998  0.48712977  0.87109196  1
  In  In52  1  0.64791480  0.84357150  0.38256712  1
  In  In53  1  0.66484098  0.83298497  0.87046887  1
  In  In54  1  0.18104487  -0.00637943  0.12046175  1
  In  In55  1  0.18453012  0.01436925  0.60137054  1
  In  In56  1  0.16207241  0.34453591  0.12429749  1
  In  In57  1  0.15720805  0.32640064  0.62346787  1
  In  In58  1  0.16927039  0.66780829  0.12130823  1
  In  In59  1  0.16755816  0.66693871  0.62277768  1
  In  In60  1  0.49907215  0.00719264  0.11828421  1
  In  In61  1  0.49326006  0.00855229  0.62234171  1
  In  In62  1  0.49118195  0.32576344  0.11800888  1
  In  In63  1  0.51491099  0.32429303  0.62661925  1
  In  In64  1  0.49938056  0.67327235  0.11194038  1
  In  In65  1  0.46434499  0.71837091  0.67915241  1
  In  In66  1  0.81640760  -0.01560671  0.11338902  1
  In  In67  1  0.83288685  -0.01167239  0.62928839  1
  In  In68  1  0.83869447  0.32769555  0.11850519  1
  In  In69  1  0.83028557  0.33608272  0.63160920  1
  In  In70  1  0.83198635  0.68231665  0.12041942  1
  In  In71  1  0.82633968  0.67339355  0.63894137  1
  In  In72  1  0.83488718  0.50129625  0.51345128  1
  In  In73  1  0.66552898  0.33602042  0.25219347  1
  In  In74  1  0.83631491  0.82742466  0.51015234  1
  In  In75  1  0.16533679  0.16368521  -0.00320019  1
  In  In76  1  0.66984080  0.67435568  0.24251142  1
  In  In77  1  0.00499698  0.33434257  0.25625220  1
  In  In78  1  0.00465454  -0.00442853  0.74825810  1
  In  In79  1  0.83725516  0.16893729  0.50172030  1
  In  In80  1  0.33964227  -0.00166686  0.25261192  1
  In  In81  1  0.00308421  0.00663477  0.25414496  1
  In  In82  1  0.33229938  0.33235585  0.75265897  1
  In  In83  1  0.33435547  0.67354106  0.25212017  1
  In  In84  1  0.50128790  0.50186496  0.50266911  1
  In  In85  1  0.82911904  0.49711791  -0.00535444  1
  Cu  Cu86  1  -0.00571576  -0.00425025  -0.00405796  1
  Cu  Cu87  1  0.00596708  0.66776599  0.50112369  1
  Cu  Cu88  1  0.17069829  0.16735572  0.26205233  1
  Cu  Cu89  1  0.82362711  0.15414073  0.24071808  1
  Cu  Cu90  1  0.66185381  -0.00040925  -0.00763345  1
  Cu  Cu91  1  0.16868352  0.50438669  0.74928914  1
  Cu  Cu92  1  0.33412238  0.33081106  0.50153999  1
  Cu  Cu93  1  0.65652913  0.67153044  -0.00767883  1
  Cu  Cu94  1  0.83474761  0.16613061  0.74835492  1
  Cu  Cu95  1  0.17070245  0.83028417  0.25114773  1
  Cu  Cu96  1  0.00383651  0.66716471  -0.00384801  1
  Cu  Cu97  1  0.49330910  0.50268747  0.24432329  1
  Cu  Cu98  1  0.16945343  0.83131450  0.74730914  1
  Cu  Cu99  1  0.83663261  0.83378646  0.75565253  1
  Cu  Cu100  1  0.66390112  -0.00155675  0.51220378  1
  Cu  Cu101  1  0.33262321  0.33476075  -0.00341093  1
  Cu  Cu102  1  0.65872140  0.32548605  -0.00618725  1
  Cu  Cu103  1  -0.00022941  0.33533339  0.50647541  1
  Cu  Cu104  1  0.33623417  0.66974159  0.51071865  1
  Cu  Cu105  1  0.50075663  0.49615261  0.75370764  1
  Cu  Cu106  1  0.84500208  0.49962067  0.25024988  1
  Cu  Cu107  1  0.17307037  0.50197899  0.24601384  1
  Cu  Cu108  1  0.50108774  0.16424623  0.75264417  1
  Cu  Cu109  1  0.33123196  0.67033053  -0.00754566  1
  Cu  Cu110  1  0.83177849  0.83048844  0.24296643  1
  Cu  Cu111  1  0.50299945  0.16634353  0.24753292  1
  Cu  Cu112  1  0.83616498  0.49599608  0.75692047  1
  Cu  Cu113  1  -0.00387518  0.33235773  -0.00355846  1
  Cu  Cu114  1  0.65730410  0.67420518  0.51267396  1
  Se  Se115  1  0.07384206  0.07443318  0.06020669  1
  Se  Se116  1  0.07355901  0.08116211  0.54783604  1
  Se  Se117  1  0.08284963  0.41425857  0.04706584  1
  Se  Se118  1  0.08344677  0.42110059  0.55641320  1
  Se  Se119  1  0.08400722  0.74947761  0.05385904  1
  Se  Se120  1  0.08841520  0.75328294  0.55204170  1
  Se  Se121  1  0.39745780  0.06998272  0.05351975  1
  Se  Se122  1  0.42780692  0.09898600  0.55048759  1
  Se  Se123  1  0.41594135  0.41749924  0.05160883  1
  Se  Se124  1  0.41332487  0.40952369  0.56416406  1
  Se  Se125  1  0.41646933  0.75421144  0.04391518  1
  Se  Se126  1  0.41979753  0.73930372  0.57236553  1
  Se  Se127  1  0.74664608  0.08142516  0.04817347  1
  Se  Se128  1  0.74915684  0.08117590  0.56515182  1
  Se  Se129  1  0.73648101  0.40747745  0.05702249  1
  Se  Se130  1  0.73702312  0.40881078  0.55895081  1
  Se  Se131  1  0.74115732  0.74839143  0.05045566  1
  Se  Se132  1  0.73904755  0.75355317  0.57093047  1
  Se  Se133  1  0.25232909  0.25460570  0.06031496  1
  Se  Se134  1  0.24823782  0.25254335  0.55650027  1
  Se  Se135  1  0.25010240  0.58757702  0.05016978  1
  Se  Se136  1  0.24865462  0.58140465  0.55263255  1
  Se  Se137  1  0.23163706  0.90733127  0.04243952  1
  Se  Se138  1  0.25195788  0.91380488  0.54019816  1
  Se  Se139  1  0.57557101  0.24410886  0.05085281  1
  Se  Se140  1  0.58112048  0.24760886  0.54807552  1
  Se  Se141  1  0.57597529  0.58387164  0.04391316  1
  Se  Se142  1  0.57832342  0.59022270  0.56909658  1
  Se  Se143  1  0.57903351  0.92030944  0.05038889  1
  Se  Se144  1  0.59368593  0.91607385  0.57432251  1
  Se  Se145  1  0.91174567  0.24690907  0.04468340  1
  Se  Se146  1  0.92438201  0.25290806  0.56686333  1
  Se  Se147  1  0.92033340  0.58654257  0.05662641  1
  Se  Se148  1  0.92368863  0.59661115  0.56608894  1
  Se  Se149  1  0.91302776  0.91063841  0.05106919  1
  Se  Se150  1  0.92950559  0.92506973  0.55807431  1
  Se  Se151  1  0.07998689  0.25142839  0.45017899  1
  Se  Se152  1  0.07631806  0.25289757  0.93500916  1
  Se  Se153  1  0.08680479  0.58244171  0.44790530  1
  Se  Se154  1  0.08920345  0.58635229  0.94334555  1
  Se  Se155  1  0.07296351  0.91488997  0.44892148  1
  Se  Se156  1  0.08144973  0.91495162  0.94575339  1
  Se  Se157  1  0.41923478  0.25463244  0.44478536  1
  Se  Se158  1  0.41288312  0.24441835  0.94873711  1
  Se  Se159  1  0.40974358  0.59268541  0.44035944  1
  Se  Se160  1  0.41471331  0.58549858  0.94060681  1
  Se  Se161  1  0.40978525  0.92720807  0.45126960  1
  Se  Se162  1  0.42111126  0.90893948  0.93632240  1
  Se  Se163  1  0.74341347  0.25727056  0.44184104  1
  Se  Se164  1  0.74474506  0.24294729  0.94384218  1
  Se  Se165  1  0.74130509  0.59673578  0.45247887  1
  Se  Se166  1  0.74100862  0.58893526  0.93616980  1
  Se  Se167  1  0.74666161  0.92272849  0.44848438  1
  Se  Se168  1  0.74624281  0.91283641  0.94341872  1
  Se  Se169  1  0.24377264  0.10027700  0.45545632  1
  Se  Se170  1  0.25453593  0.07313464  0.94003114  1
  Se  Se171  1  0.25312217  0.41920191  0.45046120  1
  Se  Se172  1  0.24573484  0.41777805  0.94811059  1
  Se  Se173  1  0.25671823  0.74768921  0.44844321  1
  Se  Se174  1  0.25242236  0.75135989  0.93438084  1
  Se  Se175  1  0.59022412  0.08208405  0.45162505  1
  Se  Se176  1  0.58013211  0.07909146  0.93523432  1
  Se  Se177  1  0.59296657  0.41271776  0.44108960  1
  Se  Se178  1  0.57740062  0.41554635  0.94708373  1
  Se  Se179  1  0.57812558  0.75829355  0.45675332  1
  Se  Se180  1  0.57586288  0.75382421  0.93755757  1
  Se  Se181  1  0.91888110  0.07327357  0.43904688  1
  Se  Se182  1  0.91082704  0.08332436  0.94890508  1
  Se  Se183  1  0.92162599  0.41362617  0.44349660  1
  Se  Se184  1  0.92005677  0.41259054  0.93279809  1
  Se  Se185  1  0.92123336  0.74204288  0.43986135  1
  Se  Se186  1  0.91476748  0.74965305  0.94847188  1
  Se  Se187  1  0.25511991  0.25372795  0.30895895  1
  Se  Se188  1  0.24483244  0.23673135  0.80870610  1
  Se  Se189  1  0.24878068  0.57934787  0.31164460  1
  Se  Se190  1  0.25500603  0.58651737  0.79959665  1
  Se  Se191  1  0.24551423  0.91126668  0.31460875  1
  Se  Se192  1  0.25302660  0.91431986  0.79881571  1
  Se  Se193  1  0.58016062  0.24409352  0.31278643  1
  Se  Se194  1  0.58384844  0.25107890  0.80258583  1
  Se  Se195  1  0.57408133  0.58239502  0.30373013  1
  Se  Se196  1  0.58471304  0.58057963  0.80507734  1
  Se  Se197  1  0.58347393  0.92419239  0.30620843  1
  Se  Se198  1  0.58728579  0.91287758  0.79586958  1
  Se  Se199  1  0.90859778  0.23054381  0.30073788  1
  Se  Se200  1  0.91808587  0.24683059  0.80284772  1
  Se  Se201  1  0.92188005  0.58928474  0.30085935  1
  Se  Se202  1  0.92063316  0.58558399  0.80191136  1
  Se  Se203  1  0.90955282  0.90864103  0.30770159  1
  Se  Se204  1  0.91720303  0.91348452  0.81635500  1
  Se  Se205  1  0.09915595  0.07981249  0.31934048  1
  Se  Se206  1  0.09254426  0.08557642  0.80991528  1
  Se  Se207  1  0.09548143  0.42450262  0.31310240  1
  Se  Se208  1  0.08841133  0.41940439  0.80348866  1
  Se  Se209  1  0.08744797  0.74398934  0.30072836  1
  Se  Se210  1  0.08260644  0.74966078  0.79926859  1
  Se  Se211  1  0.42556878  0.08945660  0.31319919  1
  Se  Se212  1  0.41557191  0.07862060  0.79947353  1
  Se  Se213  1  0.41448587  0.41605778  0.29664058  1
  Se  Se214  1  0.42111826  0.41723708  0.81660410  1
  Se  Se215  1  0.43012906  0.76186230  0.30755635  1
  Se  Se216  1  0.42189109  0.74799120  0.79336199  1
  Se  Se217  1  0.74021568  0.07549870  0.29568648  1
  Se  Se218  1  0.75184683  0.08092018  0.80018229  1
  Se  Se219  1  0.76173455  0.42697483  0.31170306  1
  Se  Se220  1  0.74854542  0.41122412  0.80446500  1
  Se  Se221  1  0.75169855  0.75925900  0.31300287  1
  Se  Se222  1  0.75290523  0.74816497  0.80572258  1
  Se  Se223  1  0.24443786  0.08980946  0.19487073  1
  Se  Se224  1  0.24202255  0.08058059  0.68832372  1
  Se  Se225  1  0.25194009  0.41512503  0.19400503  1
  Se  Se226  1  0.24772084  0.42285900  0.68869164  1
  Se  Se227  1  0.25407722  0.76372918  0.18551754  1
  Se  Se228  1  0.25085982  0.75121492  0.68978078  1
  Se  Se229  1  0.58064048  0.08006707  0.19392021  1
  Se  Se230  1  0.58231983  0.08331721  0.69562214  1
  Se  Se231  1  0.58008944  0.42539898  0.18722800  1
  Se  Se232  1  0.58213190  0.41104449  0.70072109  1
  Se  Se233  1  0.57138505  0.75811939  0.18922467  1
  Se  Se234  1  0.60899407  0.72687871  0.69497164  1
  Se  Se235  1  0.91091252  0.08048455  0.18288235  1
  Se  Se236  1  0.91837834  0.09049695  0.68684655  1
  Se  Se237  1  0.91889934  0.41958360  0.18729596  1
  Se  Se238  1  0.91679706  0.41457777  0.69925235  1
  Se  Se239  1  0.91911708  0.74900268  0.19416300  1
  Se  Se240  1  0.92037376  0.75415739  0.69992799  1
  Se  Se241  1  0.09100584  0.24039675  0.19481267  1
  Se  Se242  1  0.07694446  0.26518904  0.70378879  1
  Se  Se243  1  0.08957380  0.58630777  0.19489007  1
  Se  Se244  1  0.08484901  0.58720703  0.69510353  1
  Se  Se245  1  0.09128894  0.91452792  0.19241782  1
  Se  Se246  1  0.09614811  0.91496306  0.68431483  1
  Se  Se247  1  0.41904347  0.25123878  0.19762399  1
  Se  Se248  1  0.41934219  0.24264792  0.69113876  1
  Se  Se249  1  0.41728842  0.58497914  0.18477092  1
  Se  Se250  1  0.41585769  0.57993930  0.70409325  1
  Se  Se251  1  0.42096579  0.90954600  0.18786193  1
  Se  Se252  1  0.41910474  0.91389680  0.68825013  1
  Se  Se253  1  0.74925238  0.24568614  0.18633749  1
  Se  Se254  1  0.74798771  0.24864233  0.69638429  1
  Se  Se255  1  0.76180359  0.57563982  0.18886216  1
  Se  Se256  1  0.75290393  0.57522364  0.70027091  1
  Se  Se257  1  0.74485498  0.91182115  0.19313669  1
  Se  Se258  1  0.75500688  0.92156593  0.70698950  1
