# generated using pymatgen
data_In86Cu29Se144
_symmetry_space_group_name_H-M   'P 1'
_cell_length_a   17.58003455
_cell_length_b   17.57963845
_cell_length_c   23.43732523
_cell_angle_alpha   89.99069065
_cell_angle_beta   89.99951042
_cell_angle_gamma   89.97234800
_symmetry_Int_Tables_number   1
_chemical_formula_structural   In86Cu29Se144
_chemical_formula_sum   'In86 Cu29 Se144'
_cell_volume   7243.31968717
_cell_formula_units_Z   1
loop_
 _symmetry_equiv_pos_site_id
 _symmetry_equiv_pos_as_xyz
  1  'x, y, z'
loop_
 _atom_site_type_symbol
 _atom_site_label
 _atom_site_symmetry_multiplicity
 _atom_site_fract_x
 _atom_site_fract_y
 _atom_site_fract_z
 _atom_site_occupancy
  In  In0  1  -0.01148326  0.15830213  0.11978210  1
  In  In1  1  0.00160975  0.14983502  0.62492075  1
  In  In2  1  0.01608944  0.50455597  0.13879341  1
  In  In3  1  0.00883455  0.50513865  0.61845236  1
  In  In4  1  -0.00374824  0.83849866  0.13824798  1
  In  In5  1  0.00308323  0.83871959  0.61402637  1
  In  In6  1  0.34017602  0.15708429  0.13013843  1
  In  In7  1  0.32983323  0.16689672  0.62648932  1
  In  In8  1  0.31522487  0.50814394  0.14239253  1
  In  In9  1  0.32286041  0.49133069  0.62321400  1
  In  In10  1  0.33899261  0.83026534  0.13391134  1
  In  In11  1  0.34248667  0.84757089  0.60433953  1
  In  In12  1  0.65874908  0.15592218  0.11419139  1
  In  In13  1  0.66153465  0.16590682  0.63529517  1
  In  In14  1  0.66790993  0.50846824  0.12399288  1
  In  In15  1  0.66975386  0.49035390  0.62819241  1
  In  In16  1  0.67906859  0.84561182  0.11765479  1
  In  In17  1  0.67620232  0.84265315  0.61680298  1
  In  In18  1  0.16981716  -0.00234523  0.37142949  1
  In  In19  1  0.16647464  -0.00212515  0.86341720  1
  In  In20  1  0.17415024  0.32192497  0.38292455  1
  In  In21  1  0.18091881  0.33819163  0.87357904  1
  In  In22  1  0.16757812  0.66623613  0.36826235  1
  In  In23  1  0.15523062  0.66624268  0.87838418  1
  In  In24  1  0.48733172  -0.01963216  0.36627528  1
  In  In25  1  0.50130210  0.00177662  0.87533832  1
  In  In26  1  0.49151052  0.34406624  0.37696106  1
  In  In27  1  0.49539006  0.31998509  0.87204106  1
  In  In28  1  0.49467286  0.68641585  0.37815590  1
  In  In29  1  0.50560391  0.67196686  0.87892688  1
  In  In30  1  0.82436280  -0.01087642  0.36729893  1
  In  In31  1  0.83473198  0.00096720  0.87682854  1
  In  In32  1  0.84844997  0.34526769  0.37595631  1
  In  In33  1  0.81772630  0.33341785  0.86951625  1
  In  In34  1  0.84682928  0.65610970  0.38751140  1
  In  In35  1  0.84543638  0.67227588  0.87790321  1
  In  In36  1  0.01618501  0.16994001  0.37702711  1
  In  In37  1  0.00552955  0.14867606  0.87659063  1
  In  In38  1  -0.00252342  0.51154047  0.37690835  1
  In  In39  1  0.00439553  0.51170652  0.87728313  1
  In  In40  1  0.00575055  0.82625876  0.36577097  1
  In  In41  1  -0.01013372  0.83174367  0.87531190  1
  In  In42  1  0.31665753  0.14388183  0.36297622  1
  In  In43  1  0.34119385  0.17360231  0.87234867  1
  In  In44  1  0.31203839  0.48723470  0.35426244  1
  In  In45  1  0.33183016  0.48942620  0.87532796  1
  In  In46  1  0.33097239  0.84017196  0.37147468  1
  In  In47  1  0.33224717  0.84816588  0.87412836  1
  In  In48  1  0.67627345  0.15793756  0.37653534  1
  In  In49  1  0.66683573  0.16283817  0.87509854  1
  In  In50  1  0.68432654  0.51723353  0.37797677  1
  In  In51  1  0.68016355  0.48901330  0.86687931  1
  In  In52  1  0.65785549  0.83462894  0.38595941  1
  In  In53  1  0.65803541  0.84697984  0.88170160  1
  In  In54  1  0.17235709  -0.01343000  0.14497246  1
  In  In55  1  0.16627856  -0.00284652  0.61840194  1
  In  In56  1  0.16643473  0.35023270  0.12734380  1
  In  In57  1  0.18197668  0.34587019  0.62066242  1
  In  In58  1  0.18017977  0.66579136  0.15232236  1
  In  In59  1  0.16629411  0.66583053  0.61329017  1
  In  In60  1  0.50411037  0.00288125  0.12235333  1
  In  In61  1  0.49718440  0.00039889  0.62888315  1
  In  In62  1  0.49864820  0.31990980  0.12269311  1
  In  In63  1  0.49857635  0.32674564  0.63327317  1
  In  In64  1  0.48155386  0.67303497  0.12840196  1
  In  In65  1  0.48961901  0.67160992  0.61906864  1
  In  In66  1  0.83378258  -0.00527873  0.12672829  1
  In  In67  1  0.83567600  -0.00726676  0.63020016  1
  In  In68  1  0.84641621  0.32446484  0.12163176  1
  In  In69  1  0.82677502  0.33513577  0.62966567  1
  In  In70  1  0.82494486  0.67713411  0.12923037  1
  In  In71  1  0.83149204  0.67161145  0.61051646  1
  In  In72  1  0.00404894  0.33148459  0.75014758  1
  In  In73  1  0.66686677  0.67246802  0.25555869  1
  In  In74  1  0.50225468  0.51396648  0.49717335  1
  In  In75  1  0.83337743  0.50053339  -0.00325748  1
  In  In76  1  0.66159994  0.32612530  0.25311727  1
  In  In77  1  0.32918190  0.66356567  0.74282719  1
  In  In78  1  0.00182664  0.33087128  0.25025931  1
  In  In79  1  0.16580790  0.16480185  0.00300913  1
  In  In80  1  0.16483583  0.83201365  0.01620384  1
  In  In81  1  0.49453677  0.16499434  0.50485485  1
  In  In82  1  -0.00129532  0.66752659  0.74062231  1
  In  In83  1  0.83988110  0.16695839  0.50518318  1
  In  In84  1  0.49130147  0.50049444  -0.00243234  1
  In  In85  1  0.66901757  0.66859058  0.74479131  1
  Cu  Cu86  1  0.83151839  0.15592617  0.24592793  1
  Cu  Cu87  1  0.49626778  0.50142211  0.24990092  1
  Cu  Cu88  1  0.83115586  0.16121160  0.75165196  1
  Cu  Cu89  1  -0.00129783  -0.00912637  0.00329196  1
  Cu  Cu90  1  0.66011365  -0.00275363  0.50116335  1
  Cu  Cu91  1  0.67083227  0.00046566  -0.00175974  1
  Cu  Cu92  1  0.67608573  0.34308976  0.50339457  1
  Cu  Cu93  1  0.50591469  0.84125281  0.25015946  1
  Cu  Cu94  1  0.16795129  0.16240669  0.74709638  1
  Cu  Cu95  1  0.83308117  0.83438863  0.25348672  1
  Cu  Cu96  1  0.00082349  -0.00416133  0.49465781  1
  Cu  Cu97  1  0.00761905  0.34161408  0.49951682  1
  Cu  Cu98  1  0.33294944  0.33747438  0.00055798  1
  Cu  Cu99  1  0.00708326  0.67407079  0.49192887  1
  Cu  Cu100  1  0.50306145  0.48706991  0.75141166  1
  Cu  Cu101  1  0.32903876  0.66739954  0.49043613  1
  Cu  Cu102  1  0.32135219  0.67055530  0.01169929  1
  Cu  Cu103  1  0.49503084  0.83990342  0.74757937  1
  Cu  Cu104  1  0.33178031  0.33276783  0.49793644  1
  Cu  Cu105  1  0.49956127  0.16174643  0.24547998  1
  Cu  Cu106  1  0.00022853  0.66536764  0.00577834  1
  Cu  Cu107  1  0.16795534  0.16873299  0.25164226  1
  Cu  Cu108  1  0.49748473  0.16114598  0.75320847  1
  Cu  Cu109  1  0.00251049  0.33259839  0.00446375  1
  Cu  Cu110  1  0.16607111  0.84056337  0.73861639  1
  Cu  Cu111  1  0.82865406  0.84293559  0.75152938  1
  Cu  Cu112  1  0.34382359  0.00622711  -0.00075278  1
  Cu  Cu113  1  0.66672316  0.32681312  -0.00396125  1
  Cu  Cu114  1  0.66316816  0.67830876  0.00035391  1
  Se  Se115  1  0.08570435  0.06537894  0.06318945  1
  Se  Se116  1  0.08169936  0.08165087  0.54846165  1
  Se  Se117  1  0.07713201  0.42216717  0.05754153  1
  Se  Se118  1  0.09419841  0.42325754  0.55203349  1
  Se  Se119  1  0.07808365  0.73828627  0.07262184  1
  Se  Se120  1  0.08873188  0.75594314  0.54796766  1
  Se  Se121  1  0.42334461  0.09109044  0.05320952  1
  Se  Se122  1  0.40230173  0.07080275  0.55569736  1
  Se  Se123  1  0.40678501  0.41841187  0.06637881  1
  Se  Se124  1  0.42058403  0.40980801  0.55520923  1
  Se  Se125  1  0.41164097  0.75603636  0.05378306  1
  Se  Se126  1  0.41674838  0.74784060  0.54300533  1
  Se  Se127  1  0.75666880  0.07986406  0.05402889  1
  Se  Se128  1  0.74045216  0.08094970  0.55996314  1
  Se  Se129  1  0.74293093  0.40791214  0.05850299  1
  Se  Se130  1  0.76076921  0.42346958  0.55533450  1
  Se  Se131  1  0.75507043  0.75322541  0.05081390  1
  Se  Se132  1  0.75008517  0.75765358  0.54724290  1
  Se  Se133  1  0.25396837  0.25669722  0.06283762  1
  Se  Se134  1  0.25206806  0.24958304  0.55430341  1
  Se  Se135  1  0.24116945  0.58928554  0.06763341  1
  Se  Se136  1  0.25710216  0.58212189  0.55128780  1
  Se  Se137  1  0.26133330  0.92983729  0.06155079  1
  Se  Se138  1  0.22945774  0.90097871  0.54838697  1
  Se  Se139  1  0.58018707  0.24760207  0.04895515  1
  Se  Se140  1  0.59353510  0.25836375  0.55731797  1
  Se  Se141  1  0.58296255  0.59456373  0.05706667  1
  Se  Se142  1  0.59429345  0.59116759  0.56357374  1
  Se  Se143  1  0.58478550  0.91868621  0.05221801  1
  Se  Se144  1  0.57596657  0.91824518  0.55694890  1
  Se  Se145  1  0.91627003  0.24312795  0.04608199  1
  Se  Se146  1  0.92930645  0.26100023  0.56300399  1
  Se  Se147  1  0.91779843  0.58397960  0.06520932  1
  Se  Se148  1  0.92820267  0.59161700  0.55185213  1
  Se  Se149  1  0.91826196  0.90844676  0.05930145  1
  Se  Se150  1  0.91173095  0.92184693  0.55105196  1
  Se  Se151  1  0.08662746  0.24804221  0.45394378  1
  Se  Se152  1  0.08059895  0.25588038  0.93896320  1
  Se  Se153  1  0.09016025  0.58478959  0.44382685  1
  Se  Se154  1  0.08480237  0.58308735  0.95326242  1
  Se  Se155  1  0.08108195  0.91436979  0.43724158  1
  Se  Se156  1  0.08454470  0.91750387  0.94204765  1
  Se  Se157  1  0.40835834  0.25024183  0.43801977  1
  Se  Se158  1  0.41475358  0.25122961  0.94961029  1
  Se  Se159  1  0.40559936  0.58267225  0.42988962  1
  Se  Se160  1  0.40005157  0.59735837  0.94255262  1
  Se  Se161  1  0.41852895  0.90971835  0.44518580  1
  Se  Se162  1  0.41987265  0.91613495  0.94605383  1
  Se  Se163  1  0.75100564  0.25950218  0.44177732  1
  Se  Se164  1  0.75292847  0.24663532  0.94379492  1
  Se  Se165  1  0.75406960  0.58640081  0.45709917  1
  Se  Se166  1  0.73862349  0.59324113  0.93895266  1
  Se  Se167  1  0.74922607  0.92085557  0.44751074  1
  Se  Se168  1  0.75585187  0.91515963  0.94696790  1
  Se  Se169  1  0.24233398  0.08461298  0.44420024  1
  Se  Se170  1  0.25281017  0.07595010  0.93950672  1
  Se  Se171  1  0.25350450  0.42026285  0.44343120  1
  Se  Se172  1  0.24714612  0.42147471  0.95132930  1
  Se  Se173  1  0.24719491  0.75176135  0.43764247  1
  Se  Se174  1  0.24999702  0.75088055  0.94257955  1
  Se  Se175  1  0.58257713  0.07782460  0.44048331  1
  Se  Se176  1  0.58419402  0.08275547  0.94579841  1
  Se  Se177  1  0.59420034  0.41620533  0.44044450  1
  Se  Se178  1  0.58925303  0.41459551  0.93966556  1
  Se  Se179  1  0.58919175  0.73773346  0.45133956  1
  Se  Se180  1  0.57657846  0.75914311  0.94878172  1
  Se  Se181  1  0.91911740  0.07961614  0.43618539  1
  Se  Se182  1  0.92060758  0.07871794  0.94952249  1
  Se  Se183  1  0.92081440  0.42424256  0.45015334  1
  Se  Se184  1  0.92323915  0.40821781  0.93718301  1
  Se  Se185  1  0.92017020  0.75948701  0.44404130  1
  Se  Se186  1  0.92010553  0.75097066  0.95246382  1
  Se  Se187  1  0.25219713  0.25204732  0.30374470  1
  Se  Se188  1  0.24767089  0.24547347  0.80424538  1
  Se  Se189  1  0.25975417  0.59898126  0.29645379  1
  Se  Se190  1  0.24313888  0.58079071  0.81100511  1
  Se  Se191  1  0.24105176  0.90834722  0.29827697  1
  Se  Se192  1  0.25193696  0.91589939  0.79677313  1
  Se  Se193  1  0.57161642  0.23806215  0.31520465  1
  Se  Se194  1  0.58466350  0.24565875  0.80401470  1
  Se  Se195  1  0.57525164  0.57790416  0.31272307  1
  Se  Se196  1  0.57701280  0.57644927  0.80838374  1
  Se  Se197  1  0.59412023  0.91613040  0.30563298  1
  Se  Se198  1  0.58111365  0.91704927  0.80352479  1
  Se  Se199  1  0.90771786  0.23797626  0.30846217  1
  Se  Se200  1  0.91514290  0.24006152  0.81140053  1
  Se  Se201  1  0.90311824  0.57485954  0.30689968  1
  Se  Se202  1  0.90872035  0.57758498  0.80441651  1
  Se  Se203  1  0.92078996  0.91821940  0.30268711  1
  Se  Se204  1  0.91865917  0.91923447  0.80502591  1
  Se  Se205  1  0.08405628  0.08517995  0.30351415  1
  Se  Se206  1  0.08041504  0.07983324  0.79702787  1
  Se  Se207  1  0.08634985  0.41349640  0.31688630  1
  Se  Se208  1  0.09055222  0.42637535  0.80912514  1
  Se  Se209  1  0.05688038  0.71510425  0.30097689  1
  Se  Se210  1  0.08947061  0.75995322  0.80289082  1
  Se  Se211  1  0.41783371  0.07667293  0.29989803  1
  Se  Se212  1  0.41220084  0.07869110  0.80620501  1
  Se  Se213  1  0.41539288  0.41043007  0.29766963  1
  Se  Se214  1  0.41591774  0.41113114  0.80689991  1
  Se  Se215  1  0.41912283  0.75882924  0.30111573  1
  Se  Se216  1  0.41939648  0.75285547  0.80637423  1
  Se  Se217  1  0.74397902  0.07793591  0.29983544  1
  Se  Se218  1  0.74876177  0.07831026  0.80643306  1
  Se  Se219  1  0.75375309  0.41996873  0.30640375  1
  Se  Se220  1  0.75718038  0.41724953  0.79234942  1
  Se  Se221  1  0.75744369  0.75550508  0.31813973  1
  Se  Se222  1  0.75409113  0.75679608  0.81165604  1
  Se  Se223  1  0.25397777  0.08364660  0.20121824  1
  Se  Se224  1  0.24725196  0.07820326  0.69103232  1
  Se  Se225  1  0.24395667  0.41274055  0.20667049  1
  Se  Se226  1  0.25906202  0.41087304  0.70081929  1
  Se  Se227  1  0.23356584  0.78509300  0.20398992  1
  Se  Se228  1  0.24695258  0.75784774  0.68212076  1
  Se  Se229  1  0.58849243  0.08270283  0.19425168  1
  Se  Se230  1  0.58093532  0.07818774  0.69988335  1
  Se  Se231  1  0.57749216  0.42339853  0.18931600  1
  Se  Se232  1  0.58855194  0.40820580  0.69726143  1
  Se  Se233  1  0.58191989  0.75751026  0.18729682  1
  Se  Se234  1  0.57448578  0.75767738  0.68855992  1
  Se  Se235  1  0.92105116  0.07631763  0.19581966  1
  Se  Se236  1  0.91537624  0.08046264  0.69749207  1
  Se  Se237  1  0.90821618  0.42204204  0.19255626  1
  Se  Se238  1  0.91975699  0.42560276  0.68986618  1
  Se  Se239  1  0.91180206  0.74715565  0.20046751  1
  Se  Se240  1  0.90534341  0.76180514  0.68848933  1
  Se  Se241  1  0.08702024  0.24028013  0.18484378  1
  Se  Se242  1  0.09082368  0.24476974  0.68571143  1
  Se  Se243  1  0.07669380  0.59569966  0.21263395  1
  Se  Se244  1  0.09966436  0.57808953  0.69288353  1
  Se  Se245  1  0.08188015  0.91177998  0.20907754  1
  Se  Se246  1  0.07612531  0.92001677  0.68910239  1
  Se  Se247  1  0.41646859  0.24995399  0.19734269  1
  Se  Se248  1  0.41375609  0.24447993  0.69843818  1
  Se  Se249  1  0.41235559  0.58906836  0.20150955  1
  Se  Se250  1  0.42745537  0.57031366  0.69012135  1
  Se  Se251  1  0.42265746  0.92219126  0.19390784  1
  Se  Se252  1  0.40713169  0.91408492  0.69135255  1
  Se  Se253  1  0.75391615  0.24226793  0.18833862  1
  Se  Se254  1  0.75161063  0.24774328  0.69851344  1
  Se  Se255  1  0.75557219  0.57565713  0.19772477  1
  Se  Se256  1  0.76358852  0.58179049  0.68857435  1
  Se  Se257  1  0.74891039  0.91627918  0.19867512  1
  Se  Se258  1  0.74090773  0.92109568  0.69764032  1
