# generated using pymatgen
data_In86Cu29Se144
_symmetry_space_group_name_H-M   'P 1'
_cell_length_a   17.57372976
_cell_length_b   17.57745469
_cell_length_c   23.44227974
_cell_angle_alpha   90.00588192
_cell_angle_beta   89.95767561
_cell_angle_gamma   89.99838923
_symmetry_Int_Tables_number   1
_chemical_formula_structural   In86Cu29Se144
_chemical_formula_sum   'In86 Cu29 Se144'
_cell_volume   7241.35191998
_cell_formula_units_Z   1
loop_
 _symmetry_equiv_pos_site_id
 _symmetry_equiv_pos_as_xyz
  1  'x, y, z'
loop_
 _atom_site_type_symbol
 _atom_site_label
 _atom_site_symmetry_multiplicity
 _atom_site_fract_x
 _atom_site_fract_y
 _atom_site_fract_z
 _atom_site_occupancy
  In  In0  1  0.00125614  0.16217909  0.12751829  1
  In  In1  1  0.00515301  0.16116296  0.62560543  1
  In  In2  1  0.00213294  0.50345869  0.12154534  1
  In  In3  1  0.00975506  0.49738304  0.64196725  1
  In  In4  1  -0.00388979  0.83585420  0.12468619  1
  In  In5  1  0.00129293  0.83308134  0.62493644  1
  In  In6  1  0.33622096  0.17002809  0.11844491  1
  In  In7  1  0.31799236  0.15358417  0.61865860  1
  In  In8  1  0.30996404  0.50216412  0.11350109  1
  In  In9  1  0.32931702  0.50840459  0.63527324  1
  In  In10  1  0.32819797  0.83327206  0.11889195  1
  In  In11  1  0.33443034  0.83807959  0.62903542  1
  In  In12  1  0.65721815  0.17151458  0.12198680  1
  In  In13  1  0.66034204  0.16677274  0.60909877  1
  In  In14  1  0.69307587  0.50019309  0.11823606  1
  In  In15  1  0.66590671  0.50110637  0.62698025  1
  In  In16  1  0.67541264  0.82867770  0.13557584  1
  In  In17  1  0.68141106  0.84738657  0.61217871  1
  In  In18  1  0.14380784  0.01551849  0.39524552  1
  In  In19  1  0.16361608  -0.00177899  0.87325964  1
  In  In20  1  0.14912343  0.33415883  0.37179051  1
  In  In21  1  0.13456893  0.35393672  0.89887685  1
  In  In22  1  0.16275072  0.68244363  0.37604993  1
  In  In23  1  0.16766558  0.67426474  0.87356175  1
  In  In24  1  0.50654162  -0.00738446  0.38027823  1
  In  In25  1  0.49697010  0.01142131  0.87527574  1
  In  In26  1  0.50425126  0.32842800  0.37913898  1
  In  In27  1  0.49342093  0.31814963  0.87601637  1
  In  In28  1  0.51160918  0.66833444  0.36928811  1
  In  In29  1  0.49642375  0.67777167  0.87150418  1
  In  In30  1  0.83668540  -0.00000166  0.37374150  1
  In  In31  1  0.83497431  -0.01406713  0.88355726  1
  In  In32  1  0.83692607  0.31180149  0.37421547  1
  In  In33  1  0.86089789  0.32513891  0.88435917  1
  In  In34  1  0.84418573  0.67642108  0.36555274  1
  In  In35  1  0.84943500  0.65334100  0.89076101  1
  In  In36  1  -0.00220094  0.16374783  0.37328134  1
  In  In37  1  0.01282641  0.17857367  0.86736429  1
  In  In38  1  -0.00332166  0.49802083  0.36557662  1
  In  In39  1  0.00375348  0.50612896  0.87290022  1
  In  In40  1  -0.00096888  0.83231384  0.37666699  1
  In  In41  1  0.00154106  0.83300782  0.87777806  1
  In  In42  1  0.33566185  0.15658387  0.38404709  1
  In  In43  1  0.33014308  0.16137371  0.87444373  1
  In  In44  1  0.33311075  0.50426052  0.37427127  1
  In  In45  1  0.31030233  0.51265633  0.87839244  1
  In  In46  1  0.32081420  0.85012016  0.38561734  1
  In  In47  1  0.31226286  0.81650423  0.86047375  1
  In  In48  1  0.69492121  0.14723656  0.39116005  1
  In  In49  1  0.66090851  0.15029173  0.88581675  1
  In  In50  1  0.66165786  0.50624393  0.36701984  1
  In  In51  1  0.67539909  0.50501698  0.88393432  1
  In  In52  1  0.66960290  0.83337306  0.37172088  1
  In  In53  1  0.68060828  0.84416655  0.88198791  1
  In  In54  1  0.15884033  -0.01080300  0.11521177  1
  In  In55  1  0.16499049  0.00246522  0.62620140  1
  In  In56  1  0.14690521  0.31916615  0.10568634  1
  In  In57  1  0.16570699  0.31843625  0.62681589  1
  In  In58  1  0.15218507  0.64706127  0.10130206  1
  In  In59  1  0.14912173  0.68311000  0.64413966  1
  In  In60  1  0.50501915  0.01121782  0.12570601  1
  In  In61  1  0.49684056  -0.00623101  0.61815089  1
  In  In62  1  0.51855130  0.32103712  0.11772555  1
  In  In63  1  0.50361051  0.31871535  0.62395514  1
  In  In64  1  0.49949445  0.67911058  0.12942920  1
  In  In65  1  0.48824592  0.66767117  0.62818632  1
  In  In66  1  0.83941512  -0.00549936  0.13142412  1
  In  In67  1  0.85552835  0.01105619  0.60713374  1
  In  In68  1  0.83638173  0.34920942  0.11597971  1
  In  In69  1  0.84395893  0.33208120  0.62349557  1
  In  In70  1  0.83772416  0.66974417  0.12623785  1
  In  In71  1  0.84236586  0.67861174  0.62416263  1
  In  In72  1  0.67559298  0.33236474  0.24825688  1
  In  In73  1  0.49944066  0.49896830  0.49615318  1
  In  In74  1  0.83331164  0.17001758  0.00608083  1
  In  In75  1  0.49924461  0.49093227  -0.00019897  1
  In  In76  1  0.67270223  -0.00279661  0.75202800  1
  In  In77  1  0.49400986  0.83735554  -0.00043131  1
  In  In78  1  0.32609411  0.67348381  0.24788897  1
  In  In79  1  0.67110132  0.67469102  0.74840213  1
  In  In80  1  0.33258544  0.33253532  0.25021990  1
  In  In81  1  0.16911679  0.49922182  0.50730415  1
  In  In82  1  0.31790968  0.33381430  0.75621771  1
  In  In83  1  0.67234339  0.33489825  0.74518635  1
  In  In84  1  0.83062712  0.49728393  0.50507939  1
  In  In85  1  0.32722957  -0.00416025  0.24454799  1
  Cu  Cu86  1  -0.00360812  0.31980546  0.49943789  1
  Cu  Cu87  1  0.00403383  0.66844293  0.50124437  1
  Cu  Cu88  1  0.84703287  0.83033749  0.75304394  1
  Cu  Cu89  1  0.33342529  0.32404188  -0.00580603  1
  Cu  Cu90  1  0.15346643  0.83539700  0.24772083  1
  Cu  Cu91  1  0.84138410  0.16324269  0.24944038  1
  Cu  Cu92  1  0.49610652  0.16351147  0.74784918  1
  Cu  Cu93  1  0.15961822  0.16589177  0.24926281  1
  Cu  Cu94  1  0.51254715  0.16026129  0.25221578  1
  Cu  Cu95  1  0.50562350  0.83226553  0.25541544  1
  Cu  Cu96  1  -0.00452697  0.67364686  -0.00066065  1
  Cu  Cu97  1  0.83809056  0.50672185  0.24471230  1
  Cu  Cu98  1  0.16491751  0.84151879  0.74960239  1
  Cu  Cu99  1  0.83508655  0.83444005  0.25274020  1
  Cu  Cu100  1  -0.00027890  0.00275649  0.00036044  1
  Cu  Cu101  1  0.84242468  0.49995902  0.75902512  1
  Cu  Cu102  1  0.33243974  0.68320137  0.50675334  1
  Cu  Cu103  1  0.15336432  0.50049430  0.24186683  1
  Cu  Cu104  1  0.33040213  -0.00392001  -0.00438428  1
  Cu  Cu105  1  0.50317706  0.50752695  0.24245202  1
  Cu  Cu106  1  0.33638954  0.32839184  0.50268607  1
  Cu  Cu107  1  0.33584387  0.00035159  0.50695925  1
  Cu  Cu108  1  0.48854059  0.50498525  0.75672339  1
  Cu  Cu109  1  0.49537949  0.83527982  0.74619161  1
  Cu  Cu110  1  0.66814153  0.67440704  0.49232561  1
  Cu  Cu111  1  0.66555653  -0.00332182  0.49291833  1
  Cu  Cu112  1  0.84266071  0.16129541  0.74723049  1
  Cu  Cu113  1  0.67124402  0.66728910  0.00728878  1
  Cu  Cu114  1  0.16222200  0.16588661  0.75185748  1
  Se  Se115  1  0.08284477  0.08606726  0.05349647  1
  Se  Se116  1  0.08351437  0.08022228  0.55422669  1
  Se  Se117  1  0.10523891  0.44161787  0.05584388  1
  Se  Se118  1  0.07226412  0.40654052  0.55944551  1
  Se  Se119  1  0.07981758  0.75767859  0.05190370  1
  Se  Se120  1  0.08810342  0.74789875  0.55702593  1
  Se  Se121  1  0.41243184  0.07562983  0.05465649  1
  Se  Se122  1  0.42099098  0.08944588  0.55449880  1
  Se  Se123  1  0.40739795  0.40139119  0.06246006  1
  Se  Se124  1  0.40806506  0.41559335  0.56323545  1
  Se  Se125  1  0.40756326  0.73651564  0.05277727  1
  Se  Se126  1  0.42277356  0.75943789  0.55790807  1
  Se  Se127  1  0.74687536  0.07662506  0.06357232  1
  Se  Se128  1  0.74759804  0.07810133  0.54971078  1
  Se  Se129  1  0.72894565  0.39443427  0.04932099  1
  Se  Se130  1  0.73763868  0.40450677  0.56103934  1
  Se  Se131  1  0.75203588  0.75385274  0.05879942  1
  Se  Se132  1  0.75517497  0.74698103  0.55148788  1
  Se  Se133  1  0.24830370  0.24270705  0.04863529  1
  Se  Se134  1  0.24586081  0.24811060  0.55139618  1
  Se  Se135  1  0.26063525  0.59486902  0.03836867  1
  Se  Se136  1  0.25483485  0.59638479  0.56306372  1
  Se  Se137  1  0.24783949  0.91123632  0.04783001  1
  Se  Se138  1  0.25143611  0.91799172  0.55905600  1
  Se  Se139  1  0.57867578  0.23539004  0.04223028  1
  Se  Se140  1  0.57971516  0.25498550  0.54531759  1
  Se  Se141  1  0.58471498  0.58703301  0.06258501  1
  Se  Se142  1  0.59018743  0.59391801  0.55674727  1
  Se  Se143  1  0.58630364  0.91377581  0.06538433  1
  Se  Se144  1  0.58220462  0.91514865  0.54891077  1
  Se  Se145  1  0.93082029  0.26147446  0.05691260  1
  Se  Se146  1  0.91478983  0.24073838  0.55610150  1
  Se  Se147  1  0.91601178  0.58655621  0.05448246  1
  Se  Se148  1  0.93061307  0.58106793  0.56200272  1
  Se  Se149  1  0.91599128  0.92071468  0.05395870  1
  Se  Se150  1  0.90206532  0.89215715  0.55508609  1
  Se  Se151  1  0.08520895  0.24518762  0.44437505  1
  Se  Se152  1  0.07890380  0.24047696  0.95362664  1
  Se  Se153  1  0.07871584  0.58313888  0.44069385  1
  Se  Se154  1  0.07994143  0.59456753  0.94276474  1
  Se  Se155  1  0.09692863  0.89556567  0.44534035  1
  Se  Se156  1  0.08315615  0.91845083  0.94605295  1
  Se  Se157  1  0.41899091  0.24848102  0.44587438  1
  Se  Se158  1  0.41716136  0.23662044  0.94724149  1
  Se  Se159  1  0.40755509  0.59847121  0.44329991  1
  Se  Se160  1  0.41767937  0.58748135  0.93906238  1
  Se  Se161  1  0.41817359  0.91810934  0.45021747  1
  Se  Se162  1  0.40548023  0.91612825  0.93180596  1
  Se  Se163  1  0.74687508  0.25940492  0.44971548  1
  Se  Se164  1  0.74568357  0.25365644  0.93681016  1
  Se  Se165  1  0.74851669  0.58808649  0.43806998  1
  Se  Se166  1  0.75501358  0.58021354  0.95730474  1
  Se  Se167  1  0.75149664  0.91479459  0.44128392  1
  Se  Se168  1  0.74405969  0.92672052  0.95740501  1
  Se  Se169  1  0.24966095  0.08317566  0.45430289  1
  Se  Se170  1  0.24632057  0.08083789  0.94384585  1
  Se  Se171  1  0.25692146  0.40953623  0.44120600  1
  Se  Se172  1  0.25206564  0.41488273  0.94837520  1
  Se  Se173  1  0.24508337  0.75536931  0.44940633  1
  Se  Se174  1  0.24898154  0.75425371  0.94609525  1
  Se  Se175  1  0.58092552  0.08646792  0.44576977  1
  Se  Se176  1  0.58286708  0.06704053  0.95333176  1
  Se  Se177  1  0.59878128  0.41310240  0.44207685  1
  Se  Se178  1  0.58873156  0.40350201  0.93844334  1
  Se  Se179  1  0.58034819  0.75414000  0.44180338  1
  Se  Se180  1  0.59312672  0.74391362  0.94378896  1
  Se  Se181  1  0.90835633  0.09128032  0.44234980  1
  Se  Se182  1  0.92210269  0.08508243  0.93976643  1
  Se  Se183  1  0.92287524  0.41073596  0.44190771  1
  Se  Se184  1  0.91384039  0.43316428  0.94449839  1
  Se  Se185  1  0.91686444  0.74517275  0.44654251  1
  Se  Se186  1  0.91063573  0.76127969  0.95013243  1
  Se  Se187  1  0.24615250  0.23923317  0.31097177  1
  Se  Se188  1  0.23023392  0.24877449  0.81913287  1
  Se  Se189  1  0.23635933  0.57527520  0.30578207  1
  Se  Se190  1  0.24385613  0.58809872  0.80073295  1
  Se  Se191  1  0.23465350  0.91572487  0.30814395  1
  Se  Se192  1  0.25166377  0.92423528  0.80079324  1
  Se  Se193  1  0.58915425  0.24334753  0.31194495  1
  Se  Se194  1  0.58399779  0.23872971  0.80533508  1
  Se  Se195  1  0.58755211  0.58910638  0.29452529  1
  Se  Se196  1  0.58320931  0.57833910  0.80952027  1
  Se  Se197  1  0.58660032  0.92140161  0.30441112  1
  Se  Se198  1  0.57848586  0.90677697  0.81075097  1
  Se  Se199  1  0.92446813  0.25033117  0.29883592  1
  Se  Se200  1  0.91938837  0.25176467  0.79930435  1
  Se  Se201  1  0.92307330  0.58843286  0.29825788  1
  Se  Se202  1  0.91932503  0.59396256  0.80502933  1
  Se  Se203  1  0.91981933  0.91569634  0.30579718  1
  Se  Se204  1  0.92011060  0.92012348  0.80811458  1
  Se  Se205  1  0.08431400  0.07904822  0.30609034  1
  Se  Se206  1  0.07839919  0.07820659  0.80264914  1
  Se  Se207  1  0.07597225  0.41237532  0.29626134  1
  Se  Se208  1  0.07706175  0.40924421  0.80840331  1
  Se  Se209  1  0.07608688  0.74665054  0.30209993  1
  Se  Se210  1  0.08386289  0.75746958  0.80430041  1
  Se  Se211  1  0.42038197  0.08451095  0.30607935  1
  Se  Se212  1  0.41275590  0.08286356  0.80180923  1
  Se  Se213  1  0.42923203  0.42632306  0.30665541  1
  Se  Se214  1  0.41527813  0.42006510  0.81622563  1
  Se  Se215  1  0.41399525  0.76033284  0.31329276  1
  Se  Se216  1  0.41486230  0.74757681  0.79714285  1
  Se  Se217  1  0.75342657  0.08445671  0.30270618  1
  Se  Se218  1  0.76027948  0.09062175  0.81238799  1
  Se  Se219  1  0.76559797  0.42351544  0.31019776  1
  Se  Se220  1  0.75723331  0.41872268  0.81346490  1
  Se  Se221  1  0.74793830  0.74833135  0.30114910  1
  Se  Se222  1  0.76220342  0.75425654  0.81396281  1
  Se  Se223  1  0.24167022  0.09116138  0.18613520  1
  Se  Se224  1  0.24782104  0.08377217  0.69946420  1
  Se  Se225  1  0.23993841  0.41645378  0.18904823  1
  Se  Se226  1  0.23262099  0.42392482  0.69293567  1
  Se  Se227  1  0.23418924  0.75681946  0.18659492  1
  Se  Se228  1  0.25333948  0.75620943  0.70006643  1
  Se  Se229  1  0.59508331  0.08025416  0.19713100  1
  Se  Se230  1  0.58317013  0.08752921  0.68930299  1
  Se  Se231  1  0.58367108  0.42237491  0.18639815  1
  Se  Se232  1  0.56705856  0.42529228  0.69419336  1
  Se  Se233  1  0.58619980  0.74686360  0.20196722  1
  Se  Se234  1  0.58429295  0.76358443  0.68526765  1
  Se  Se235  1  0.92453186  0.07800082  0.19823590  1
  Se  Se236  1  0.92021062  0.07453029  0.69375374  1
  Se  Se237  1  0.91732133  0.42074531  0.19096448  1
  Se  Se238  1  0.91485689  0.41301244  0.69874319  1
  Se  Se239  1  0.91769205  0.75290260  0.19650987  1
  Se  Se240  1  0.92683519  0.74407603  0.69914535  1
  Se  Se241  1  0.08399144  0.25297064  0.19295159  1
  Se  Se242  1  0.07851169  0.24921592  0.69867949  1
  Se  Se243  1  0.08138567  0.59427766  0.18974556  1
  Se  Se244  1  0.08901152  0.58108396  0.70779268  1
  Se  Se245  1  0.07724483  0.92382612  0.19351390  1
  Se  Se246  1  0.08014851  0.91925964  0.69398942  1
  Se  Se247  1  0.43099621  0.24287526  0.19360762  1
  Se  Se248  1  0.41097593  0.24544097  0.69282412  1
  Se  Se249  1  0.41165213  0.57687506  0.18570907  1
  Se  Se250  1  0.41080986  0.59178284  0.70353402  1
  Se  Se251  1  0.42476365  0.90512847  0.18974470  1
  Se  Se252  1  0.41722923  0.92634415  0.69637216  1
  Se  Se253  1  0.76436444  0.24418648  0.18555278  1
  Se  Se254  1  0.75536974  0.23502577  0.68723780  1
  Se  Se255  1  0.74985737  0.58752145  0.19520943  1
  Se  Se256  1  0.76217322  0.57563889  0.69340306  1
  Se  Se257  1  0.75086598  0.92011595  0.20220056  1
  Se  Se258  1  0.76522090  0.91100612  0.69254794  1
