# generated using pymatgen
data_In86Cu29Se144
_symmetry_space_group_name_H-M   'P 1'
_cell_length_a   17.58140150
_cell_length_b   17.57741688
_cell_length_c   23.44522076
_cell_angle_alpha   89.98440586
_cell_angle_beta   89.98885713
_cell_angle_gamma   89.97822393
_symmetry_Int_Tables_number   1
_chemical_formula_structural   In86Cu29Se144
_chemical_formula_sum   'In86 Cu29 Se144'
_cell_volume   7245.40748829
_cell_formula_units_Z   1
loop_
 _symmetry_equiv_pos_site_id
 _symmetry_equiv_pos_as_xyz
  1  'x, y, z'
loop_
 _atom_site_type_symbol
 _atom_site_label
 _atom_site_symmetry_multiplicity
 _atom_site_fract_x
 _atom_site_fract_y
 _atom_site_fract_z
 _atom_site_occupancy
  In  In0  1  -0.00708281  0.16527377  0.11592894  1
  In  In1  1  0.00443985  0.15214081  0.63375740  1
  In  In2  1  0.00479468  0.48458178  0.12041360  1
  In  In3  1  -0.00671110  0.50999358  0.62241865  1
  In  In4  1  0.01461044  0.84909058  0.11885670  1
  In  In5  1  0.01590377  0.83707108  0.62283572  1
  In  In6  1  0.33266864  0.16618974  0.12158890  1
  In  In7  1  0.33125119  0.16288353  0.62586465  1
  In  In8  1  0.31706124  0.49433220  0.12323716  1
  In  In9  1  0.34200439  0.49716741  0.63363397  1
  In  In10  1  0.32838074  0.84754867  0.12859839  1
  In  In11  1  0.32954950  0.84078128  0.62907052  1
  In  In12  1  0.67676882  0.17062380  0.11571130  1
  In  In13  1  0.66248756  0.17685429  0.62294303  1
  In  In14  1  0.67387258  0.50133382  0.14170814  1
  In  In15  1  0.66813290  0.49775152  0.62455329  1
  In  In16  1  0.66700459  0.82166897  0.12799428  1
  In  In17  1  0.65133117  0.83172491  0.61899501  1
  In  In18  1  0.17298048  -0.00425249  0.37118787  1
  In  In19  1  0.16561889  0.00378688  0.87259694  1
  In  In20  1  0.16523374  0.31109013  0.37351971  1
  In  In21  1  0.18376204  0.31192533  0.89345851  1
  In  In22  1  0.17926724  0.67494881  0.37551295  1
  In  In23  1  0.17409939  0.66232439  0.88054331  1
  In  In24  1  0.48848140  0.01582764  0.39082160  1
  In  In25  1  0.49849019  0.02420611  0.87854519  1
  In  In26  1  0.48986419  0.32557040  0.36784856  1
  In  In27  1  0.48795018  0.31900593  0.86494685  1
  In  In28  1  0.51666593  0.67123017  0.38131658  1
  In  In29  1  0.49873047  0.66797657  0.86232969  1
  In  In30  1  0.84228113  -0.00821852  0.36851034  1
  In  In31  1  0.83617801  -0.01157710  0.88385552  1
  In  In32  1  0.83195927  0.34618254  0.37335741  1
  In  In33  1  0.81902539  0.33134536  0.87407546  1
  In  In34  1  0.81580771  0.66264589  0.37270155  1
  In  In35  1  0.83722497  0.67798370  0.87401001  1
  In  In36  1  0.01788864  0.16364652  0.37436514  1
  In  In37  1  0.02028590  0.14687225  0.88931480  1
  In  In38  1  -0.01082873  0.49395068  0.37735868  1
  In  In39  1  0.00421962  0.50676701  0.87895901  1
  In  In40  1  0.00618634  0.84851814  0.36690347  1
  In  In41  1  -0.00678964  0.84595736  0.88083063  1
  In  In42  1  0.33393103  0.15925456  0.37225522  1
  In  In43  1  0.32924420  0.16676646  0.87198345  1
  In  In44  1  0.34231364  0.49687406  0.37348929  1
  In  In45  1  0.32697255  0.48919552  0.86646186  1
  In  In46  1  0.32112653  0.85013561  0.38472844  1
  In  In47  1  0.32348196  0.82793829  0.86975502  1
  In  In48  1  0.64686779  0.16288300  0.37525536  1
  In  In49  1  0.65513045  0.16711195  0.88674731  1
  In  In50  1  0.67912765  0.50446303  0.36192056  1
  In  In51  1  0.66250145  0.49569343  0.86557314  1
  In  In52  1  0.66548145  0.82726306  0.38173240  1
  In  In53  1  0.67758345  0.83272875  0.87264817  1
  In  In54  1  0.16605927  0.00060334  0.12453562  1
  In  In55  1  0.17023727  0.00534002  0.62828737  1
  In  In56  1  0.16704622  0.33585918  0.11369569  1
  In  In57  1  0.18202101  0.32719971  0.63033301  1
  In  In58  1  0.16598172  0.66730647  0.11600227  1
  In  In59  1  0.16273785  0.68479061  0.62478591  1
  In  In60  1  0.48466209  0.00065774  0.12565180  1
  In  In61  1  0.48953251  -0.01265741  0.61287844  1
  In  In62  1  0.51076220  0.32395674  0.13175940  1
  In  In63  1  0.50272445  0.32915168  0.62643128  1
  In  In64  1  0.51344480  0.67569209  0.13104486  1
  In  In65  1  0.49619008  0.67525368  0.63025547  1
  In  In66  1  0.84634671  0.01432375  0.11559405  1
  In  In67  1  0.83647288  0.00915689  0.63070323  1
  In  In68  1  0.83304687  0.32549470  0.12645726  1
  In  In69  1  0.81668077  0.33222703  0.62743286  1
  In  In70  1  0.81830082  0.66600492  0.12611578  1
  In  In71  1  0.83536660  0.65498999  0.62145799  1
  In  In72  1  -0.00305587  0.32796519  0.24114983  1
  In  In73  1  0.34114437  0.66615074  0.24803500  1
  In  In74  1  0.83621885  0.49888466  0.00457136  1
  In  In75  1  0.50374642  0.49917925  0.50043958  1
  In  In76  1  0.49777289  0.83900660  0.00268511  1
  In  In77  1  0.49767267  0.49864213  -0.00146462  1
  In  In78  1  -0.00321808  0.67090839  0.25387399  1
  In  In79  1  0.66590940  -0.00095128  0.25162535  1
  In  In80  1  0.83117785  0.16865212  0.50570965  1
  In  In81  1  0.00205528  0.67036936  0.75090112  1
  In  In82  1  0.00520796  0.32818392  0.76116489  1
  In  In83  1  0.66134082  0.00145536  0.75211236  1
  In  In84  1  0.83345995  0.83172363  0.49163564  1
  In  In85  1  0.16727109  0.49988191  0.50707373  1
  Cu  Cu86  1  0.00472205  -0.00128633  0.00031630  1
  Cu  Cu87  1  0.32709274  0.00330487  -0.00068815  1
  Cu  Cu88  1  0.33637653  0.68013890  0.50612111  1
  Cu  Cu89  1  0.32592625  0.00199267  0.50336280  1
  Cu  Cu90  1  0.49523644  0.16895555  0.74811075  1
  Cu  Cu91  1  -0.00106917  0.32868441  0.49783245  1
  Cu  Cu92  1  0.49398983  0.16448138  0.24947329  1
  Cu  Cu93  1  -0.00215592  0.66746858  0.49795630  1
  Cu  Cu94  1  0.17534179  0.15705040  0.24832133  1
  Cu  Cu95  1  0.83856868  0.83727312  0.24803919  1
  Cu  Cu96  1  0.66069889  0.32631928  -0.00006019  1
  Cu  Cu97  1  0.66985062  0.66781194  -0.00084551  1
  Cu  Cu98  1  0.00042071  0.67513153  -0.00279878  1
  Cu  Cu99  1  0.50066656  0.83342205  0.25605138  1
  Cu  Cu100  1  0.33695665  0.32692517  -0.00388833  1
  Cu  Cu101  1  0.16308528  0.49041004  0.24465408  1
  Cu  Cu102  1  0.16782451  0.84122870  0.74960762  1
  Cu  Cu103  1  0.17753758  0.50147788  0.75405498  1
  Cu  Cu104  1  0.49591515  0.83902608  0.74557999  1
  Cu  Cu105  1  0.00803009  -0.00045913  0.49985312  1
  Cu  Cu106  1  0.83397270  0.16865602  0.24274193  1
  Cu  Cu107  1  0.82514790  0.49440482  0.74559820  1
  Cu  Cu108  1  0.33254113  0.66729311  -0.00114345  1
  Cu  Cu109  1  0.49859544  0.49464020  0.25400998  1
  Cu  Cu110  1  0.83286444  0.16445496  0.75301744  1
  Cu  Cu111  1  0.66423308  0.33745768  0.49939676  1
  Cu  Cu112  1  0.32841696  0.32049827  0.49605539  1
  Cu  Cu113  1  0.83169129  0.83209063  0.75410799  1
  Cu  Cu114  1  0.50602712  0.50260810  0.74530359  1
  Se  Se115  1  0.08564812  0.08429260  0.05393717  1
  Se  Se116  1  0.08443074  0.08507924  0.55628388  1
  Se  Se117  1  0.08690419  0.42048123  0.04545593  1
  Se  Se118  1  0.07635893  0.40694848  0.56422883  1
  Se  Se119  1  0.08665656  0.75566085  0.05051276  1
  Se  Se120  1  0.08256857  0.75230805  0.54704080  1
  Se  Se121  1  0.41559058  0.08347165  0.05037692  1
  Se  Se122  1  0.41367201  0.08586283  0.55266973  1
  Se  Se123  1  0.41217399  0.40781208  0.06052365  1
  Se  Se124  1  0.40540500  0.40823765  0.55375403  1
  Se  Se125  1  0.41106661  0.74288079  0.06335981  1
  Se  Se126  1  0.41858586  0.76055714  0.56072036  1
  Se  Se127  1  0.75143583  0.08254615  0.04943123  1
  Se  Se128  1  0.74047065  0.07463373  0.56028288  1
  Se  Se129  1  0.73557581  0.41310705  0.05971076  1
  Se  Se130  1  0.74996045  0.41760720  0.55242563  1
  Se  Se131  1  0.75078515  0.75261052  0.05152518  1
  Se  Se132  1  0.74886185  0.74549207  0.55726431  1
  Se  Se133  1  0.25019013  0.24655819  0.05037668  1
  Se  Se134  1  0.24566390  0.24333674  0.55363490  1
  Se  Se135  1  0.24936224  0.58143063  0.05037675  1
  Se  Se136  1  0.25963916  0.59188551  0.56387828  1
  Se  Se137  1  0.24763444  0.91623921  0.05243867  1
  Se  Se138  1  0.24417516  0.91665778  0.55708460  1
  Se  Se139  1  0.57659803  0.24422695  0.05305340  1
  Se  Se140  1  0.57998818  0.25307224  0.55019882  1
  Se  Se141  1  0.59229654  0.58522044  0.05973009  1
  Se  Se142  1  0.58658194  0.59301163  0.55991153  1
  Se  Se143  1  0.58828171  0.92143788  0.06591839  1
  Se  Se144  1  0.58907335  0.92220017  0.54808110  1
  Se  Se145  1  0.92608403  0.26837180  0.05507159  1
  Se  Se146  1  0.92370183  0.25459082  0.56765857  1
  Se  Se147  1  0.92537446  0.59430010  0.06209277  1
  Se  Se148  1  0.91462238  0.58061609  0.54579491  1
  Se  Se149  1  0.91755524  0.91571842  0.05161347  1
  Se  Se150  1  0.92011889  0.92294987  0.55739581  1
  Se  Se151  1  0.08598475  0.24412397  0.45205441  1
  Se  Se152  1  0.07181672  0.25801139  0.94998703  1
  Se  Se153  1  0.08122675  0.58671676  0.43830894  1
  Se  Se154  1  0.08366978  0.58740678  0.94895155  1
  Se  Se155  1  0.08691443  0.91600162  0.44357399  1
  Se  Se156  1  0.08908254  0.91739868  0.94523892  1
  Se  Se157  1  0.41656714  0.24399436  0.44213909  1
  Se  Se158  1  0.41933902  0.24239158  0.94369292  1
  Se  Se159  1  0.40811326  0.59383418  0.44458805  1
  Se  Se160  1  0.41152784  0.58975069  0.93702077  1
  Se  Se161  1  0.41464131  0.91791822  0.45342265  1
  Se  Se162  1  0.40869542  0.92302845  0.93803761  1
  Se  Se163  1  0.74481487  0.25458325  0.43947857  1
  Se  Se164  1  0.75030991  0.24745693  0.94917906  1
  Se  Se165  1  0.74257057  0.57964246  0.44337452  1
  Se  Se166  1  0.74550223  0.58368203  0.93863927  1
  Se  Se167  1  0.74527019  0.93228525  0.44054588  1
  Se  Se168  1  0.74339491  0.91218757  0.94833893  1
  Se  Se169  1  0.24718073  0.08286158  0.44281860  1
  Se  Se170  1  0.24626809  0.08716842  0.94369417  1
  Se  Se171  1  0.25144973  0.41065733  0.43987266  1
  Se  Se172  1  0.25618479  0.41977577  0.94813021  1
  Se  Se173  1  0.24712596  0.75513795  0.45177778  1
  Se  Se174  1  0.24961074  0.75391953  0.94835697  1
  Se  Se175  1  0.58533543  0.08631036  0.45491701  1
  Se  Se176  1  0.59093741  0.07036791  0.95477149  1
  Se  Se177  1  0.58495988  0.41142934  0.43349923  1
  Se  Se178  1  0.58412477  0.40702217  0.93757322  1
  Se  Se179  1  0.58358368  0.75508748  0.45502120  1
  Se  Se180  1  0.58237875  0.74253117  0.94119177  1
  Se  Se181  1  0.92246271  0.07948729  0.44247800  1
  Se  Se182  1  0.91521125  0.07971417  0.94907930  1
  Se  Se183  1  0.91349707  0.41448564  0.45106186  1
  Se  Se184  1  0.91790395  0.41197530  0.93829730  1
  Se  Se185  1  0.92555375  0.74432082  0.42957660  1
  Se  Se186  1  0.91257838  0.75602751  0.94733002  1
  Se  Se187  1  0.25382284  0.24557260  0.30132973  1
  Se  Se188  1  0.25430956  0.26071814  0.80663436  1
  Se  Se189  1  0.24320082  0.57310537  0.30476988  1
  Se  Se190  1  0.25625636  0.59180089  0.80471601  1
  Se  Se191  1  0.25612762  0.91540172  0.30121157  1
  Se  Se192  1  0.25226209  0.92254247  0.80343265  1
  Se  Se193  1  0.58043515  0.24754936  0.30041180  1
  Se  Se194  1  0.58631966  0.24145217  0.80491680  1
  Se  Se195  1  0.57751881  0.58310308  0.30549593  1
  Se  Se196  1  0.58835741  0.58689218  0.79861460  1
  Se  Se197  1  0.57624216  0.91749536  0.31700716  1
  Se  Se198  1  0.57122447  0.91297516  0.81480705  1
  Se  Se199  1  0.91371673  0.24152309  0.31140683  1
  Se  Se200  1  0.91232260  0.23890598  0.81731708  1
  Se  Se201  1  0.90642654  0.57434002  0.30580415  1
  Se  Se202  1  0.90744410  0.57426198  0.80518772  1
  Se  Se203  1  0.92513334  0.92398826  0.29299343  1
  Se  Se204  1  0.91403398  0.91812959  0.80425058  1
  Se  Se205  1  0.08693553  0.07889962  0.30158766  1
  Se  Se206  1  0.08256984  0.08534446  0.80308648  1
  Se  Se207  1  0.08573482  0.41577810  0.31063229  1
  Se  Se208  1  0.09493972  0.42513018  0.81382322  1
  Se  Se209  1  0.09780559  0.75808812  0.30409434  1
  Se  Se210  1  0.08870618  0.75925745  0.81228686  1
  Se  Se211  1  0.41879783  0.07548492  0.30416449  1
  Se  Se212  1  0.41351922  0.08421818  0.80133604  1
  Se  Se213  1  0.40843130  0.41182707  0.29917467  1
  Se  Se214  1  0.42287987  0.41970661  0.80033132  1
  Se  Se215  1  0.41957209  0.75384925  0.31697098  1
  Se  Se216  1  0.41306807  0.75391989  0.79978378  1
  Se  Se217  1  0.75691252  0.09302643  0.31037662  1
  Se  Se218  1  0.75219186  0.08504749  0.81517665  1
  Se  Se219  1  0.74763963  0.40718504  0.29728177  1
  Se  Se220  1  0.74406454  0.40946509  0.79872033  1
  Se  Se221  1  0.75310582  0.76251512  0.30572587  1
  Se  Se222  1  0.74789250  0.74410202  0.80051624  1
  Se  Se223  1  0.25848487  0.07730197  0.19209963  1
  Se  Se224  1  0.25910389  0.07712870  0.69805215  1
  Se  Se225  1  0.24598350  0.40592364  0.19379999  1
  Se  Se226  1  0.25561371  0.41516470  0.69944876  1
  Se  Se227  1  0.24463192  0.75079162  0.19105532  1
  Se  Se228  1  0.24826485  0.75277972  0.69806557  1
  Se  Se229  1  0.57932175  0.08842968  0.18861142  1
  Se  Se230  1  0.57378889  0.08654669  0.68709228  1
  Se  Se231  1  0.58438282  0.41407906  0.20022842  1
  Se  Se232  1  0.58567816  0.41459256  0.69256372  1
  Se  Se233  1  0.58865577  0.75124488  0.20685407  1
  Se  Se234  1  0.58447133  0.75487849  0.69894029  1
  Se  Se235  1  0.92151759  0.08653835  0.19419341  1
  Se  Se236  1  0.91830457  0.07870824  0.70556564  1
  Se  Se237  1  0.90482672  0.42814281  0.19321527  1
  Se  Se238  1  0.91582933  0.41673857  0.69219374  1
  Se  Se239  1  0.91511107  0.75683499  0.18509172  1
  Se  Se240  1  0.91232656  0.75796497  0.68750316  1
  Se  Se241  1  0.09393186  0.23932785  0.18824289  1
  Se  Se242  1  0.09296954  0.24210867  0.69726530  1
  Se  Se243  1  0.08547598  0.57749254  0.19025903  1
  Se  Se244  1  0.09399356  0.57652582  0.69209660  1
  Se  Se245  1  0.08653885  0.91959553  0.19689940  1
  Se  Se246  1  0.08169756  0.92198304  0.69692909  1
  Se  Se247  1  0.41377750  0.24857609  0.19368727  1
  Se  Se248  1  0.41336682  0.25246049  0.69303899  1
  Se  Se249  1  0.42559391  0.57201342  0.18501161  1
  Se  Se250  1  0.41770001  0.58825139  0.69876840  1
  Se  Se251  1  0.41850100  0.91420701  0.20078552  1
  Se  Se252  1  0.41409397  0.92612343  0.69623321  1
  Se  Se253  1  0.74493614  0.24976053  0.19517157  1
  Se  Se254  1  0.74730331  0.24408795  0.69926380  1
  Se  Se255  1  0.74539367  0.59667794  0.20496856  1
  Se  Se256  1  0.74891648  0.58468097  0.69356929  1
  Se  Se257  1  0.75783124  0.91746579  0.18693803  1
  Se  Se258  1  0.75190939  0.91026458  0.69047975  1
