# generated using pymatgen
data_In86Cu29Se144
_symmetry_space_group_name_H-M   'P 1'
_cell_length_a   17.64204432
_cell_length_b   17.64086744
_cell_length_c   23.49855607
_cell_angle_alpha   89.98790910
_cell_angle_beta   90.07901308
_cell_angle_gamma   89.98635836
_symmetry_Int_Tables_number   1
_chemical_formula_structural   In86Cu29Se144
_chemical_formula_sum   'In86 Cu29 Se144'
_cell_volume   7313.23597649
_cell_formula_units_Z   1
loop_
 _symmetry_equiv_pos_site_id
 _symmetry_equiv_pos_as_xyz
  1  'x, y, z'
loop_
 _atom_site_type_symbol
 _atom_site_label
 _atom_site_symmetry_multiplicity
 _atom_site_fract_x
 _atom_site_fract_y
 _atom_site_fract_z
 _atom_site_occupancy
  In  In0  1  0.00224370  0.17776342  0.11757037  1
  In  In1  1  0.00259192  0.15652328  0.62496463  1
  In  In2  1  -0.00921913  0.49380934  0.12568389  1
  In  In3  1  0.02099389  0.47973873  0.64698677  1
  In  In4  1  0.01179085  0.85581867  0.09841612  1
  In  In5  1  -0.01719194  0.84228315  0.64247449  1
  In  In6  1  0.32980297  0.15933657  0.11462962  1
  In  In7  1  0.31691101  0.18140196  0.64218425  1
  In  In8  1  0.33730002  0.48818410  0.12146350  1
  In  In9  1  0.30333287  0.51239020  0.65024124  1
  In  In10  1  0.33030172  0.83412247  0.11368687  1
  In  In11  1  0.32651429  0.83830817  0.64062860  1
  In  In12  1  0.67917619  0.18244319  0.11793794  1
  In  In13  1  0.68297299  0.15949104  0.62672747  1
  In  In14  1  0.66780806  0.50587341  0.12652945  1
  In  In15  1  0.65743996  0.49092743  0.62216444  1
  In  In16  1  0.67290930  0.83138986  0.11783681  1
  In  In17  1  0.67282606  0.82819677  0.62216684  1
  In  In18  1  0.16329929  0.01714167  0.37747406  1
  In  In19  1  0.16043076  -0.00308887  0.88235206  1
  In  In20  1  0.15244395  0.34084541  0.39032975  1
  In  In21  1  0.13923783  0.31158263  0.86070325  1
  In  In22  1  0.15142055  0.66373620  0.37912861  1
  In  In23  1  0.17722589  0.67050537  0.86657043  1
  In  In24  1  0.49691886  -0.01022987  0.37173644  1
  In  In25  1  0.49126209  0.00508564  0.88261502  1
  In  In26  1  0.49705595  0.32926412  0.37047717  1
  In  In27  1  0.50337387  0.33251726  0.87954560  1
  In  In28  1  0.50280559  0.65528384  0.37378457  1
  In  In29  1  0.48503474  0.67439823  0.88246532  1
  In  In30  1  0.84677414  -0.00503514  0.37615475  1
  In  In31  1  0.84584821  0.00315681  0.88000702  1
  In  In32  1  0.83185742  0.32373013  0.37055441  1
  In  In33  1  0.83646634  0.32744647  0.87002756  1
  In  In34  1  0.83621773  0.67711386  0.37051354  1
  In  In35  1  0.84902298  0.67841260  0.86457313  1
  In  In36  1  0.00118054  0.17034341  0.37817984  1
  In  In37  1  -0.00316329  0.16259126  0.88470176  1
  In  In38  1  0.01575578  0.48212395  0.38418808  1
  In  In39  1  0.00256911  0.49538489  0.86007819  1
  In  In40  1  -0.01246068  0.82756418  0.37162362  1
  In  In41  1  0.00088679  0.84871825  0.87963974  1
  In  In42  1  0.33070730  0.16145490  0.37909637  1
  In  In43  1  0.33271210  0.16566619  0.87347791  1
  In  In44  1  0.32511468  0.49111275  0.37971696  1
  In  In45  1  0.33076803  0.50244215  0.86823076  1
  In  In46  1  0.33239808  0.83445957  0.37608685  1
  In  In47  1  0.32858587  0.83425384  0.87524211  1
  In  In48  1  0.67053864  0.17939222  0.36439793  1
  In  In49  1  0.66800325  0.16976073  0.88276500  1
  In  In50  1  0.66198783  0.49657090  0.36662787  1
  In  In51  1  0.66717179  0.48529842  0.87459432  1
  In  In52  1  0.68493492  0.84553835  0.36428133  1
  In  In53  1  0.67008428  0.82536297  0.88208154  1
  In  In54  1  0.14705604  0.00931611  0.10471296  1
  In  In55  1  0.15101596  0.01047802  0.63686623  1
  In  In56  1  0.16518507  0.32874882  0.12665154  1
  In  In57  1  0.16596755  0.32645064  0.62856691  1
  In  In58  1  0.15142290  0.66989328  0.12225735  1
  In  In59  1  0.16117217  0.66452933  0.63764460  1
  In  In60  1  0.50018183  -0.00412627  0.11269312  1
  In  In61  1  0.49799847  -0.00711841  0.63000128  1
  In  In62  1  0.50490225  0.34632553  0.11395653  1
  In  In63  1  0.49956767  0.33004584  0.63442104  1
  In  In64  1  0.51048276  0.67665570  0.11450630  1
  In  In65  1  0.49428639  0.65370302  0.62748004  1
  In  In66  1  0.88260082  0.03760308  0.06986663  1
  In  In67  1  0.84140806  0.00695062  0.61899910  1
  In  In68  1  0.84789613  0.31136021  0.14497628  1
  In  In69  1  0.86034768  0.29485669  0.65121288  1
  In  In70  1  0.82630649  0.66583450  0.12344459  1
  In  In71  1  0.83892811  0.67896147  0.62074210  1
  In  In72  1  -0.01221708  0.65907675  0.24753350  1
  In  In73  1  0.33026741  0.33189274  0.25044935  1
  In  In74  1  0.66671343  0.66543150  0.75383024  1
  In  In75  1  0.17153316  0.49532626  -0.00547533  1
  In  In76  1  0.68480819  0.01035489  0.23157302  1
  In  In77  1  0.83137976  0.49578143  -0.00671815  1
  In  In78  1  0.50260789  0.16266261  0.49506166  1
  In  In79  1  0.50144136  0.83026992  0.50196674  1
  In  In80  1  0.67547866  0.00172644  0.76432163  1
  In  In81  1  0.83049341  0.49898517  0.50920988  1
  In  In82  1  0.32965700  0.00161818  0.25142039  1
  In  In83  1  0.33623198  0.66743218  0.25595313  1
  In  In84  1  0.15955036  0.83418246  0.51001950  1
  In  In85  1  0.49318438  0.49527461  0.50052497  1
  Cu  Cu86  1  0.33333637  -0.00357873  -0.00683098  1
  Cu  Cu87  1  -0.00150829  0.66103982  0.50379827  1
  Cu  Cu88  1  0.33088343  0.66486725  -0.00691044  1
  Cu  Cu89  1  0.66213753  -0.00175129  -0.00256939  1
  Cu  Cu90  1  0.33610664  0.33340711  -0.00805769  1
  Cu  Cu91  1  0.67885200  0.00250994  0.49394242  1
  Cu  Cu92  1  0.82483511  0.49555697  0.74888483  1
  Cu  Cu93  1  0.50547244  0.16355415  0.75929096  1
  Cu  Cu94  1  0.51108400  0.83307546  0.24090546  1
  Cu  Cu95  1  0.49285716  0.49768782  0.75361994  1
  Cu  Cu96  1  0.15771230  0.84161352  0.23758236  1
  Cu  Cu97  1  0.82894934  0.49405504  0.25208026  1
  Cu  Cu98  1  0.66536079  0.65876209  -0.00163186  1
  Cu  Cu99  1  0.32718351  0.01075273  0.50924179  1
  Cu  Cu100  1  0.67276793  0.67418730  0.49265038  1
  Cu  Cu101  1  0.50323885  0.17429219  0.24187191  1
  Cu  Cu102  1  0.16023295  0.83734510  0.75773125  1
  Cu  Cu103  1  0.67028472  0.33616851  0.00122882  1
  Cu  Cu104  1  0.00081965  0.32726572  0.51229633  1
  Cu  Cu105  1  0.67448192  0.32591212  0.49962964  1
  Cu  Cu106  1  0.00104258  -0.00239171  0.50246623  1
  Cu  Cu107  1  0.32135218  0.66499154  0.51213869  1
  Cu  Cu108  1  0.49331152  0.83152889  0.75603093  1
  Cu  Cu109  1  0.50710898  0.50611196  0.24234381  1
  Cu  Cu110  1  0.15721074  0.16662988  0.24860797  1
  Cu  Cu111  1  0.32537644  0.33783462  0.51126686  1
  Cu  Cu112  1  0.16188515  0.15563419  0.75553336  1
  Cu  Cu113  1  0.83874326  0.83152443  0.24199685  1
  Cu  Cu114  1  0.00202976  0.67321167  -0.00867547  1
  Se  Se115  1  0.10491547  0.12549170  0.04409129  1
  Se  Se116  1  0.08717304  0.07962648  0.55242800  1
  Se  Se117  1  0.07659412  0.41177975  0.05621135  1
  Se  Se118  1  0.08457115  0.41437342  0.56068040  1
  Se  Se119  1  0.08971971  0.75192455  0.04469480  1
  Se  Se120  1  0.06935541  0.74654877  0.56711900  1
  Se  Se121  1  0.41641579  0.08069454  0.04804671  1
  Se  Se122  1  0.41572142  0.08484361  0.56509487  1
  Se  Se123  1  0.41646587  0.42140566  0.04440025  1
  Se  Se124  1  0.40923871  0.41528230  0.56892868  1
  Se  Se125  1  0.41320277  0.74733199  0.05004052  1
  Se  Se126  1  0.40607188  0.74736273  0.56425530  1
  Se  Se127  1  0.74154904  0.08293616  0.05141953  1
  Se  Se128  1  0.75628924  0.08701021  0.54866009  1
  Se  Se129  1  0.75288424  0.41220022  0.06385000  1
  Se  Se130  1  0.74892405  0.40057276  0.56603337  1
  Se  Se131  1  0.75039694  0.74267731  0.04835360  1
  Se  Se132  1  0.75398943  0.75438319  0.54872382  1
  Se  Se133  1  0.25711853  0.26144676  0.05693837  1
  Se  Se134  1  0.24823929  0.24323563  0.55695663  1
  Se  Se135  1  0.25443878  0.58999064  0.06116902  1
  Se  Se136  1  0.24055628  0.58326808  0.56506113  1
  Se  Se137  1  0.24632761  0.92258476  0.05225784  1
  Se  Se138  1  0.25210487  0.92509172  0.56620491  1
  Se  Se139  1  0.58272790  0.25226919  0.05185356  1
  Se  Se140  1  0.58675147  0.25151882  0.55889003  1
  Se  Se141  1  0.58320511  0.57745149  0.05256845  1
  Se  Se142  1  0.59024398  0.59342689  0.55078370  1
  Se  Se143  1  0.58363336  0.90935227  0.04993043  1
  Se  Se144  1  0.59307403  0.92805461  0.55389291  1
  Se  Se145  1  0.90916585  0.26040119  0.05512581  1
  Se  Se146  1  0.91430592  0.24148701  0.55797841  1
  Se  Se147  1  0.92475421  0.59034116  0.05256140  1
  Se  Se148  1  0.92755937  0.57854707  0.56851690  1
  Se  Se149  1  0.88739484  0.89201439  0.05001631  1
  Se  Se150  1  0.92054511  0.91290848  0.55632605  1
  Se  Se151  1  0.08324733  0.24519641  0.45472676  1
  Se  Se152  1  0.09516421  0.23593962  0.94924828  1
  Se  Se153  1  0.08341335  0.57914340  0.45245501  1
  Se  Se154  1  0.07990216  0.58594471  0.93598310  1
  Se  Se155  1  0.07823705  0.91706576  0.43890612  1
  Se  Se156  1  0.07844087  0.92250677  0.95586482  1
  Se  Se157  1  0.40575020  0.26322637  0.44609142  1
  Se  Se158  1  0.41870842  0.24475477  0.94368682  1
  Se  Se159  1  0.40201596  0.59460376  0.44577399  1
  Se  Se160  1  0.41177613  0.57582636  0.94454215  1
  Se  Se161  1  0.40371964  0.92732662  0.44997458  1
  Se  Se162  1  0.41769023  0.90850675  0.94599168  1
  Se  Se163  1  0.75187700  0.24380932  0.44290951  1
  Se  Se164  1  0.75459944  0.25649237  0.94624891  1
  Se  Se165  1  0.74633697  0.58417096  0.43760910  1
  Se  Se166  1  0.74860397  0.59118531  0.93099704  1
  Se  Se167  1  0.75860014  0.91372282  0.44353848  1
  Se  Se168  1  0.74785191  0.92266139  0.94061790  1
  Se  Se169  1  0.24709663  0.08885343  0.45092586  1
  Se  Se170  1  0.25166338  0.08311802  0.94335522  1
  Se  Se171  1  0.24582704  0.42052237  0.45418635  1
  Se  Se172  1  0.24900758  0.40251772  0.93005318  1
  Se  Se173  1  0.25119643  0.74609302  0.44549062  1
  Se  Se174  1  0.24642938  0.74960407  0.94465441  1
  Se  Se175  1  0.59343701  0.07397871  0.43209919  1
  Se  Se176  1  0.58138672  0.08504158  0.94659876  1
  Se  Se177  1  0.58874518  0.40573217  0.44324933  1
  Se  Se178  1  0.58429523  0.41845123  0.95018409  1
  Se  Se179  1  0.59071609  0.75110554  0.43322395  1
  Se  Se180  1  0.58196325  0.74544857  0.94707711  1
  Se  Se181  1  0.92132505  0.08185421  0.44560095  1
  Se  Se182  1  0.91549788  0.08278859  0.95780517  1
  Se  Se183  1  0.91940124  0.40655270  0.45004265  1
  Se  Se184  1  0.92894476  0.41309204  0.93755037  1
  Se  Se185  1  0.91918964  0.74432123  0.44715353  1
  Se  Se186  1  0.91459837  0.75613878  0.94317778  1
  Se  Se187  1  0.24352138  0.24014169  0.30981571  1
  Se  Se188  1  0.24652536  0.24320124  0.80343057  1
  Se  Se189  1  0.24188995  0.57956864  0.31155807  1
  Se  Se190  1  0.24534410  0.57782273  0.79868791  1
  Se  Se191  1  0.23684715  0.90841473  0.30871218  1
  Se  Se192  1  0.24555910  0.92001249  0.80959972  1
  Se  Se193  1  0.58055869  0.25667707  0.29880463  1
  Se  Se194  1  0.58703224  0.24880814  0.81056239  1
  Se  Se195  1  0.58693765  0.58819734  0.29970583  1
  Se  Se196  1  0.57449147  0.57864783  0.81350183  1
  Se  Se197  1  0.58565216  0.92233126  0.29751515  1
  Se  Se198  1  0.57696630  0.90829524  0.81414119  1
  Se  Se199  1  0.93877130  0.26814320  0.31012925  1
  Se  Se200  1  0.94237605  0.26200775  0.81234386  1
  Se  Se201  1  0.91263688  0.56769783  0.31693715  1
  Se  Se202  1  0.91076175  0.57856326  0.79880940  1
  Se  Se203  1  0.91877277  0.91389419  0.29939533  1
  Se  Se204  1  0.91342060  0.91789467  0.80645690  1
  Se  Se205  1  0.07765304  0.08317923  0.30453248  1
  Se  Se206  1  0.07686652  0.07914156  0.81283272  1
  Se  Se207  1  0.09363592  0.41502624  0.30720438  1
  Se  Se208  1  0.10775357  0.43212562  0.80160947  1
  Se  Se209  1  0.08735718  0.75454771  0.30171645  1
  Se  Se210  1  0.07900546  0.75517976  0.81284650  1
  Se  Se211  1  0.42808095  0.09423363  0.30585070  1
  Se  Se212  1  0.41710984  0.07994423  0.80550970  1
  Se  Se213  1  0.42399295  0.43168594  0.30511509  1
  Se  Se214  1  0.41732684  0.41061117  0.80875050  1
  Se  Se215  1  0.43277336  0.76362278  0.30925639  1
  Se  Se216  1  0.40849365  0.74707546  0.80523346  1
  Se  Se217  1  0.76205295  0.08668467  0.30840719  1
  Se  Se218  1  0.76616547  0.09973268  0.81216672  1
  Se  Se219  1  0.74675139  0.41032148  0.30540106  1
  Se  Se220  1  0.74806961  0.40977829  0.80308550  1
  Se  Se221  1  0.75418100  0.75125433  0.29651575  1
  Se  Se222  1  0.75667472  0.76561375  0.80085826  1
  Se  Se223  1  0.23961659  0.08589209  0.18909837  1
  Se  Se224  1  0.25116564  0.07640620  0.70210824  1
  Se  Se225  1  0.24250028  0.42713357  0.19463883  1
  Se  Se226  1  0.26603167  0.38785536  0.69619029  1
  Se  Se227  1  0.24494324  0.75510706  0.19078740  1
  Se  Se228  1  0.24299072  0.75323217  0.70289017  1
  Se  Se229  1  0.57527407  0.08950103  0.18257798  1
  Se  Se230  1  0.58273940  0.08409277  0.69517099  1
  Se  Se231  1  0.58440826  0.41586842  0.19139332  1
  Se  Se232  1  0.58003962  0.42052937  0.69863066  1
  Se  Se233  1  0.59148642  0.74842776  0.18972214  1
  Se  Se234  1  0.57317147  0.75618233  0.69090032  1
  Se  Se235  1  0.91987140  0.07919993  0.17186272  1
  Se  Se236  1  0.90519783  0.09184550  0.69312299  1
  Se  Se237  1  0.91914877  0.41667031  0.20189982  1
  Se  Se238  1  0.91668506  0.41024718  0.70515188  1
  Se  Se239  1  0.92241273  0.75649938  0.18003165  1
  Se  Se240  1  0.91108497  0.74228155  0.70212084  1
  Se  Se241  1  0.07951013  0.25419045  0.19626274  1
  Se  Se242  1  0.08472934  0.23892124  0.69529708  1
  Se  Se243  1  0.08782742  0.57339626  0.19273492  1
  Se  Se244  1  0.06471503  0.59721477  0.70272940  1
  Se  Se245  1  0.08033560  0.92483845  0.18244648  1
  Se  Se246  1  0.07662713  0.92068057  0.70388229  1
  Se  Se247  1  0.41695409  0.24806835  0.18407892  1
  Se  Se248  1  0.42225642  0.24487533  0.70308793  1
  Se  Se249  1  0.42050773  0.58377283  0.18699897  1
  Se  Se250  1  0.41308814  0.58550401  0.70178700  1
  Se  Se251  1  0.41993283  0.91135577  0.18968065  1
  Se  Se252  1  0.41585994  0.92087111  0.70302266  1
  Se  Se253  1  0.74446641  0.24485444  0.20378541  1
  Se  Se254  1  0.73210779  0.26002537  0.69569632  1
  Se  Se255  1  0.75375355  0.58310970  0.19754403  1
  Se  Se256  1  0.74927396  0.57812295  0.68606289  1
  Se  Se257  1  0.76766747  0.91389185  0.17807397  1
  Se  Se258  1  0.75001447  0.91860172  0.68842309  1
