# generated using pymatgen
data_In86Cu29Se144
_symmetry_space_group_name_H-M   'P 1'
_cell_length_a   17.58747884
_cell_length_b   17.58460619
_cell_length_c   23.44433665
_cell_angle_alpha   90.00342052
_cell_angle_beta   90.01128940
_cell_angle_gamma   90.01383619
_symmetry_Int_Tables_number   1
_chemical_formula_structural   In86Cu29Se144
_chemical_formula_sum   'In86 Cu29 Se144'
_cell_volume   7250.60359148
_cell_formula_units_Z   1
loop_
 _symmetry_equiv_pos_site_id
 _symmetry_equiv_pos_as_xyz
  1  'x, y, z'
loop_
 _atom_site_type_symbol
 _atom_site_label
 _atom_site_symmetry_multiplicity
 _atom_site_fract_x
 _atom_site_fract_y
 _atom_site_fract_z
 _atom_site_occupancy
  In  In0  1  0.01722417  0.16911626  0.14235464  1
  In  In1  1  0.01687380  0.17154727  0.60753958  1
  In  In2  1  -0.00411328  0.49024656  0.12796108  1
  In  In3  1  -0.01279479  0.49029010  0.60792191  1
  In  In4  1  -0.00467666  0.84908080  0.12717551  1
  In  In5  1  -0.00772647  0.83494505  0.61545958  1
  In  In6  1  0.31642689  0.19202888  0.13817288  1
  In  In7  1  0.33135195  0.16893018  0.62564627  1
  In  In8  1  0.32027471  0.48713206  0.11616769  1
  In  In9  1  0.33011813  0.49549647  0.62454875  1
  In  In10  1  0.34023801  0.82159371  0.12098664  1
  In  In11  1  0.34520360  0.82903592  0.63223785  1
  In  In12  1  0.66009241  0.16515695  0.13128301  1
  In  In13  1  0.67866603  0.18123363  0.61742729  1
  In  In14  1  0.69078598  0.50079325  0.13081137  1
  In  In15  1  0.66186710  0.49358323  0.61874618  1
  In  In16  1  0.66250090  0.81983899  0.12181194  1
  In  In17  1  0.67076704  0.83906147  0.62179697  1
  In  In18  1  0.15847614  0.02210760  0.37756678  1
  In  In19  1  0.18230984  0.00301122  0.87505757  1
  In  In20  1  0.16317920  0.33266240  0.36886076  1
  In  In21  1  0.16751180  0.33500479  0.87627302  1
  In  In22  1  0.15854035  0.64210217  0.37742765  1
  In  In23  1  0.16158516  0.65221465  0.87237139  1
  In  In24  1  0.49810486  0.00038127  0.38785636  1
  In  In25  1  0.48759662  -0.00209432  0.87153766  1
  In  In26  1  0.49037406  0.34109988  0.38473218  1
  In  In27  1  0.49355484  0.32808045  0.86370308  1
  In  In28  1  0.51053077  0.65425868  0.38236292  1
  In  In29  1  0.50164264  0.67617903  0.87451917  1
  In  In30  1  0.84749064  -0.00602803  0.38564597  1
  In  In31  1  0.82649393  -0.00887874  0.87306753  1
  In  In32  1  0.83882839  0.32568532  0.38100401  1
  In  In33  1  0.84636786  0.34294359  0.86330375  1
  In  In34  1  0.83083682  0.67636453  0.38417360  1
  In  In35  1  0.83252723  0.66335321  0.88108164  1
  In  In36  1  0.00053182  0.16817129  0.37291662  1
  In  In37  1  -0.00027045  0.18586023  0.87230762  1
  In  In38  1  0.00935074  0.48772821  0.38283976  1
  In  In39  1  0.01180464  0.49076038  0.88407898  1
  In  In40  1  -0.01709229  0.82648420  0.37430978  1
  In  In41  1  -0.00193924  0.82465157  0.87877110  1
  In  In42  1  0.30955702  0.19173861  0.39426198  1
  In  In43  1  0.32541523  0.16286582  0.87183831  1
  In  In44  1  0.33552107  0.49105454  0.37769394  1
  In  In45  1  0.31357937  0.48419362  0.86169653  1
  In  In46  1  0.33604112  0.84108006  0.38011838  1
  In  In47  1  0.34161334  0.84075137  0.86802193  1
  In  In48  1  0.66977153  0.16235812  0.38804049  1
  In  In49  1  0.65522184  0.16622196  0.86825897  1
  In  In50  1  0.66341679  0.50571344  0.37751154  1
  In  In51  1  0.67994381  0.50212229  0.87290627  1
  In  In52  1  0.67541380  0.82266043  0.38253352  1
  In  In53  1  0.67136948  0.82245021  0.87965111  1
  In  In54  1  0.15148085  0.00503240  0.12924221  1
  In  In55  1  0.16560165  0.02336943  0.62023467  1
  In  In56  1  0.16761487  0.33452402  0.12659593  1
  In  In57  1  0.16613890  0.33242857  0.62389907  1
  In  In58  1  0.17344865  0.65825333  0.12387136  1
  In  In59  1  0.18315859  0.66487267  0.62603202  1
  In  In60  1  0.50720885  -0.00399540  0.12220692  1
  In  In61  1  0.49352143  -0.00479167  0.62155149  1
  In  In62  1  0.49356864  0.32448846  0.12550893  1
  In  In63  1  0.49740764  0.33482505  0.62333156  1
  In  In64  1  0.49667677  0.67581142  0.12449773  1
  In  In65  1  0.49090363  0.65606477  0.61869221  1
  In  In66  1  0.84985478  0.00665932  0.12535095  1
  In  In67  1  0.83671462  -0.00375171  0.61301050  1
  In  In68  1  0.85190274  0.35233458  0.12370833  1
  In  In69  1  0.83691367  0.33807327  0.62333417  1
  In  In70  1  0.82457550  0.65191818  0.12572277  1
  In  In71  1  0.84024173  0.66827059  0.61282858  1
  In  In72  1  0.49933592  0.50243956  -0.00245841  1
  In  In73  1  -0.00494196  0.65836586  0.25031337  1
  In  In74  1  0.33265443  0.00602076  0.25436029  1
  In  In75  1  0.66933137  0.33396412  0.25019335  1
  In  In76  1  0.49141589  0.15967981  -0.00648952  1
  In  In77  1  0.66690921  0.00421451  0.73904508  1
  In  In78  1  0.66777733  0.66340883  0.75086659  1
  In  In79  1  0.33538894  0.65823484  0.25455798  1
  In  In80  1  0.00273152  0.00191083  0.74266117  1
  In  In81  1  0.00481246  0.66119127  0.74218259  1
  In  In82  1  0.67153286  -0.00133784  0.25483206  1
  In  In83  1  0.16780899  0.83141703  0.49865677  1
  In  In84  1  0.16679776  0.83368127  0.00334162  1
  In  In85  1  0.83189206  0.16785331  -0.00138252  1
  Cu  Cu86  1  0.83679702  0.17488079  0.74100570  1
  Cu  Cu87  1  0.33472994  0.00003040  0.50360193  1
  Cu  Cu88  1  0.17452963  0.83863449  0.74604343  1
  Cu  Cu89  1  0.82933047  0.83406590  0.25510691  1
  Cu  Cu90  1  0.49018604  0.17249447  0.26361400  1
  Cu  Cu91  1  0.50107077  0.83448839  0.74895255  1
  Cu  Cu92  1  0.49389960  0.49750402  0.74040497  1
  Cu  Cu93  1  0.66295130  0.67032912  0.50285119  1
  Cu  Cu94  1  0.33339056  0.66581295  -0.00422585  1
  Cu  Cu95  1  0.66972175  -0.01596836  0.00133565  1
  Cu  Cu96  1  -0.00769861  0.66401518  0.00295959  1
  Cu  Cu97  1  -0.00024442  0.00758944  0.00443402  1
  Cu  Cu98  1  0.66022609  0.00143177  0.50304901  1
  Cu  Cu99  1  0.66756643  0.34102951  0.50015337  1
  Cu  Cu100  1  0.84162708  0.17255434  0.25271195  1
  Cu  Cu101  1  0.83912981  0.49842128  0.74668818  1
  Cu  Cu102  1  0.33626488  0.00370184  -0.00069390  1
  Cu  Cu103  1  0.15895598  0.83483602  0.25194515  1
  Cu  Cu104  1  0.33554907  0.66022957  0.50157213  1
  Cu  Cu105  1  0.67277917  0.66278884  0.00164103  1
  Cu  Cu106  1  0.16765322  0.17242336  0.74692944  1
  Cu  Cu107  1  0.50039667  0.49951995  0.25461082  1
  Cu  Cu108  1  0.32981006  0.33392508  0.50417914  1
  Cu  Cu109  1  0.49684965  0.17670467  0.74613181  1
  Cu  Cu110  1  0.16595902  0.49151194  0.74945996  1
  Cu  Cu111  1  0.00248028  0.32733352  0.49797095  1
  Cu  Cu112  1  0.67114900  0.33487996  -0.00256327  1
  Cu  Cu113  1  0.50672124  0.82846481  0.25049609  1
  Cu  Cu114  1  0.00509246  0.33516709  0.00059007  1
  Se  Se115  1  0.07990021  0.09179435  0.05788760  1
  Se  Se116  1  0.07217772  0.06551651  0.54340223  1
  Se  Se117  1  0.08442377  0.41955329  0.05631026  1
  Se  Se118  1  0.08660114  0.41219571  0.55055630  1
  Se  Se119  1  0.07389586  0.74437993  0.06374154  1
  Se  Se120  1  0.08300453  0.73939004  0.56033409  1
  Se  Se121  1  0.40803743  0.08272991  0.06786278  1
  Se  Se122  1  0.41600747  0.08634799  0.55630290  1
  Se  Se123  1  0.41288685  0.40256886  0.05045447  1
  Se  Se124  1  0.41609656  0.41865505  0.55366448  1
  Se  Se125  1  0.41957231  0.74857615  0.04632319  1
  Se  Se126  1  0.41383940  0.74943975  0.55376216  1
  Se  Se127  1  0.73941298  0.07542184  0.06030032  1
  Se  Se128  1  0.74829992  0.08327887  0.55298309  1
  Se  Se129  1  0.75286047  0.41348843  0.05424599  1
  Se  Se130  1  0.75597712  0.42174244  0.55238253  1
  Se  Se131  1  0.75578806  0.74625206  0.05587897  1
  Se  Se132  1  0.74926261  0.75392787  0.55315433  1
  Se  Se133  1  0.24397735  0.24841900  0.05500076  1
  Se  Se134  1  0.24657697  0.24659975  0.55445087  1
  Se  Se135  1  0.25080152  0.58314748  0.04893424  1
  Se  Se136  1  0.24937237  0.57784591  0.55195637  1
  Se  Se137  1  0.25643911  0.92576789  0.06452263  1
  Se  Se138  1  0.25482721  0.91858410  0.56420177  1
  Se  Se139  1  0.58988122  0.25122708  0.05294438  1
  Se  Se140  1  0.58433023  0.25625706  0.55309281  1
  Se  Se141  1  0.59098635  0.58435628  0.06268283  1
  Se  Se142  1  0.58141128  0.58127726  0.55237521  1
  Se  Se143  1  0.58064364  0.90749188  0.05454413  1
  Se  Se144  1  0.58010571  0.91397443  0.55512035  1
  Se  Se145  1  0.92520736  0.25042477  0.05997508  1
  Se  Se146  1  0.91432763  0.25019486  0.55346026  1
  Se  Se147  1  0.91606684  0.57746631  0.05862766  1
  Se  Se148  1  0.92142220  0.58927951  0.54392241  1
  Se  Se149  1  0.91462829  0.91917372  0.05001236  1
  Se  Se150  1  0.92070837  0.91809231  0.54408871  1
  Se  Se151  1  0.08740432  0.24832442  0.44264817  1
  Se  Se152  1  0.08540524  0.24958695  0.94698311  1
  Se  Se153  1  0.07390850  0.58363121  0.45342110  1
  Se  Se154  1  0.08241057  0.58629658  0.95089277  1
  Se  Se155  1  0.08070621  0.91535309  0.43377663  1
  Se  Se156  1  0.07884592  0.92635512  0.94141019  1
  Se  Se157  1  0.41918329  0.24999786  0.45423887  1
  Se  Se158  1  0.40688364  0.25827352  0.94010018  1
  Se  Se159  1  0.41682158  0.57725501  0.44532929  1
  Se  Se160  1  0.40902354  0.58454883  0.93283290  1
  Se  Se161  1  0.41746845  0.91232866  0.45439071  1
  Se  Se162  1  0.41571833  0.91657906  0.94689601  1
  Se  Se163  1  0.75026970  0.25198094  0.45151461  1
  Se  Se164  1  0.74540321  0.25407405  0.93329055  1
  Se  Se165  1  0.74524158  0.58782206  0.44739906  1
  Se  Se166  1  0.75451644  0.57642633  0.94988611  1
  Se  Se167  1  0.74425277  0.92279488  0.44509149  1
  Se  Se168  1  0.75549497  0.90749645  0.94619292  1
  Se  Se169  1  0.24784211  0.08215188  0.45317096  1
  Se  Se170  1  0.24992004  0.08682862  0.95015885  1
  Se  Se171  1  0.24727468  0.41115090  0.44328956  1
  Se  Se172  1  0.24184539  0.42574170  0.94487924  1
  Se  Se173  1  0.25545916  0.73629279  0.43689358  1
  Se  Se174  1  0.25142480  0.74760020  0.93653699  1
  Se  Se175  1  0.57671929  0.08869640  0.45418721  1
  Se  Se176  1  0.59212635  0.06771319  0.94112228  1
  Se  Se177  1  0.58199706  0.42248087  0.44688541  1
  Se  Se178  1  0.58742413  0.40927447  0.93586412  1
  Se  Se179  1  0.57840764  0.75246039  0.44830972  1
  Se  Se180  1  0.58637305  0.74459064  0.94917389  1
  Se  Se181  1  0.90621641  0.10206070  0.44356576  1
  Se  Se182  1  0.92215033  0.07884759  0.93556605  1
  Se  Se183  1  0.91620803  0.41310071  0.44987559  1
  Se  Se184  1  0.91521992  0.41259494  0.94627715  1
  Se  Se185  1  0.91332993  0.75650764  0.45415267  1
  Se  Se186  1  0.91367123  0.74969780  0.94879419  1
  Se  Se187  1  0.25330923  0.24955645  0.30479615  1
  Se  Se188  1  0.24906812  0.25275894  0.80477799  1
  Se  Se189  1  0.24050889  0.56486121  0.30358729  1
  Se  Se190  1  0.24598325  0.58516923  0.79717900  1
  Se  Se191  1  0.24021605  0.91319259  0.31198915  1
  Se  Se192  1  0.25512271  0.92248347  0.80104740  1
  Se  Se193  1  0.58287460  0.24696124  0.31628432  1
  Se  Se194  1  0.58733558  0.25460073  0.79724570  1
  Se  Se195  1  0.58488661  0.58480686  0.30207353  1
  Se  Se196  1  0.57334407  0.57225684  0.80744386  1
  Se  Se197  1  0.57755057  0.91241928  0.31355233  1
  Se  Se198  1  0.58563995  0.91214519  0.80851646  1
  Se  Se199  1  0.92146394  0.25871666  0.30426959  1
  Se  Se200  1  0.92282920  0.25510987  0.79433325  1
  Se  Se201  1  0.91325502  0.57962777  0.32110561  1
  Se  Se202  1  0.91735412  0.57696143  0.81023421  1
  Se  Se203  1  0.91475093  0.91882699  0.30372578  1
  Se  Se204  1  0.91678354  0.90959974  0.80568018  1
  Se  Se205  1  0.08265044  0.08966549  0.30025703  1
  Se  Se206  1  0.08875586  0.08939559  0.80892536  1
  Se  Se207  1  0.07188902  0.40968922  0.30157041  1
  Se  Se208  1  0.08006638  0.41336540  0.80523985  1
  Se  Se209  1  0.08824945  0.74830719  0.31215639  1
  Se  Se210  1  0.09201869  0.75836934  0.80460856  1
  Se  Se211  1  0.41314480  0.09136201  0.32311037  1
  Se  Se212  1  0.41975357  0.09061232  0.80356364  1
  Se  Se213  1  0.41824988  0.41407030  0.30462813  1
  Se  Se214  1  0.41291372  0.41497081  0.79795136  1
  Se  Se215  1  0.42288227  0.75357018  0.31208206  1
  Se  Se216  1  0.41829213  0.74927004  0.80152165  1
  Se  Se217  1  0.75894026  0.09257861  0.31121314  1
  Se  Se218  1  0.76017049  0.09307290  0.80319722  1
  Se  Se219  1  0.75515819  0.41954454  0.31339063  1
  Se  Se220  1  0.75063037  0.41837703  0.79904900  1
  Se  Se221  1  0.74911548  0.74710636  0.30546237  1
  Se  Se222  1  0.76280847  0.75417796  0.80482920  1
  Se  Se223  1  0.23639089  0.09184778  0.19854915  1
  Se  Se224  1  0.25053743  0.08452901  0.69758965  1
  Se  Se225  1  0.26249201  0.40680409  0.19480673  1
  Se  Se226  1  0.25099881  0.41050456  0.69500885  1
  Se  Se227  1  0.24421761  0.75707777  0.19517397  1
  Se  Se228  1  0.25649866  0.74861723  0.69858017  1
  Se  Se229  1  0.56738777  0.08962117  0.20242404  1
  Se  Se230  1  0.57685347  0.09731195  0.68433079  1
  Se  Se231  1  0.57803706  0.42258714  0.18734873  1
  Se  Se232  1  0.58376713  0.41654083  0.69295551  1
  Se  Se233  1  0.58579061  0.74310049  0.19763811  1
  Se  Se234  1  0.57943561  0.75289364  0.68869552  1
  Se  Se235  1  0.92211708  0.08449410  0.20044136  1
  Se  Se236  1  0.91389459  0.09124026  0.68258308  1
  Se  Se237  1  0.90669183  0.43150039  0.20476833  1
  Se  Se238  1  0.92468675  0.41835790  0.69260515  1
  Se  Se239  1  0.91006145  0.75621406  0.19108520  1
  Se  Se240  1  0.91112949  0.75534212  0.69136157  1
  Se  Se241  1  0.06475949  0.28435053  0.19963246  1
  Se  Se242  1  0.08013817  0.24657259  0.69061093  1
  Se  Se243  1  0.09369449  0.57395854  0.19378092  1
  Se  Se244  1  0.09041920  0.56889628  0.68350859  1
  Se  Se245  1  0.07737152  0.92079615  0.20154648  1
  Se  Se246  1  0.09296309  0.91057096  0.68289585  1
  Se  Se247  1  0.41636632  0.25623082  0.20441925  1
  Se  Se248  1  0.41082169  0.25676230  0.69361111  1
  Se  Se249  1  0.42079269  0.57304785  0.18651258  1
  Se  Se250  1  0.40976801  0.58495287  0.69390757  1
  Se  Se251  1  0.42237502  0.90881033  0.19431775  1
  Se  Se252  1  0.41801169  0.92276630  0.70037287  1
  Se  Se253  1  0.76118387  0.24542378  0.18723051  1
  Se  Se254  1  0.74941808  0.25995846  0.69450721  1
  Se  Se255  1  0.75107660  0.58610958  0.20668107  1
  Se  Se256  1  0.75952889  0.57974251  0.68707239  1
  Se  Se257  1  0.75603043  0.91324653  0.18767498  1
  Se  Se258  1  0.76513271  0.91124761  0.69310863  1
