# generated using pymatgen
data_In86Cu29Se144
_symmetry_space_group_name_H-M   'P 1'
_cell_length_a   17.57949842
_cell_length_b   17.58510622
_cell_length_c   23.44464308
_cell_angle_alpha   90.02198323
_cell_angle_beta   90.00455862
_cell_angle_gamma   89.99653653
_symmetry_Int_Tables_number   1
_chemical_formula_structural   In86Cu29Se144
_chemical_formula_sum   'In86 Cu29 Se144'
_cell_volume   7247.61419573
_cell_formula_units_Z   1
loop_
 _symmetry_equiv_pos_site_id
 _symmetry_equiv_pos_as_xyz
  1  'x, y, z'
loop_
 _atom_site_type_symbol
 _atom_site_label
 _atom_site_symmetry_multiplicity
 _atom_site_fract_x
 _atom_site_fract_y
 _atom_site_fract_z
 _atom_site_occupancy
  In  In0  1  -0.00129753  0.15978694  0.12101075  1
  In  In1  1  -0.01207472  0.17884492  0.62180924  1
  In  In2  1  -0.01424827  0.51423536  0.13616616  1
  In  In3  1  -0.00547679  0.51080879  0.62541441  1
  In  In4  1  -0.03826737  0.86384844  0.15255452  1
  In  In5  1  -0.01175241  0.82484806  0.62429234  1
  In  In6  1  0.32351374  0.16336345  0.11619990  1
  In  In7  1  0.35545602  0.15777500  0.62714491  1
  In  In8  1  0.34320651  0.49196995  0.12237615  1
  In  In9  1  0.34024379  0.49699111  0.63959481  1
  In  In10  1  0.35076741  0.83316675  0.12045233  1
  In  In11  1  0.34116205  0.82029129  0.63289384  1
  In  In12  1  0.66610388  0.16569576  0.12317860  1
  In  In13  1  0.66548034  0.17252921  0.62836643  1
  In  In14  1  0.66552342  0.50609069  0.12363536  1
  In  In15  1  0.66847158  0.49602873  0.63103840  1
  In  In16  1  0.66792594  0.83578465  0.12419450  1
  In  In17  1  0.66178373  0.83695376  0.63691233  1
  In  In18  1  0.15994720  -0.00724039  0.36234636  1
  In  In19  1  0.17106215  0.00564614  0.88494085  1
  In  In20  1  0.16014024  0.34362315  0.37732589  1
  In  In21  1  0.18032790  0.32278464  0.88281034  1
  In  In22  1  0.16742309  0.67853885  0.37908427  1
  In  In23  1  0.16100032  0.65989051  0.87452603  1
  In  In24  1  0.51484393  0.01307640  0.35977953  1
  In  In25  1  0.51985077  -0.01858623  0.88784443  1
  In  In26  1  0.50041141  0.32007189  0.37919191  1
  In  In27  1  0.50258151  0.33475698  0.87469309  1
  In  In28  1  0.51225908  0.65678760  0.38006050  1
  In  In29  1  0.50741630  0.67130069  0.86827572  1
  In  In30  1  0.83306420  0.00237453  0.36512327  1
  In  In31  1  0.82257337  0.01370382  0.89129177  1
  In  In32  1  0.82370467  0.33131615  0.37137177  1
  In  In33  1  0.82387158  0.33036353  0.87691202  1
  In  In34  1  0.82203616  0.65683577  0.36591585  1
  In  In35  1  0.83445389  0.67023307  0.87114960  1
  In  In36  1  -0.01617130  0.15432578  0.36056245  1
  In  In37  1  -0.00151858  0.16666645  0.89463429  1
  In  In38  1  -0.01264381  0.48496188  0.36623349  1
  In  In39  1  -0.00966415  0.51107840  0.87709949  1
  In  In40  1  -0.01815872  0.82142342  0.34886038  1
  In  In41  1  -0.00032819  0.82583034  0.88162386  1
  In  In42  1  0.34988225  0.16389068  0.37538748  1
  In  In43  1  0.33678804  0.17341752  0.88043118  1
  In  In44  1  0.34588059  0.49549803  0.37836034  1
  In  In45  1  0.36935529  0.52442830  0.84606022  1
  In  In46  1  0.32782715  0.83334731  0.37613700  1
  In  In47  1  0.34736202  0.83415411  0.87395341  1
  In  In48  1  0.66144292  0.16689803  0.37174290  1
  In  In49  1  0.66643424  0.16250071  0.87816404  1
  In  In50  1  0.68008169  0.51315315  0.36923678  1
  In  In51  1  0.64815299  0.48470815  0.85588846  1
  In  In52  1  0.67401016  0.83524129  0.36258875  1
  In  In53  1  0.66585337  0.83609916  0.86996817  1
  In  In54  1  0.15622290  0.01527087  0.12963892  1
  In  In55  1  0.17226599  -0.00529167  0.61991150  1
  In  In56  1  0.16662402  0.32080204  0.12281300  1
  In  In57  1  0.16190741  0.34285416  0.62721081  1
  In  In58  1  0.15995892  0.66296182  0.12283962  1
  In  In59  1  0.16937807  0.65574102  0.63497307  1
  In  In60  1  0.50072650  0.00033220  0.12563884  1
  In  In61  1  0.50640505  0.00954386  0.62344820  1
  In  In62  1  0.50890027  0.33934647  0.11569085  1
  In  In63  1  0.51662516  0.32878096  0.64492393  1
  In  In64  1  0.51590594  0.67826607  0.10985833  1
  In  In65  1  0.50721771  0.66006808  0.64533320  1
  In  In66  1  0.82500141  -0.00243665  0.12424191  1
  In  In67  1  0.81621983  0.00010661  0.61731067  1
  In  In68  1  0.84158072  0.32115842  0.13203382  1
  In  In69  1  0.81431065  0.31930947  0.61380219  1
  In  In70  1  0.81272694  0.69183043  0.14354045  1
  In  In71  1  0.83873108  0.66695175  0.62785445  1
  In  In72  1  0.50692735  0.83331951  0.50666813  1
  In  In73  1  0.82448571  0.50227268  -0.00524658  1
  In  In74  1  0.32992178  0.32579243  0.25119632  1
  In  In75  1  0.16282052  0.50066154  0.50907163  1
  In  In76  1  0.16433493  0.16482301  0.49433582  1
  In  In77  1  0.17339099  0.49277186  -0.00011228  1
  In  In78  1  0.82736786  0.83335205  0.48798344  1
  In  In79  1  0.16333825  0.83834544  0.00360999  1
  In  In80  1  0.50553466  0.50042153  0.51228490  1
  In  In81  1  -0.00424299  -0.00478256  0.75583589  1
  In  In82  1  -0.00479242  0.34011672  0.75517613  1
  In  In83  1  0.33726570  0.66345195  0.25500640  1
  In  In84  1  0.34091113  -0.00039630  0.75408026  1
  In  In85  1  0.16532829  0.83593169  0.49151450  1
  Cu  Cu86  1  0.33638758  0.00446699  -0.00014481  1
  Cu  Cu87  1  0.17276040  0.83268196  0.24728650  1
  Cu  Cu88  1  0.83319338  0.50203309  0.74991605  1
  Cu  Cu89  1  0.66584562  0.66751585  -0.00436824  1
  Cu  Cu90  1  -0.00511475  0.00438698  0.48852294  1
  Cu  Cu91  1  0.17056230  0.16795699  0.75726441  1
  Cu  Cu92  1  0.50302094  0.83316701  0.24376194  1
  Cu  Cu93  1  0.16033263  0.82686414  0.75483563  1
  Cu  Cu94  1  0.50160750  0.16520466  0.24587304  1
  Cu  Cu95  1  0.34507102  -0.00160048  0.49502591  1
  Cu  Cu96  1  0.66250358  -0.00449144  0.00278999  1
  Cu  Cu97  1  -0.02058621  0.32941386  0.49093171  1
  Cu  Cu98  1  0.66107585  0.33613935  0.50117159  1
  Cu  Cu99  1  0.82677465  0.17206874  0.24548506  1
  Cu  Cu100  1  0.00164142  0.66110282  0.49929627  1
  Cu  Cu101  1  0.34085369  0.66324253  -0.01096576  1
  Cu  Cu102  1  0.50641769  0.16533940  0.75578902  1
  Cu  Cu103  1  0.83144894  0.83201221  0.74962567  1
  Cu  Cu104  1  0.16386242  0.16672542  0.24599417  1
  Cu  Cu105  1  0.16634965  0.49595628  0.75292701  1
  Cu  Cu106  1  0.50938937  0.50382132  0.24592489  1
  Cu  Cu107  1  0.34689345  0.34158732  -0.00465997  1
  Cu  Cu108  1  0.00460833  0.33353873  0.00944008  1
  Cu  Cu109  1  0.15994454  0.49926049  0.25192917  1
  Cu  Cu110  1  0.33352522  0.32511143  0.50862453  1
  Cu  Cu111  1  0.82596895  0.16304159  0.75171639  1
  Cu  Cu112  1  0.83072657  0.49518386  0.24914525  1
  Cu  Cu113  1  0.66935870  0.32584439  -0.00243007  1
  Cu  Cu114  1  -0.01270880  0.67560133  0.00722725  1
  Se  Se115  1  0.09212256  0.09219730  0.05080485  1
  Se  Se116  1  0.07303360  0.07478746  0.55719732  1
  Se  Se117  1  0.07587346  0.42208180  0.06714264  1
  Se  Se118  1  0.06264597  0.40386979  0.55473324  1
  Se  Se119  1  0.07214941  0.75290653  0.06396421  1
  Se  Se120  1  0.08226673  0.74230462  0.55861614  1
  Se  Se121  1  0.41945956  0.08516152  0.05534742  1
  Se  Se122  1  0.42495541  0.08368126  0.54823213  1
  Se  Se123  1  0.42797522  0.42690160  0.04783826  1
  Se  Se124  1  0.41395015  0.40569099  0.56736515  1
  Se  Se125  1  0.41886499  0.74972182  0.04520130  1
  Se  Se126  1  0.42147509  0.73625376  0.56299306  1
  Se  Se127  1  0.74633362  0.08170075  0.05331337  1
  Se  Se128  1  0.75264924  0.10059144  0.55568016  1
  Se  Se129  1  0.74905485  0.40667497  0.05961353  1
  Se  Se130  1  0.74482613  0.42195890  0.55302374  1
  Se  Se131  1  0.74713833  0.74736198  0.05382715  1
  Se  Se132  1  0.74888201  0.75561634  0.56338206  1
  Se  Se133  1  0.25846875  0.26282869  0.04885750  1
  Se  Se134  1  0.24895603  0.24651061  0.56580139  1
  Se  Se135  1  0.26264876  0.59205765  0.05665320  1
  Se  Se136  1  0.26135421  0.58462253  0.56300545  1
  Se  Se137  1  0.25673721  0.92504450  0.06280177  1
  Se  Se138  1  0.26671408  0.91667707  0.55512811  1
  Se  Se139  1  0.58286047  0.24541881  0.05063982  1
  Se  Se140  1  0.57965199  0.25812275  0.56053203  1
  Se  Se141  1  0.58585655  0.57814279  0.04678594  1
  Se  Se142  1  0.59393609  0.59787421  0.56355665  1
  Se  Se143  1  0.57839498  0.91251687  0.05588467  1
  Se  Se144  1  0.59974785  0.92856350  0.55721961  1
  Se  Se145  1  0.91554004  0.24818530  0.05369758  1
  Se  Se146  1  0.90374774  0.24180930  0.54567297  1
  Se  Se147  1  0.90356438  0.59214776  0.06199290  1
  Se  Se148  1  0.91302997  0.58406862  0.55170885  1
  Se  Se149  1  0.91204671  0.91400308  0.05790090  1
  Se  Se150  1  0.92178583  0.92145399  0.55388620  1
  Se  Se151  1  0.06944196  0.25225167  0.43588969  1
  Se  Se152  1  0.08917364  0.25473924  0.95279722  1
  Se  Se153  1  0.07979014  0.58190237  0.43715864  1
  Se  Se154  1  0.07151362  0.59102839  0.95366653  1
  Se  Se155  1  0.06611255  0.91508327  0.43089701  1
  Se  Se156  1  0.07122176  0.92856275  0.94601367  1
  Se  Se157  1  0.41684214  0.24665943  0.45224972  1
  Se  Se158  1  0.42641528  0.24988177  0.94794089  1
  Se  Se159  1  0.41150863  0.58948020  0.44888102  1
  Se  Se160  1  0.42633123  0.58196078  0.93777314  1
  Se  Se161  1  0.42299694  0.91742719  0.43593120  1
  Se  Se162  1  0.41624889  0.91450880  0.95046701  1
  Se  Se163  1  0.74031254  0.25336113  0.44282801  1
  Se  Se164  1  0.75572219  0.24199664  0.94803944  1
  Se  Se165  1  0.74503409  0.59448991  0.44620474  1
  Se  Se166  1  0.73536845  0.58419016  0.93003604  1
  Se  Se167  1  0.73772899  0.93152084  0.43762542  1
  Se  Se168  1  0.74486152  0.91271732  0.94732061  1
  Se  Se169  1  0.25362174  0.06968228  0.43704824  1
  Se  Se170  1  0.25300152  0.09028472  0.94988689  1
  Se  Se171  1  0.25983002  0.40923530  0.44891878  1
  Se  Se172  1  0.26881970  0.42240697  0.93417304  1
  Se  Se173  1  0.26686622  0.73710558  0.45158869  1
  Se  Se174  1  0.25053775  0.74516726  0.94032528  1
  Se  Se175  1  0.57005972  0.09322038  0.44065504  1
  Se  Se176  1  0.58243547  0.08494890  0.95101949  1
  Se  Se177  1  0.58549127  0.41819977  0.43865938  1
  Se  Se178  1  0.59114298  0.41453425  0.94360562  1
  Se  Se179  1  0.59714985  0.75007449  0.44033994  1
  Se  Se180  1  0.58382800  0.75329460  0.94167791  1
  Se  Se181  1  0.90753597  0.08624672  0.44027050  1
  Se  Se182  1  0.92231149  0.07576702  0.95707270  1
  Se  Se183  1  0.90198397  0.42064610  0.44208720  1
  Se  Se184  1  0.92557584  0.40831744  0.94374517  1
  Se  Se185  1  0.92604586  0.74286230  0.43625232  1
  Se  Se186  1  0.90633447  0.75139232  0.94775291  1
  Se  Se187  1  0.23905262  0.23948302  0.31595524  1
  Se  Se188  1  0.25703921  0.25107902  0.80489345  1
  Se  Se189  1  0.24447474  0.57101887  0.31461615  1
  Se  Se190  1  0.24564042  0.58480952  0.80384550  1
  Se  Se191  1  0.25634634  0.91451873  0.30156327  1
  Se  Se192  1  0.24017659  0.91251175  0.81100955  1
  Se  Se193  1  0.57878405  0.25232007  0.30122326  1
  Se  Se194  1  0.58963003  0.24964668  0.80800658  1
  Se  Se195  1  0.58764480  0.58945105  0.30092621  1
  Se  Se196  1  0.58621098  0.58900221  0.79606820  1
  Se  Se197  1  0.58767389  0.91713308  0.29618744  1
  Se  Se198  1  0.58193901  0.91948550  0.80180751  1
  Se  Se199  1  0.91118410  0.25429935  0.30038440  1
  Se  Se200  1  0.91478159  0.23696961  0.81210902  1
  Se  Se201  1  0.91626390  0.58064133  0.30094190  1
  Se  Se202  1  0.91761296  0.58587952  0.80097635  1
  Se  Se203  1  0.91983485  0.92908662  0.29361227  1
  Se  Se204  1  0.90567993  0.91057013  0.81656097  1
  Se  Se205  1  0.07959758  0.08027041  0.29692059  1
  Se  Se206  1  0.08596759  0.09049204  0.81351340  1
  Se  Se207  1  0.07972376  0.40864670  0.29967871  1
  Se  Se208  1  0.08886525  0.42184485  0.81929151  1
  Se  Se209  1  0.09198099  0.74616122  0.30018526  1
  Se  Se210  1  0.07681289  0.74532558  0.80837114  1
  Se  Se211  1  0.41288451  0.08341023  0.29639834  1
  Se  Se212  1  0.42807924  0.08441460  0.81767667  1
  Se  Se213  1  0.42770699  0.42063450  0.30319230  1
  Se  Se214  1  0.40948904  0.39839440  0.80175864  1
  Se  Se215  1  0.42951429  0.75517316  0.31236325  1
  Se  Se216  1  0.40814055  0.74367932  0.80331043  1
  Se  Se217  1  0.74633868  0.08804918  0.30108336  1
  Se  Se218  1  0.74909026  0.07763794  0.80790636  1
  Se  Se219  1  0.74294906  0.41530360  0.30098748  1
  Se  Se220  1  0.75591390  0.41177673  0.80111695  1
  Se  Se221  1  0.77114113  0.76293550  0.30033381  1
  Se  Se222  1  0.74840380  0.74875852  0.80258277  1
  Se  Se223  1  0.25362190  0.08703961  0.19566185  1
  Se  Se224  1  0.24416316  0.08637513  0.69243084  1
  Se  Se225  1  0.24396260  0.42353641  0.19179982  1
  Se  Se226  1  0.24725348  0.41198854  0.69941149  1
  Se  Se227  1  0.25201422  0.75062506  0.18779902  1
  Se  Se228  1  0.24553673  0.74988626  0.69830188  1
  Se  Se229  1  0.58622184  0.08141705  0.19427833  1
  Se  Se230  1  0.58616984  0.08444888  0.69763381  1
  Se  Se231  1  0.58557038  0.41648105  0.19112286  1
  Se  Se232  1  0.57214206  0.43842437  0.70328480  1
  Se  Se233  1  0.58473303  0.74647981  0.19261636  1
  Se  Se234  1  0.58351926  0.75548010  0.70595116  1
  Se  Se235  1  0.90829859  0.08773463  0.19097823  1
  Se  Se236  1  0.91136135  0.08753544  0.69104964  1
  Se  Se237  1  0.91798172  0.41338253  0.19814443  1
  Se  Se238  1  0.90690472  0.41657722  0.68620632  1
  Se  Se239  1  0.94090679  0.72787237  0.18939024  1
  Se  Se240  1  0.91937159  0.74804590  0.70127996  1
  Se  Se241  1  0.07993239  0.24762068  0.19221058  1
  Se  Se242  1  0.08611311  0.24337637  0.69552032  1
  Se  Se243  1  0.08413515  0.58796591  0.19908829  1
  Se  Se244  1  0.07932092  0.57798750  0.70072278  1
  Se  Se245  1  0.08944697  0.91615902  0.19509289  1
  Se  Se246  1  0.08883014  0.90843762  0.68993464  1
  Se  Se247  1  0.42057009  0.24728628  0.18569862  1
  Se  Se248  1  0.41865496  0.24454960  0.70138695  1
  Se  Se249  1  0.42634821  0.58353195  0.18717707  1
  Se  Se250  1  0.40400718  0.59274293  0.70633766  1
  Se  Se251  1  0.41588589  0.91708015  0.19624139  1
  Se  Se252  1  0.42857849  0.91255451  0.69149089  1
  Se  Se253  1  0.73992126  0.25521834  0.19528524  1
  Se  Se254  1  0.74953618  0.25399554  0.69988238  1
  Se  Se255  1  0.74736123  0.58074268  0.19759992  1
  Se  Se256  1  0.75288077  0.58518846  0.69478845  1
  Se  Se257  1  0.76108532  0.90156723  0.19500235  1
  Se  Se258  1  0.75410456  0.92155760  0.69782509  1
