# generated using pymatgen
data_In86Cu29Se144
_symmetry_space_group_name_H-M   'P 1'
_cell_length_a   17.58104235
_cell_length_b   17.58069583
_cell_length_c   23.42727242
_cell_angle_alpha   90.01741230
_cell_angle_beta   89.97685865
_cell_angle_gamma   89.99324741
_symmetry_Int_Tables_number   1
_chemical_formula_structural   In86Cu29Se144
_chemical_formula_sum   'In86 Cu29 Se144'
_cell_volume   7241.06338837
_cell_formula_units_Z   1
loop_
 _symmetry_equiv_pos_site_id
 _symmetry_equiv_pos_as_xyz
  1  'x, y, z'
loop_
 _atom_site_type_symbol
 _atom_site_label
 _atom_site_symmetry_multiplicity
 _atom_site_fract_x
 _atom_site_fract_y
 _atom_site_fract_z
 _atom_site_occupancy
  In  In0  1  -0.00379469  0.16922224  0.12668143  1
  In  In1  1  -0.01089002  0.16626209  0.62326467  1
  In  In2  1  -0.02154117  0.50624443  0.14166187  1
  In  In3  1  -0.02057954  0.50816071  0.62185134  1
  In  In4  1  -0.00679934  0.85104190  0.13654041  1
  In  In5  1  0.00850609  0.83703123  0.62398694  1
  In  In6  1  0.33436130  0.16518191  0.13046163  1
  In  In7  1  0.33569906  0.15982561  0.62682027  1
  In  In8  1  0.32935234  0.50149681  0.13290085  1
  In  In9  1  0.33036178  0.49318463  0.62497944  1
  In  In10  1  0.33494565  0.83632821  0.13185382  1
  In  In11  1  0.34562617  0.83662614  0.62284973  1
  In  In12  1  0.65496649  0.15606839  0.11655835  1
  In  In13  1  0.66779850  0.17262735  0.61548985  1
  In  In14  1  0.68601184  0.50635745  0.12908501  1
  In  In15  1  0.68285420  0.49989821  0.62734251  1
  In  In16  1  0.66495379  0.83344594  0.12635259  1
  In  In17  1  0.65299460  0.83540553  0.62616260  1
  In  In18  1  0.17005286  0.00677362  0.35011063  1
  In  In19  1  0.17641853  0.00943364  0.87308118  1
  In  In20  1  0.17348829  0.32243223  0.35987560  1
  In  In21  1  0.16854925  0.31578479  0.88011198  1
  In  In22  1  0.16277662  0.66659209  0.35829125  1
  In  In23  1  0.16499377  0.66954186  0.87953887  1
  In  In24  1  0.50288914  -0.00108608  0.37392021  1
  In  In25  1  0.49259901  0.00688046  0.88507595  1
  In  In26  1  0.48418498  0.32532274  0.37707215  1
  In  In27  1  0.48735562  0.33212356  0.87386462  1
  In  In28  1  0.51223768  0.67363200  0.37150972  1
  In  In29  1  0.51611911  0.66508323  0.87801804  1
  In  In30  1  0.84028157  0.00986835  0.36401569  1
  In  In31  1  0.84262896  -0.00446932  0.88177787  1
  In  In32  1  0.83834065  0.32956534  0.37679714  1
  In  In33  1  0.83284802  0.33341502  0.88586998  1
  In  In34  1  0.83600172  0.66340401  0.36667338  1
  In  In35  1  0.82736574  0.66762143  0.88188347  1
  In  In36  1  -0.00570141  0.15714768  0.36236584  1
  In  In37  1  0.01364882  0.16313220  0.88770346  1
  In  In38  1  -0.00753453  0.49762232  0.36493343  1
  In  In39  1  -0.00248907  0.49146851  0.87957324  1
  In  In40  1  0.00221098  0.83373186  0.35755012  1
  In  In41  1  -0.01453994  0.83558773  0.88274725  1
  In  In42  1  0.34438404  0.16977468  0.36630563  1
  In  In43  1  0.33645445  0.16391746  0.87815235  1
  In  In44  1  0.32796213  0.49074981  0.36619360  1
  In  In45  1  0.35273916  0.49180811  0.87201151  1
  In  In46  1  0.33978812  0.84652821  0.36338055  1
  In  In47  1  0.32994861  0.85026843  0.88122784  1
  In  In48  1  0.67493516  0.16020368  0.37840536  1
  In  In49  1  0.66860933  0.16395709  0.88663421  1
  In  In50  1  0.67369726  0.51618803  0.37024323  1
  In  In51  1  0.66786459  0.51211136  0.87094920  1
  In  In52  1  0.65857479  0.82795311  0.37100376  1
  In  In53  1  0.67528391  0.82430423  0.88459592  1
  In  In54  1  0.14785290  0.02730263  0.15029681  1
  In  In55  1  0.16578811  0.00440347  0.62999979  1
  In  In56  1  0.16836939  0.31708401  0.13738043  1
  In  In57  1  0.17214527  0.33855366  0.62378862  1
  In  In58  1  0.15824896  0.68616440  0.14655786  1
  In  In59  1  0.16569354  0.66640371  0.61879172  1
  In  In60  1  0.50147637  -0.00113814  0.12698011  1
  In  In61  1  0.49333053  -0.00922732  0.62001523  1
  In  In62  1  0.50076094  0.32004706  0.12276259  1
  In  In63  1  0.49842575  0.31995724  0.62075718  1
  In  In64  1  0.48826531  0.67849107  0.13260415  1
  In  In65  1  0.50067438  0.68182551  0.62295271  1
  In  In66  1  0.82831652  -0.00364804  0.12342847  1
  In  In67  1  0.83372205  0.01177422  0.62566910  1
  In  In68  1  0.84406997  0.34154205  0.12262489  1
  In  In69  1  0.83307211  0.33580351  0.61691214  1
  In  In70  1  0.82592411  0.66824495  0.13057700  1
  In  In71  1  0.83240847  0.64608664  0.62262320  1
  In  In72  1  0.50719651  0.49858938  -0.00442191  1
  In  In73  1  0.16793169  0.16621372  0.48828191  1
  In  In74  1  0.83059693  0.83388441  0.48727730  1
  In  In75  1  0.66325952  -0.00185537  0.75250075  1
  In  In76  1  0.16499567  0.49309523  0.01190269  1
  In  In77  1  0.66846686  0.33423952  0.24810321  1
  In  In78  1  0.50557140  0.49697728  0.50026066  1
  In  In79  1  0.16612414  0.83205767  0.48503482  1
  In  In80  1  0.16571751  0.84647505  0.01864486  1
  In  In81  1  0.33695927  0.66947868  0.74516304  1
  In  In82  1  -0.00204789  0.66897451  0.74842223  1
  In  In83  1  0.16135890  0.49163488  0.48220620  1
  In  In84  1  0.66296621  0.33801980  0.75254363  1
  In  In85  1  0.00464121  0.33048683  0.74489509  1
  Cu  Cu86  1  0.33290874  0.67343887  0.01094445  1
  Cu  Cu87  1  0.66331893  0.00672998  0.49971639  1
  Cu  Cu88  1  0.33844682  0.66439763  0.49576586  1
  Cu  Cu89  1  -0.00522770  0.00260993  0.49009608  1
  Cu  Cu90  1  0.16467115  0.49461107  0.24686411  1
  Cu  Cu91  1  0.50056640  0.16140981  0.24701746  1
  Cu  Cu92  1  0.84050834  0.16808604  0.75168975  1
  Cu  Cu93  1  0.33433176  0.00782376  0.00596995  1
  Cu  Cu94  1  0.67224275  0.67215996  0.49456534  1
  Cu  Cu95  1  0.66712086  0.66873003  0.00519794  1
  Cu  Cu96  1  0.33797082  -0.00347345  0.49694716  1
  Cu  Cu97  1  0.00065229  0.00235038  0.00850778  1
  Cu  Cu98  1  0.33197405  0.32602505  0.00257771  1
  Cu  Cu99  1  0.83056337  0.82974008  0.75876132  1
  Cu  Cu100  1  0.16341655  0.84603188  0.75024034  1
  Cu  Cu101  1  0.50382251  0.83712901  0.24923936  1
  Cu  Cu102  1  0.67262840  0.32952787  0.00524550  1
  Cu  Cu103  1  0.17515253  0.15970676  0.75636018  1
  Cu  Cu104  1  0.82875038  0.16367467  0.24441969  1
  Cu  Cu105  1  -0.00558721  0.33615441  0.49584744  1
  Cu  Cu106  1  0.49332850  0.16070335  0.74979276  1
  Cu  Cu107  1  -0.01158148  0.66352252  0.00816218  1
  Cu  Cu108  1  0.17551042  0.49674478  0.74821163  1
  Cu  Cu109  1  -0.00286697  0.33361113  0.00737825  1
  Cu  Cu110  1  0.82776203  0.83567606  0.24854210  1
  Cu  Cu111  1  0.49839169  0.83551805  0.75118701  1
  Cu  Cu112  1  0.66863927  0.33510594  0.49654553  1
  Cu  Cu113  1  0.66678031  -0.00687055  0.00320360  1
  Cu  Cu114  1  0.50050156  0.49726304  0.25447033  1
  Se  Se115  1  0.08550256  0.08512898  0.06033507  1
  Se  Se116  1  0.07754133  0.07819683  0.55284185  1
  Se  Se117  1  0.07211960  0.41245372  0.07295391  1
  Se  Se118  1  0.07331529  0.41435545  0.55834015  1
  Se  Se119  1  0.07221984  0.74562268  0.06388961  1
  Se  Se120  1  0.07609785  0.74424618  0.55020429  1
  Se  Se121  1  0.42066514  0.08870978  0.05989740  1
  Se  Se122  1  0.41551750  0.08100132  0.55376377  1
  Se  Se123  1  0.41063536  0.41472627  0.05779234  1
  Se  Se124  1  0.40820971  0.40761001  0.55298689  1
  Se  Se125  1  0.41804906  0.76058864  0.05649817  1
  Se  Se126  1  0.41613281  0.75208512  0.54880033  1
  Se  Se127  1  0.75011928  0.08098904  0.05213580  1
  Se  Se128  1  0.75246179  0.08471687  0.55219037  1
  Se  Se129  1  0.75185681  0.41817814  0.05520430  1
  Se  Se130  1  0.75094343  0.42038769  0.54949258  1
  Se  Se131  1  0.75140707  0.75268211  0.05704876  1
  Se  Se132  1  0.74804578  0.75195210  0.56012678  1
  Se  Se133  1  0.24978830  0.24785258  0.06001029  1
  Se  Se134  1  0.25286889  0.25064441  0.55589593  1
  Se  Se135  1  0.24751083  0.59504650  0.06616023  1
  Se  Se136  1  0.25391328  0.58318504  0.55028566  1
  Se  Se137  1  0.25297008  0.94090964  0.07408477  1
  Se  Se138  1  0.25017070  0.91985863  0.55511392  1
  Se  Se139  1  0.58004816  0.24729833  0.04782239  1
  Se  Se140  1  0.58280104  0.25066044  0.54625215  1
  Se  Se141  1  0.58490518  0.58766240  0.06446838  1
  Se  Se142  1  0.59283775  0.59250636  0.55832946  1
  Se  Se143  1  0.58019445  0.91356976  0.05609490  1
  Se  Se144  1  0.58375004  0.91733847  0.55076753  1
  Se  Se145  1  0.91146535  0.24593740  0.05398790  1
  Se  Se146  1  0.91585675  0.24951818  0.55115647  1
  Se  Se147  1  0.90762523  0.57974560  0.06142339  1
  Se  Se148  1  0.92319449  0.59531193  0.54601621  1
  Se  Se149  1  0.91646506  0.91446841  0.05482255  1
  Se  Se150  1  0.92014247  0.92215384  0.55404727  1
  Se  Se151  1  0.07315408  0.25761020  0.43420469  1
  Se  Se152  1  0.08702633  0.25237940  0.95795210  1
  Se  Se153  1  0.07692422  0.59303499  0.43384389  1
  Se  Se154  1  0.07600795  0.58955304  0.94873170  1
  Se  Se155  1  0.07876800  0.92944641  0.42979016  1
  Se  Se156  1  0.08116179  0.92370326  0.94389658  1
  Se  Se157  1  0.41248407  0.24021409  0.44768549  1
  Se  Se158  1  0.41924728  0.24773783  0.94826489  1
  Se  Se159  1  0.41446075  0.58058372  0.43524698  1
  Se  Se160  1  0.40680449  0.59340076  0.94542346  1
  Se  Se161  1  0.41938207  0.91262983  0.44277603  1
  Se  Se162  1  0.41454320  0.91913472  0.95480893  1
  Se  Se163  1  0.75274421  0.24947318  0.44542568  1
  Se  Se164  1  0.75622840  0.24417405  0.95234870  1
  Se  Se165  1  0.75634980  0.58857032  0.44427768  1
  Se  Se166  1  0.74547121  0.58135935  0.94955369  1
  Se  Se167  1  0.74191536  0.93060831  0.43442890  1
  Se  Se168  1  0.75433232  0.91546296  0.94790603  1
  Se  Se169  1  0.25483844  0.06878710  0.43335794  1
  Se  Se170  1  0.24955407  0.08699638  0.94930388  1
  Se  Se171  1  0.25846659  0.39519552  0.43851208  1
  Se  Se172  1  0.25783820  0.41381041  0.94278340  1
  Se  Se173  1  0.25958327  0.73992696  0.43152919  1
  Se  Se174  1  0.24952868  0.75189844  0.95016843  1
  Se  Se175  1  0.57948366  0.08748573  0.44438203  1
  Se  Se176  1  0.58390626  0.08085471  0.95199663  1
  Se  Se177  1  0.59127698  0.41212769  0.43221792  1
  Se  Se178  1  0.59541705  0.40471882  0.93702318  1
  Se  Se179  1  0.58187828  0.75428334  0.44912724  1
  Se  Se180  1  0.58151651  0.75109047  0.95252138  1
  Se  Se181  1  0.91233383  0.08985605  0.44098009  1
  Se  Se182  1  0.91963325  0.08404804  0.94993067  1
  Se  Se183  1  0.91530449  0.42297112  0.44260731  1
  Se  Se184  1  0.91654501  0.41862630  0.95280560  1
  Se  Se185  1  0.92885607  0.74928253  0.43415493  1
  Se  Se186  1  0.91137152  0.74864344  0.95120001  1
  Se  Se187  1  0.24055542  0.22304936  0.29697206  1
  Se  Se188  1  0.25489094  0.24851354  0.80702498  1
  Se  Se189  1  0.25097622  0.57776707  0.29883005  1
  Se  Se190  1  0.24730002  0.58061726  0.81108976  1
  Se  Se191  1  0.24076959  0.90345881  0.29399978  1
  Se  Se192  1  0.25282425  0.92078942  0.80379958  1
  Se  Se193  1  0.57872694  0.24413057  0.30917469  1
  Se  Se194  1  0.57987222  0.23628013  0.80910165  1
  Se  Se195  1  0.58499668  0.58588851  0.29971492  1
  Se  Se196  1  0.56282552  0.56623620  0.80626888  1
  Se  Se197  1  0.58777871  0.92014585  0.30276419  1
  Se  Se198  1  0.57775236  0.91035118  0.81659900  1
  Se  Se199  1  0.90835228  0.24701436  0.30091322  1
  Se  Se200  1  0.91833963  0.24754698  0.81332819  1
  Se  Se201  1  0.92857821  0.59497878  0.29756998  1
  Se  Se202  1  0.91438222  0.57823584  0.81139540  1
  Se  Se203  1  0.91620672  0.92115664  0.29576895  1
  Se  Se204  1  0.91704220  0.91582327  0.80510162  1
  Se  Se205  1  0.07245957  0.07948320  0.28996161  1
  Se  Se206  1  0.08169511  0.08523992  0.80806497  1
  Se  Se207  1  0.08456970  0.41282030  0.30395765  1
  Se  Se208  1  0.09467622  0.41954652  0.81000229  1
  Se  Se209  1  0.08956793  0.75600409  0.29147289  1
  Se  Se210  1  0.08886099  0.76059481  0.81009467  1
  Se  Se211  1  0.41885007  0.07616367  0.30133435  1
  Se  Se212  1  0.41509523  0.07755037  0.80708112  1
  Se  Se213  1  0.41648639  0.40883630  0.30110309  1
  Se  Se214  1  0.42241315  0.41319100  0.79711394  1
  Se  Se215  1  0.42336210  0.75169275  0.30462012  1
  Se  Se216  1  0.41784776  0.75680262  0.81450163  1
  Se  Se217  1  0.74384449  0.08315323  0.29890296  1
  Se  Se218  1  0.75628136  0.08901053  0.80979448  1
  Se  Se219  1  0.75798735  0.42307755  0.30746696  1
  Se  Se220  1  0.76108993  0.42107874  0.80995270  1
  Se  Se221  1  0.74893014  0.75105141  0.30486511  1
  Se  Se222  1  0.74652513  0.74466472  0.80742193  1
  Se  Se223  1  0.24805910  0.10175975  0.20874253  1
  Se  Se224  1  0.25527877  0.07800237  0.69797036  1
  Se  Se225  1  0.25161341  0.41083156  0.19786113  1
  Se  Se226  1  0.25604228  0.40968114  0.69788990  1
  Se  Se227  1  0.27954537  0.72896381  0.19621336  1
  Se  Se228  1  0.23945510  0.76151685  0.68893512  1
  Se  Se229  1  0.58772082  0.08003968  0.19671326  1
  Se  Se230  1  0.58026380  0.08918648  0.68774386  1
  Se  Se231  1  0.57739330  0.42329001  0.18603886  1
  Se  Se232  1  0.57782775  0.41938462  0.68373011  1
  Se  Se233  1  0.58509438  0.74928333  0.19755316  1
  Se  Se234  1  0.58244056  0.75069281  0.70045484  1
  Se  Se235  1  0.91271736  0.07926054  0.19170987  1
  Se  Se236  1  0.92097412  0.08163679  0.69878919  1
  Se  Se237  1  0.91340985  0.40559200  0.20596357  1
  Se  Se238  1  0.90540752  0.42198442  0.69581809  1
  Se  Se239  1  0.91397785  0.75441547  0.19571386  1
  Se  Se240  1  0.90773325  0.75813176  0.68777234  1
  Se  Se241  1  0.06535532  0.25618888  0.20027310  1
  Se  Se242  1  0.09695297  0.23575284  0.68911796  1
  Se  Se243  1  0.08060603  0.58223859  0.19931794  1
  Se  Se244  1  0.09040362  0.57286155  0.68968522  1
  Se  Se245  1  0.11209681  0.89647038  0.19199685  1
  Se  Se246  1  0.07688578  0.92404926  0.69622607  1
  Se  Se247  1  0.41926836  0.25164561  0.19824121  1
  Se  Se248  1  0.41572170  0.24768495  0.69517916  1
  Se  Se249  1  0.41915832  0.57991176  0.19788972  1
  Se  Se250  1  0.42474482  0.57857523  0.68571131  1
  Se  Se251  1  0.41765857  0.92141563  0.19902586  1
  Se  Se252  1  0.41524268  0.91886969  0.69843390  1
  Se  Se253  1  0.74927249  0.24331623  0.18292791  1
  Se  Se254  1  0.75707714  0.24550495  0.69263094  1
  Se  Se255  1  0.75159089  0.58633455  0.20522591  1
  Se  Se256  1  0.74753759  0.58834706  0.69992326  1
  Se  Se257  1  0.74437961  0.91934759  0.19573659  1
  Se  Se258  1  0.75658597  0.91004559  0.69199390  1
