# generated using pymatgen
data_In86Cu29Se144
_symmetry_space_group_name_H-M   'P 1'
_cell_length_a   17.62960104
_cell_length_b   17.62819057
_cell_length_c   23.49345642
_cell_angle_alpha   89.95724697
_cell_angle_beta   90.00628712
_cell_angle_gamma   89.95954264
_symmetry_Int_Tables_number   1
_chemical_formula_structural   In86Cu29Se144
_chemical_formula_sum   'In86 Cu29 Se144'
_cell_volume   7301.24472164
_cell_formula_units_Z   1
loop_
 _symmetry_equiv_pos_site_id
 _symmetry_equiv_pos_as_xyz
  1  'x, y, z'
loop_
 _atom_site_type_symbol
 _atom_site_label
 _atom_site_symmetry_multiplicity
 _atom_site_fract_x
 _atom_site_fract_y
 _atom_site_fract_z
 _atom_site_occupancy
  In  In0  1  -0.01253477  0.16702262  0.12220195  1
  In  In1  1  0.00261050  0.14417079  0.61893497  1
  In  In2  1  0.00784556  0.50693475  0.12169610  1
  In  In3  1  0.01402640  0.51435758  0.61793631  1
  In  In4  1  0.00583726  0.82018273  0.13204504  1
  In  In5  1  -0.00145328  0.84664447  0.63978349  1
  In  In6  1  0.34520554  0.16635428  0.12974877  1
  In  In7  1  0.32143588  0.15915871  0.61271325  1
  In  In8  1  0.32912670  0.50145442  0.13196661  1
  In  In9  1  0.33432160  0.51138825  0.62244899  1
  In  In10  1  0.31458209  0.82397389  0.11907561  1
  In  In11  1  0.33484848  0.82956465  0.63485582  1
  In  In12  1  0.66693347  0.15344703  0.12918283  1
  In  In13  1  0.66408624  0.17814548  0.62875739  1
  In  In14  1  0.66920552  0.49559368  0.11912143  1
  In  In15  1  0.65993507  0.49332519  0.62065481  1
  In  In16  1  0.67697916  0.84012959  0.12718920  1
  In  In17  1  0.68317690  0.83956370  0.61877020  1
  In  In18  1  0.16269627  0.01119344  0.37651203  1
  In  In19  1  0.14769058  -0.02561086  0.84459871  1
  In  In20  1  0.17669278  0.33032149  0.37921702  1
  In  In21  1  0.17990089  0.33640764  0.87811345  1
  In  In22  1  0.16153064  0.66375068  0.37397369  1
  In  In23  1  0.16023562  0.66578822  0.87413253  1
  In  In24  1  0.51485378  -0.00175406  0.38124658  1
  In  In25  1  0.49803586  -0.00408532  0.86483421  1
  In  In26  1  0.49177545  0.34750531  0.38373285  1
  In  In27  1  0.50866171  0.33679596  0.87424629  1
  In  In28  1  0.48644254  0.66330802  0.37454981  1
  In  In29  1  0.47245774  0.66869750  0.87678091  1
  In  In30  1  0.83086423  -0.00492886  0.37387549  1
  In  In31  1  0.84399345  0.01151775  0.86959195  1
  In  In32  1  0.84445225  0.34513576  0.37666469  1
  In  In33  1  0.82481907  0.33929548  0.87693610  1
  In  In34  1  0.84723379  0.65915088  0.37912425  1
  In  In35  1  0.83774054  0.65259437  0.87687818  1
  In  In36  1  0.01301142  0.16754744  0.37409648  1
  In  In37  1  -0.00338106  0.14383910  0.87711970  1
  In  In38  1  -0.01017969  0.51654524  0.38140243  1
  In  In39  1  -0.00556352  0.50882567  0.87818887  1
  In  In40  1  -0.00450674  0.82896263  0.37023167  1
  In  In41  1  0.01041021  0.83837529  0.86275601  1
  In  In42  1  0.32925173  0.17796123  0.38313983  1
  In  In43  1  0.34178393  0.16416995  0.87372936  1
  In  In44  1  0.33588813  0.50305459  0.37611392  1
  In  In45  1  0.31160486  0.52334215  0.89920195  1
  In  In46  1  0.33170803  0.81697044  0.37254148  1
  In  In47  1  0.28814873  0.80281261  0.82328239  1
  In  In48  1  0.66996895  0.14750234  0.38491642  1
  In  In49  1  0.66920788  0.17516655  0.86523190  1
  In  In50  1  0.67188976  0.49910551  0.38171346  1
  In  In51  1  0.67046587  0.49375751  0.87873805  1
  In  In52  1  0.66989729  0.85205160  0.37816649  1
  In  In53  1  0.65678218  0.83736397  0.86971616  1
  In  In54  1  0.16296515  -0.01953386  0.11863338  1
  In  In55  1  0.15996149  -0.00183620  0.63275393  1
  In  In56  1  0.16487858  0.35156322  0.12637043  1
  In  In57  1  0.17214543  0.33967513  0.61564910  1
  In  In58  1  0.16577346  0.66059042  0.12829438  1
  In  In59  1  0.17099666  0.66796631  0.64139365  1
  In  In60  1  0.50309976  0.00751154  0.12791817  1
  In  In61  1  0.49842923  0.01017906  0.62344241  1
  In  In62  1  0.48736595  0.33290164  0.13374161  1
  In  In63  1  0.50446448  0.34355815  0.62231378  1
  In  In64  1  0.49345909  0.65110501  0.12392919  1
  In  In65  1  0.49687302  0.65393471  0.62474277  1
  In  In66  1  0.83117054  0.00201501  0.12828508  1
  In  In67  1  0.83939327  -0.00608395  0.62902610  1
  In  In68  1  0.84172336  0.33410869  0.11719107  1
  In  In69  1  0.82345977  0.33140962  0.62521289  1
  In  In70  1  0.84623840  0.66572960  0.12580019  1
  In  In71  1  0.84004313  0.67949780  0.61781901  1
  In  In72  1  0.66983290  0.67232903  0.24546393  1
  In  In73  1  0.66454390  0.66613593  0.74574736  1
  In  In74  1  0.83756448  0.83333932  0.00031435  1
  In  In75  1  0.00537235  0.33655966  0.24849110  1
  In  In76  1  0.16484299  0.16718241  -0.00149336  1
  In  In77  1  0.50156391  0.16923604  0.00173346  1
  In  In78  1  0.50033227  0.82805907  0.50617271  1
  In  In79  1  0.34579715  0.33648850  0.75119638  1
  In  In80  1  0.49149272  0.83034477  -0.00138199  1
  In  In81  1  0.66765886  0.32879911  0.26398240  1
  In  In82  1  -0.00322397  0.32999917  0.74647845  1
  In  In83  1  0.16354136  0.83062629  0.49854370  1
  In  In84  1  0.83786201  0.17006718  0.50123920  1
  In  In85  1  0.33197646  -0.00371721  0.24920053  1
  Cu  Cu86  1  0.16506755  0.50228588  0.75335380  1
  Cu  Cu87  1  0.83185247  0.49754437  0.75159467  1
  Cu  Cu88  1  0.83293055  0.83973652  0.25141558  1
  Cu  Cu89  1  0.66551137  0.33616806  0.50268923  1
  Cu  Cu90  1  0.49627023  0.49911647  0.25341877  1
  Cu  Cu91  1  0.00188633  0.67445644  0.50206307  1
  Cu  Cu92  1  0.67149966  0.00534048  -0.00110924  1
  Cu  Cu93  1  0.33195168  0.34425776  0.00850236  1
  Cu  Cu94  1  0.83259954  0.83287434  0.74751538  1
  Cu  Cu95  1  0.00511211  0.33910280  0.49660908  1
  Cu  Cu96  1  0.33719744  0.33981411  0.50099051  1
  Cu  Cu97  1  0.67081011  0.32917493  -0.00186098  1
  Cu  Cu98  1  0.00610068  0.66611715  0.00265332  1
  Cu  Cu99  1  0.66384621  0.65804349  -0.00138056  1
  Cu  Cu100  1  0.50478814  0.84160660  0.74470909  1
  Cu  Cu101  1  0.50061012  0.16345883  0.25572490  1
  Cu  Cu102  1  0.49753864  0.50111563  0.75237221  1
  Cu  Cu103  1  -0.00657183  0.33256871  -0.00337434  1
  Cu  Cu104  1  0.83187742  0.16491060  0.74671282  1
  Cu  Cu105  1  0.33293743  -0.00250478  0.49895828  1
  Cu  Cu106  1  0.50349702  0.16896282  0.74436213  1
  Cu  Cu107  1  0.32523267  -0.00817237  -0.00965290  1
  Cu  Cu108  1  0.66849346  0.66795076  0.50075537  1
  Cu  Cu109  1  0.16707477  0.16183156  0.74255506  1
  Cu  Cu110  1  0.16123956  0.82780634  0.24810233  1
  Cu  Cu111  1  0.83068434  0.16151950  0.24978024  1
  Cu  Cu112  1  0.16815724  0.50229388  0.25308073  1
  Cu  Cu113  1  0.16846548  0.16399586  0.25347647  1
  Cu  Cu114  1  0.49841983  0.83406776  0.25394985  1
  Se  Se115  1  0.07717600  0.07739354  0.05837961  1
  Se  Se116  1  0.09589415  0.07733987  0.55291991  1
  Se  Se117  1  0.07675434  0.41314411  0.05177501  1
  Se  Se118  1  0.08746997  0.42295345  0.55037173  1
  Se  Se119  1  0.08767801  0.74862236  0.05737690  1
  Se  Se120  1  0.07915599  0.74890748  0.56791037  1
  Se  Se121  1  0.40563680  0.07015731  0.05252944  1
  Se  Se122  1  0.41639697  0.08337270  0.54895609  1
  Se  Se123  1  0.41859620  0.42047565  0.06318610  1
  Se  Se124  1  0.41629522  0.42407016  0.55730073  1
  Se  Se125  1  0.40500873  0.73569278  0.05584389  1
  Se  Se126  1  0.40450636  0.73926133  0.55957896  1
  Se  Se127  1  0.75213675  0.08484511  0.05566029  1
  Se  Se128  1  0.75049480  0.08570898  0.56470231  1
  Se  Se129  1  0.75315607  0.41408119  0.05178964  1
  Se  Se130  1  0.75237755  0.41816300  0.55345140  1
  Se  Se131  1  0.74248746  0.74071520  0.05748704  1
  Se  Se132  1  0.75392859  0.75444167  0.54675154  1
  Se  Se133  1  0.25671547  0.25330702  0.06379966  1
  Se  Se134  1  0.24930928  0.25354031  0.54740194  1
  Se  Se135  1  0.24212878  0.57255665  0.06075794  1
  Se  Se136  1  0.23182608  0.58142500  0.56562246  1
  Se  Se137  1  0.24522198  0.90843609  0.04487519  1
  Se  Se138  1  0.25760239  0.91557526  0.56017460  1
  Se  Se139  1  0.59008178  0.25717936  0.06512086  1
  Se  Se140  1  0.58250197  0.25364647  0.55537755  1
  Se  Se141  1  0.58241471  0.57853126  0.05510124  1
  Se  Se142  1  0.58470772  0.58480989  0.55305573  1
  Se  Se143  1  0.58905142  0.92372420  0.05597102  1
  Se  Se144  1  0.59013039  0.92502353  0.55626049  1
  Se  Se145  1  0.91293149  0.24500421  0.04696056  1
  Se  Se146  1  0.93002758  0.25893643  0.56209009  1
  Se  Se147  1  0.91828562  0.58337696  0.05221027  1
  Se  Se148  1  0.91800393  0.58720853  0.55325813  1
  Se  Se149  1  0.92412391  0.91636021  0.06479369  1
  Se  Se150  1  0.92504113  0.91732645  0.56079713  1
  Se  Se151  1  0.08561988  0.25186473  0.44556149  1
  Se  Se152  1  0.07447670  0.25539533  0.93457624  1
  Se  Se153  1  0.08260647  0.58802268  0.44906252  1
  Se  Se154  1  0.08505305  0.58027701  0.94725077  1
  Se  Se155  1  0.07593436  0.92163720  0.43985890  1
  Se  Se156  1  0.08413552  0.92131202  0.93449081  1
  Se  Se157  1  0.41969738  0.25305064  0.45021623  1
  Se  Se158  1  0.40784412  0.26305583  0.94581169  1
  Se  Se159  1  0.42325412  0.57680956  0.44707073  1
  Se  Se160  1  0.43178497  0.56988451  0.95034176  1
  Se  Se161  1  0.40917206  0.91422232  0.43894887  1
  Se  Se162  1  0.41062538  0.91632147  0.93270722  1
  Se  Se163  1  0.74674461  0.26075062  0.43910785  1
  Se  Se164  1  0.74870404  0.24514646  0.94235867  1
  Se  Se165  1  0.75343651  0.58635467  0.44628697  1
  Se  Se166  1  0.75177433  0.57882010  0.94693658  1
  Se  Se167  1  0.74806600  0.92810882  0.44981107  1
  Se  Se168  1  0.74475710  0.91950555  0.93893952  1
  Se  Se169  1  0.25132598  0.08266542  0.44542331  1
  Se  Se170  1  0.25006005  0.08035841  0.93477012  1
  Se  Se171  1  0.25258664  0.41999203  0.44580478  1
  Se  Se172  1  0.24022302  0.41853130  0.95682380  1
  Se  Se173  1  0.25737229  0.73567336  0.44727637  1
  Se  Se174  1  0.26593995  0.74734537  0.92282506  1
  Se  Se175  1  0.57693304  0.08598884  0.45474003  1
  Se  Se176  1  0.58623149  0.07969363  0.93852653  1
  Se  Se177  1  0.58455023  0.42219249  0.44915709  1
  Se  Se178  1  0.58549647  0.41341585  0.94851857  1
  Se  Se179  1  0.58835309  0.74551194  0.43696958  1
  Se  Se180  1  0.58731939  0.74105027  0.93900843  1
  Se  Se181  1  0.92423631  0.08191720  0.43953921  1
  Se  Se182  1  0.91420639  0.07715113  0.95180986  1
  Se  Se183  1  0.91699560  0.42381267  0.45104638  1
  Se  Se184  1  0.91350727  0.41879282  0.94238875  1
  Se  Se185  1  0.91760144  0.75377510  0.44624461  1
  Se  Se186  1  0.92547125  0.74368608  0.93979786  1
  Se  Se187  1  0.25078903  0.24774921  0.30470081  1
  Se  Se188  1  0.24527708  0.24269068  0.80341099  1
  Se  Se189  1  0.25108501  0.58535572  0.30733043  1
  Se  Se190  1  0.25097835  0.57932903  0.80868116  1
  Se  Se191  1  0.24052733  0.90784038  0.31054552  1
  Se  Se192  1  0.28003434  0.94634852  0.80506118  1
  Se  Se193  1  0.57574974  0.24076710  0.32140736  1
  Se  Se194  1  0.58011432  0.25551065  0.79972024  1
  Se  Se195  1  0.58335763  0.57936877  0.30782728  1
  Se  Se196  1  0.57798593  0.58325930  0.81294382  1
  Se  Se197  1  0.58222488  0.91799209  0.30312882  1
  Se  Se198  1  0.58991707  0.92318173  0.79616434  1
  Se  Se199  1  0.91097000  0.24455651  0.30748229  1
  Se  Se200  1  0.91141408  0.24273583  0.81125613  1
  Se  Se201  1  0.91740671  0.58413926  0.30105345  1
  Se  Se202  1  0.91690240  0.58149079  0.80045605  1
  Se  Se203  1  0.91877476  0.92093434  0.30383657  1
  Se  Se204  1  0.91347248  0.91692074  0.80234737  1
  Se  Se205  1  0.08109587  0.08073927  0.29984863  1
  Se  Se206  1  0.07693614  0.08627588  0.79533961  1
  Se  Se207  1  0.08783787  0.42327198  0.31493348  1
  Se  Se208  1  0.08801701  0.41633273  0.81022598  1
  Se  Se209  1  0.07994681  0.74540998  0.30419109  1
  Se  Se210  1  0.06978681  0.73246548  0.80266609  1
  Se  Se211  1  0.41790135  0.08229932  0.31468025  1
  Se  Se212  1  0.42080553  0.08966420  0.80045530  1
  Se  Se213  1  0.41317125  0.41454340  0.30520011  1
  Se  Se214  1  0.41581030  0.43082126  0.81873652  1
  Se  Se215  1  0.41531379  0.74571605  0.29917580  1
  Se  Se216  1  0.42492042  0.75213219  0.79453288  1
  Se  Se217  1  0.74811144  0.08183119  0.30582922  1
  Se  Se218  1  0.74929942  0.08264268  0.80273523  1
  Se  Se219  1  0.76225233  0.42950800  0.30546512  1
  Se  Se220  1  0.74583702  0.41631798  0.80230506  1
  Se  Se221  1  0.75402551  0.75811879  0.31240179  1
  Se  Se222  1  0.75594581  0.75182374  0.81021426  1
  Se  Se223  1  0.24229673  0.08440610  0.18660552  1
  Se  Se224  1  0.25517616  0.08190725  0.69210139  1
  Se  Se225  1  0.24971286  0.41462171  0.20231338  1
  Se  Se226  1  0.24550703  0.42050119  0.69496364  1
  Se  Se227  1  0.24856356  0.74627703  0.19772180  1
  Se  Se228  1  0.24854428  0.75736079  0.70612609  1
  Se  Se229  1  0.58294342  0.08073863  0.20237834  1
  Se  Se230  1  0.58710321  0.08455721  0.69334606  1
  Se  Se231  1  0.58225699  0.41899595  0.19743008  1
  Se  Se232  1  0.58154200  0.42061651  0.69804279  1
  Se  Se233  1  0.57386769  0.75836208  0.18541590  1
  Se  Se234  1  0.58056279  0.75858873  0.68242312  1
  Se  Se235  1  0.91757590  0.08321186  0.19633704  1
  Se  Se236  1  0.91861459  0.08302880  0.69669632  1
  Se  Se237  1  0.91286033  0.42286111  0.18988138  1
  Se  Se238  1  0.91371856  0.42504160  0.68625128  1
  Se  Se239  1  0.91236288  0.75033039  0.20071986  1
  Se  Se240  1  0.91598866  0.74826112  0.69679671  1
  Se  Se241  1  0.09166806  0.24269048  0.18759500  1
  Se  Se242  1  0.08991366  0.24675276  0.68398939  1
  Se  Se243  1  0.08092129  0.58192405  0.19949552  1
  Se  Se244  1  0.07853481  0.58393742  0.70239222  1
  Se  Se245  1  0.08212462  0.91595406  0.19664375  1
  Se  Se246  1  0.09703451  0.90940858  0.70659881  1
  Se  Se247  1  0.41544931  0.24676385  0.20560966  1
  Se  Se248  1  0.41883448  0.24340800  0.68322761  1
  Se  Se249  1  0.41391134  0.58409182  0.20146120  1
  Se  Se250  1  0.41405549  0.58380468  0.69967666  1
  Se  Se251  1  0.41894868  0.90699710  0.18552187  1
  Se  Se252  1  0.41988818  0.92262950  0.69159093  1
  Se  Se253  1  0.75443346  0.24830766  0.19205340  1
  Se  Se254  1  0.74938678  0.25458958  0.70060166  1
  Se  Se255  1  0.75604444  0.57632011  0.18965339  1
  Se  Se256  1  0.75618382  0.57882000  0.68609946  1
  Se  Se257  1  0.74735491  0.92274241  0.19999910  1
  Se  Se258  1  0.74878811  0.91799658  0.69779105  1
