# generated using pymatgen
data_In86Cu29Se144
_symmetry_space_group_name_H-M   'P 1'
_cell_length_a   17.58094006
_cell_length_b   17.58189210
_cell_length_c   23.44007664
_cell_angle_alpha   89.99846619
_cell_angle_beta   90.00398916
_cell_angle_gamma   89.98141386
_symmetry_Int_Tables_number   1
_chemical_formula_structural   In86Cu29Se144
_chemical_formula_sum   'In86 Cu29 Se144'
_cell_volume   7245.47241018
_cell_formula_units_Z   1
loop_
 _symmetry_equiv_pos_site_id
 _symmetry_equiv_pos_as_xyz
  1  'x, y, z'
loop_
 _atom_site_type_symbol
 _atom_site_label
 _atom_site_symmetry_multiplicity
 _atom_site_fract_x
 _atom_site_fract_y
 _atom_site_fract_z
 _atom_site_occupancy
  In  In0  1  0.00064513  0.16945795  0.11940700  1
  In  In1  1  -0.00005960  0.17105662  0.62189106  1
  In  In2  1  0.00441452  0.49510347  0.11954083  1
  In  In3  1  0.01038457  0.50276669  0.64211555  1
  In  In4  1  0.00681979  0.83142998  0.13710650  1
  In  In5  1  0.00499252  0.82631484  0.63665622  1
  In  In6  1  0.34385493  0.18051891  0.11942991  1
  In  In7  1  0.32808221  0.17978760  0.62693073  1
  In  In8  1  0.30758953  0.48670339  0.11776291  1
  In  In9  1  0.33628963  0.48308836  0.63884122  1
  In  In10  1  0.32904447  0.81366228  0.12208671  1
  In  In11  1  0.31463095  0.83812022  0.62232965  1
  In  In12  1  0.70184953  0.18576282  0.09586867  1
  In  In13  1  0.67714560  0.15764711  0.64024469  1
  In  In14  1  0.66158570  0.48911632  0.11677169  1
  In  In15  1  0.66008532  0.50337664  0.63296448  1
  In  In16  1  0.67232831  0.83326140  0.12227667  1
  In  In17  1  0.68182645  0.82823663  0.64338039  1
  In  In18  1  0.15903000  0.00655662  0.38011312  1
  In  In19  1  0.15799077  0.01700880  0.87922523  1
  In  In20  1  0.15204536  0.32236052  0.35723617  1
  In  In21  1  0.15970406  0.33077137  0.87709735  1
  In  In22  1  0.16340231  0.67102049  0.38028446  1
  In  In23  1  0.14056731  0.62869044  0.84565171  1
  In  In24  1  0.50950925  0.00312153  0.37500682  1
  In  In25  1  0.51434030  0.00981086  0.87440664  1
  In  In26  1  0.50852950  0.33808988  0.37167234  1
  In  In27  1  0.49212803  0.32391791  0.87390541  1
  In  In28  1  0.47817911  0.65687782  0.37966760  1
  In  In29  1  0.50212572  0.66315922  0.86780575  1
  In  In30  1  0.85016406  0.00016445  0.37566607  1
  In  In31  1  0.83957258  0.00493254  0.86701608  1
  In  In32  1  0.83073078  0.33093305  0.36908202  1
  In  In33  1  0.83841243  0.33730096  0.87979037  1
  In  In34  1  0.84360265  0.66241967  0.37817702  1
  In  In35  1  0.82592912  0.65336742  0.87177491  1
  In  In36  1  0.00205024  0.16668305  0.37427455  1
  In  In37  1  -0.00026538  0.16937976  0.87719858  1
  In  In38  1  0.00744609  0.50549482  0.35638624  1
  In  In39  1  0.00027615  0.48645857  0.87945373  1
  In  In40  1  0.01512155  0.84627386  0.36111494  1
  In  In41  1  -0.01708151  0.83057189  0.85772456  1
  In  In42  1  0.31961714  0.16496878  0.37480238  1
  In  In43  1  0.31816183  0.18169469  0.88614592  1
  In  In44  1  0.33947037  0.49962006  0.38020277  1
  In  In45  1  0.30826121  0.47802788  0.85270100  1
  In  In46  1  0.32015592  0.81479897  0.37953203  1
  In  In47  1  0.33748497  0.82235093  0.87134744  1
  In  In48  1  0.66795110  0.18161161  0.37687316  1
  In  In49  1  0.66549189  0.16607084  0.87820384  1
  In  In50  1  0.67010274  0.48364535  0.37750619  1
  In  In51  1  0.68479716  0.51182954  0.87273472  1
  In  In52  1  0.66005619  0.84253339  0.37726882  1
  In  In53  1  0.67684082  0.83079031  0.86086000  1
  In  In54  1  0.14901676  0.00274142  0.12808228  1
  In  In55  1  0.15628232  -0.00224491  0.61873304  1
  In  In56  1  0.16489543  0.34064090  0.12216977  1
  In  In57  1  0.17253186  0.33447726  0.63380696  1
  In  In58  1  0.16191096  0.65475013  0.12534754  1
  In  In59  1  0.15722511  0.67379110  0.63738379  1
  In  In60  1  0.49601500  0.00869474  0.12166568  1
  In  In61  1  0.51135379  0.00921612  0.62739176  1
  In  In62  1  0.51535263  0.32790688  0.13068750  1
  In  In63  1  0.49541874  0.33936702  0.63382088  1
  In  In64  1  0.49718356  0.65766552  0.12045513  1
  In  In65  1  0.50899569  0.65365673  0.63223021  1
  In  In66  1  0.85172179  0.03650040  0.10568473  1
  In  In67  1  0.82637924  0.01050316  0.63831071  1
  In  In68  1  0.83639003  0.33221283  0.11891851  1
  In  In69  1  0.84637266  0.32280912  0.63191136  1
  In  In70  1  0.85077172  0.67136859  0.11645454  1
  In  In71  1  0.83870874  0.66280670  0.64186632  1
  In  In72  1  0.16939586  0.49717361  0.50414678  1
  In  In73  1  0.68296815  0.01897943  0.22859827  1
  In  In74  1  0.83960360  0.83331939  0.51672154  1
  In  In75  1  0.32029997  0.66076960  0.24607003  1
  In  In76  1  0.50580256  0.84071556  -0.01985985  1
  In  In77  1  0.83326780  0.83453761  -0.00981553  1
  In  In78  1  0.83737098  0.49215636  0.50316320  1
  In  In79  1  0.50231971  0.50345259  -0.00459593  1
  In  In80  1  0.32748124  0.00110469  0.25949658  1
  In  In81  1  0.49465497  0.83384491  0.50243861  1
  In  In82  1  0.33598295  0.00017505  0.74970989  1
  In  In83  1  0.67543586  0.66071861  0.25140603  1
  In  In84  1  0.49566795  0.17171419  0.50887902  1
  In  In85  1  0.16939650  0.83859336  -0.00191996  1
  Cu  Cu86  1  0.67681954  0.00394996  0.51223511  1
  Cu  Cu87  1  0.67115086  0.33442606  -0.00404787  1
  Cu  Cu88  1  0.17018872  0.83740978  0.75095472  1
  Cu  Cu89  1  0.49889030  0.16811798  0.75237251  1
  Cu  Cu90  1  0.83284849  0.49060347  0.24256241  1
  Cu  Cu91  1  0.15944438  0.17019057  0.75324613  1
  Cu  Cu92  1  0.00058286  0.00731611  0.49878183  1
  Cu  Cu93  1  0.83882592  0.17272721  0.24249362  1
  Cu  Cu94  1  0.50201424  0.83174244  0.74987106  1
  Cu  Cu95  1  0.66713408  0.33177146  0.50182617  1
  Cu  Cu96  1  0.65682752  0.65683422  0.50724014  1
  Cu  Cu97  1  0.00030669  0.33064679  0.49602223  1
  Cu  Cu98  1  0.33163272  0.66257566  -0.00970762  1
  Cu  Cu99  1  0.50577492  0.49557010  0.75592696  1
  Cu  Cu100  1  0.83948772  0.83396544  0.24740051  1
  Cu  Cu101  1  0.50360974  0.18132192  0.24553327  1
  Cu  Cu102  1  0.33065017  0.00958269  0.00215394  1
  Cu  Cu103  1  0.00132729  0.67003231  0.50847356  1
  Cu  Cu104  1  0.83605476  0.49122295  0.75392091  1
  Cu  Cu105  1  0.00821239  0.65400706  -0.00467090  1
  Cu  Cu106  1  -0.00314128  -0.00048273  -0.00395905  1
  Cu  Cu107  1  0.32700865  0.33342982  0.50307736  1
  Cu  Cu108  1  0.16556078  0.16779201  0.24660428  1
  Cu  Cu109  1  0.49631558  0.49763698  0.25093280  1
  Cu  Cu110  1  0.32270390  -0.00277979  0.49793169  1
  Cu  Cu111  1  0.50081903  0.84121304  0.24529785  1
  Cu  Cu112  1  0.83771576  0.17739455  0.75682888  1
  Cu  Cu113  1  0.33049456  0.34053204  -0.00168446  1
  Cu  Cu114  1  0.32916116  0.65944309  0.50602136  1
  Se  Se115  1  0.08194934  0.08101006  0.05015077  1
  Se  Se116  1  0.08505069  0.09095054  0.55149433  1
  Se  Se117  1  0.07773064  0.40882722  0.04798665  1
  Se  Se118  1  0.07254748  0.41181488  0.56144056  1
  Se  Se119  1  0.07641575  0.74639687  0.05594975  1
  Se  Se120  1  0.08491024  0.75357443  0.56014435  1
  Se  Se121  1  0.41962984  0.09047877  0.05074787  1
  Se  Se122  1  0.40373807  0.07228793  0.56138911  1
  Se  Se123  1  0.41796556  0.41327866  0.06064403  1
  Se  Se124  1  0.41135222  0.41144066  0.55915417  1
  Se  Se125  1  0.41675441  0.74408636  0.04555723  1
  Se  Se126  1  0.41005995  0.74277151  0.56509194  1
  Se  Se127  1  0.72770870  0.05465066  0.05089548  1
  Se  Se128  1  0.75698905  0.09221037  0.56037218  1
  Se  Se129  1  0.75343943  0.41794475  0.04950288  1
  Se  Se130  1  0.74600978  0.40895799  0.56545038  1
  Se  Se131  1  0.74590260  0.74285678  0.05266651  1
  Se  Se132  1  0.74267151  0.73450532  0.56468708  1
  Se  Se133  1  0.25097906  0.25526805  0.05423992  1
  Se  Se134  1  0.24231743  0.25250164  0.55578827  1
  Se  Se135  1  0.24908285  0.58859837  0.05082935  1
  Se  Se136  1  0.25105913  0.58403256  0.57170252  1
  Se  Se137  1  0.25918700  0.92422718  0.06374476  1
  Se  Se138  1  0.23801783  0.91396239  0.54827838  1
  Se  Se139  1  0.58491107  0.25479404  0.05052561  1
  Se  Se140  1  0.59182362  0.25347799  0.56755084  1
  Se  Se141  1  0.59622911  0.59667202  0.05168126  1
  Se  Se142  1  0.57574056  0.56954463  0.55528859  1
  Se  Se143  1  0.58412465  0.91850486  0.05713078  1
  Se  Se144  1  0.59494930  0.91481930  0.56325243  1
  Se  Se145  1  0.88963489  0.22142996  0.05595019  1
  Se  Se146  1  0.91476802  0.25061303  0.54986510  1
  Se  Se147  1  0.91875662  0.57849738  0.04875467  1
  Se  Se148  1  0.92450811  0.58513642  0.56566171  1
  Se  Se149  1  0.92526189  0.91461727  0.05948034  1
  Se  Se150  1  0.92760595  0.93133919  0.56882482  1
  Se  Se151  1  0.08723388  0.25215994  0.44159248  1
  Se  Se152  1  0.08787218  0.24254991  0.94735620  1
  Se  Se153  1  0.06993819  0.58215867  0.44606949  1
  Se  Se154  1  0.09281047  0.57496360  0.94178010  1
  Se  Se155  1  0.07781689  0.91674195  0.44595414  1
  Se  Se156  1  0.07025142  0.91473614  0.93506920  1
  Se  Se157  1  0.41023720  0.25491869  0.44114720  1
  Se  Se158  1  0.41559951  0.25195724  0.95190539  1
  Se  Se159  1  0.41537780  0.57476051  0.45771205  1
  Se  Se160  1  0.40780007  0.57932006  0.93082917  1
  Se  Se161  1  0.40800126  0.92385616  0.43628058  1
  Se  Se162  1  0.40240017  0.93189050  0.93475815  1
  Se  Se163  1  0.75429242  0.25503755  0.44729538  1
  Se  Se164  1  0.75307938  0.24848282  0.94458215  1
  Se  Se165  1  0.74372975  0.58637968  0.44462261  1
  Se  Se166  1  0.75638934  0.58201933  0.95245249  1
  Se  Se167  1  0.74997421  0.92028069  0.44823304  1
  Se  Se168  1  0.74173115  0.92556022  0.93503948  1
  Se  Se169  1  0.24368967  0.08815364  0.44906232  1
  Se  Se170  1  0.24123823  0.08922237  0.95230305  1
  Se  Se171  1  0.24689192  0.40564130  0.43772909  1
  Se  Se172  1  0.24760742  0.41989415  0.94263124  1
  Se  Se173  1  0.24340142  0.74347297  0.45645913  1
  Se  Se174  1  0.24580700  0.74229538  0.93542552  1
  Se  Se175  1  0.59290148  0.08071651  0.44996996  1
  Se  Se176  1  0.57830224  0.09133398  0.95017797  1
  Se  Se177  1  0.58222180  0.41438392  0.44994206  1
  Se  Se178  1  0.58983997  0.41348242  0.93462546  1
  Se  Se179  1  0.58535937  0.74010701  0.44193517  1
  Se  Se180  1  0.59780705  0.74205844  0.93481386  1
  Se  Se181  1  0.91552929  0.08970602  0.44723744  1
  Se  Se182  1  0.91323749  0.08247553  0.94364835  1
  Se  Se183  1  0.92796798  0.41667867  0.43473582  1
  Se  Se184  1  0.91714373  0.41534898  0.95372592  1
  Se  Se185  1  0.92306135  0.75066545  0.44649903  1
  Se  Se186  1  0.92875358  0.73990161  0.93858061  1
  Se  Se187  1  0.25476744  0.24749935  0.29833234  1
  Se  Se188  1  0.24713809  0.25060847  0.80513337  1
  Se  Se189  1  0.24083610  0.57341850  0.31397977  1
  Se  Se190  1  0.27724411  0.60903125  0.80906145  1
  Se  Se191  1  0.23990390  0.90448205  0.31347670  1
  Se  Se192  1  0.24416057  0.91785846  0.81466901  1
  Se  Se193  1  0.59079831  0.25631154  0.30171162  1
  Se  Se194  1  0.58323526  0.24853534  0.80665197  1
  Se  Se195  1  0.57460546  0.57921543  0.31256396  1
  Se  Se196  1  0.59094047  0.58219764  0.80346986  1
  Se  Se197  1  0.58833009  0.92384141  0.29690112  1
  Se  Se198  1  0.58010115  0.91620010  0.80463515  1
  Se  Se199  1  0.91926262  0.24988031  0.30428639  1
  Se  Se200  1  0.92348494  0.25874381  0.80820115  1
  Se  Se201  1  0.90500947  0.58119803  0.29958387  1
  Se  Se202  1  0.91892524  0.57343683  0.80947493  1
  Se  Se203  1  0.91960030  0.92297325  0.29809725  1
  Se  Se204  1  0.90952159  0.92093884  0.79270414  1
  Se  Se205  1  0.08604178  0.08496676  0.30384755  1
  Se  Se206  1  0.07650195  0.08335179  0.80294108  1
  Se  Se207  1  0.08336913  0.41669841  0.29177700  1
  Se  Se208  1  0.09632168  0.42605782  0.80678673  1
  Se  Se209  1  0.06875662  0.72963663  0.30986523  1
  Se  Se210  1  0.08627806  0.75457967  0.80309924  1
  Se  Se211  1  0.43109168  0.09568465  0.30801805  1
  Se  Se212  1  0.41384792  0.09365767  0.81388173  1
  Se  Se213  1  0.41501596  0.41660054  0.30812558  1
  Se  Se214  1  0.41814642  0.40870977  0.80083309  1
  Se  Se215  1  0.41975410  0.75568140  0.30366437  1
  Se  Se216  1  0.41917812  0.74736415  0.79963367  1
  Se  Se217  1  0.75962605  0.09320115  0.30899200  1
  Se  Se218  1  0.75123966  0.09181866  0.80504364  1
  Se  Se219  1  0.74808155  0.41479268  0.30016521  1
  Se  Se220  1  0.74997457  0.41174219  0.80743101  1
  Se  Se221  1  0.75705150  0.76231638  0.31248066  1
  Se  Se222  1  0.76100140  0.74492550  0.79964536  1
  Se  Se223  1  0.25127278  0.08820152  0.18815859  1
  Se  Se224  1  0.24152490  0.08887445  0.69228280  1
  Se  Se225  1  0.24329684  0.41667443  0.19891939  1
  Se  Se226  1  0.23246585  0.42930643  0.70520198  1
  Se  Se227  1  0.23062905  0.75941782  0.19487379  1
  Se  Se228  1  0.25430252  0.75316279  0.69936483  1
  Se  Se229  1  0.58031688  0.10451091  0.18098538  1
  Se  Se230  1  0.58405621  0.08026483  0.70588726  1
  Se  Se231  1  0.58781805  0.42223367  0.19815816  1
  Se  Se232  1  0.58781876  0.41121684  0.70155396  1
  Se  Se233  1  0.57828605  0.75211535  0.19096869  1
  Se  Se234  1  0.58485190  0.74519759  0.69894300  1
  Se  Se235  1  0.92244368  0.08397126  0.19441163  1
  Se  Se236  1  0.91759587  0.09649758  0.69713258  1
  Se  Se237  1  0.91847930  0.41190926  0.18938851  1
  Se  Se238  1  0.92220582  0.41327075  0.69943529  1
  Se  Se239  1  0.91873852  0.74331555  0.19805720  1
  Se  Se240  1  0.90917998  0.75993531  0.70334671  1
  Se  Se241  1  0.08510010  0.24799458  0.18872347  1
  Se  Se242  1  0.08034722  0.25197147  0.69462538  1
  Se  Se243  1  0.07449392  0.58276715  0.19285592  1
  Se  Se244  1  0.08327866  0.59120697  0.70992200  1
  Se  Se245  1  0.08778480  0.91612825  0.20242365  1
  Se  Se246  1  0.08758334  0.92080841  0.69732017  1
  Se  Se247  1  0.41417015  0.26205002  0.19603685  1
  Se  Se248  1  0.41411294  0.24926830  0.69886976  1
  Se  Se249  1  0.41515383  0.57083344  0.18773052  1
  Se  Se250  1  0.42109834  0.57532932  0.69927197  1
  Se  Se251  1  0.41210427  0.91193778  0.18775107  1
  Se  Se252  1  0.42414087  0.90987839  0.68599700  1
  Se  Se253  1  0.74901841  0.24885011  0.18898015  1
  Se  Se254  1  0.75104713  0.25633252  0.70144310  1
  Se  Se255  1  0.75689988  0.57739172  0.18227759  1
  Se  Se256  1  0.75119804  0.57608159  0.70181317  1
  Se  Se257  1  0.76953663  0.91479267  0.18108751  1
  Se  Se258  1  0.74541968  0.92772144  0.70606604  1
