# generated using pymatgen
data_In86Cu29Se144
_symmetry_space_group_name_H-M   'P 1'
_cell_length_a   17.55350316
_cell_length_b   17.54925850
_cell_length_c   23.40556719
_cell_angle_alpha   90.00509372
_cell_angle_beta   90.00863304
_cell_angle_gamma   90.02008615
_symmetry_Int_Tables_number   1
_chemical_formula_structural   In86Cu29Se144
_chemical_formula_sum   'In86 Cu29 Se144'
_cell_volume   7210.10699171
_cell_formula_units_Z   1
loop_
 _symmetry_equiv_pos_site_id
 _symmetry_equiv_pos_as_xyz
  1  'x, y, z'
loop_
 _atom_site_type_symbol
 _atom_site_label
 _atom_site_symmetry_multiplicity
 _atom_site_fract_x
 _atom_site_fract_y
 _atom_site_fract_z
 _atom_site_occupancy
  In  In0  1  -0.00067112  0.16771660  0.12818341  1
  In  In1  1  0.01801982  0.16873550  0.62319855  1
  In  In2  1  0.00940753  0.51170080  0.12052924  1
  In  In3  1  -0.00836746  0.50417649  0.62167253  1
  In  In4  1  -0.00297852  0.81293589  0.12737326  1
  In  In5  1  0.00964205  0.79303706  0.62651224  1
  In  In6  1  0.34453946  0.16756396  0.13297700  1
  In  In7  1  0.33140213  0.17115974  0.61851205  1
  In  In8  1  0.32148002  0.49748555  0.13031513  1
  In  In9  1  0.31384756  0.47541634  0.59661977  1
  In  In10  1  0.32857669  0.81167370  0.10795624  1
  In  In11  1  0.34255996  0.83012337  0.61577501  1
  In  In12  1  0.66352316  0.17153875  0.14516077  1
  In  In13  1  0.66234156  0.19560574  0.61561573  1
  In  In14  1  0.67548618  0.48899956  0.13271587  1
  In  In15  1  0.67052152  0.49511060  0.61493737  1
  In  In16  1  0.65962613  0.83544352  0.13380010  1
  In  In17  1  0.65630032  0.82840238  0.62632933  1
  In  In18  1  0.18101007  -0.00220201  0.37965514  1
  In  In19  1  0.16683210  -0.02145743  0.86927861  1
  In  In20  1  0.17482353  0.33707184  0.39371199  1
  In  In21  1  0.17394658  0.34688396  0.86381476  1
  In  In22  1  0.16649839  0.65970045  0.38613313  1
  In  In23  1  0.15983957  0.67609163  0.87176515  1
  In  In24  1  0.50379201  -0.00653470  0.37752423  1
  In  In25  1  0.48579619  0.00325297  0.86886139  1
  In  In26  1  0.50278310  0.33803604  0.38456793  1
  In  In27  1  0.49895467  0.33666515  0.85852484  1
  In  In28  1  0.51124006  0.65385968  0.39353060  1
  In  In29  1  0.51173215  0.66264057  0.87282116  1
  In  In30  1  0.81953524  0.01011790  0.37039681  1
  In  In31  1  0.84204371  -0.00197078  0.87467042  1
  In  In32  1  0.83116541  0.34289265  0.37838753  1
  In  In33  1  0.84688354  0.34888385  0.86198147  1
  In  In34  1  0.82958941  0.65880848  0.37055692  1
  In  In35  1  0.81880009  0.65580191  0.86286152  1
  In  In36  1  0.00000418  0.17842644  0.38154667  1
  In  In37  1  -0.01042079  0.17419118  0.86743214  1
  In  In38  1  -0.00589386  0.51105009  0.39329378  1
  In  In39  1  0.00169494  0.50499110  0.86871619  1
  In  In40  1  0.01910095  0.82268680  0.37890724  1
  In  In41  1  0.01150401  0.83202066  0.86805745  1
  In  In42  1  0.32612027  0.19225384  0.39546506  1
  In  In43  1  0.33945708  0.16852773  0.86020841  1
  In  In44  1  0.35564174  0.48774110  0.40972651  1
  In  In45  1  0.33278846  0.48946271  0.86936077  1
  In  In46  1  0.33206406  0.81940287  0.39495413  1
  In  In47  1  0.32413788  0.83508049  0.87111149  1
  In  In48  1  0.66402697  0.16414729  0.37070353  1
  In  In49  1  0.65340635  0.17205739  0.87054729  1
  In  In50  1  0.66397474  0.49868847  0.38085013  1
  In  In51  1  0.66803655  0.50752952  0.86753629  1
  In  In52  1  0.65983637  0.83071947  0.37016348  1
  In  In53  1  0.66727348  0.81101727  0.87219162  1
  In  In54  1  0.18572114  -0.01007909  0.12967281  1
  In  In55  1  0.17666373  0.01069177  0.62101148  1
  In  In56  1  0.15690143  0.35027512  0.13178638  1
  In  In57  1  0.16889837  0.33022709  0.62521205  1
  In  In58  1  0.16355071  0.65189884  0.11804406  1
  In  In59  1  0.14834174  0.64213301  0.59404310  1
  In  In60  1  0.50469916  -0.00467989  0.12896318  1
  In  In61  1  0.48785827  -0.00925881  0.62110963  1
  In  In62  1  0.50381352  0.33214674  0.13905660  1
  In  In63  1  0.49348449  0.33758864  0.61091653  1
  In  In64  1  0.49605361  0.67556383  0.12756961  1
  In  In65  1  0.49926361  0.66968183  0.61690296  1
  In  In66  1  0.83154027  -0.00878043  0.13101466  1
  In  In67  1  0.82883696  -0.00585470  0.62354976  1
  In  In68  1  0.81944197  0.33933758  0.12863331  1
  In  In69  1  0.81696603  0.35615394  0.62990645  1
  In  In70  1  0.84298166  0.65944707  0.13440169  1
  In  In71  1  0.85005984  0.64731393  0.63843982  1
  In  In72  1  0.66256254  0.00214508  0.74647655  1
  In  In73  1  0.33383288  0.66191019  0.73486421  1
  In  In74  1  0.83670274  0.82657351  0.50130408  1
  In  In75  1  0.00740366  -0.00142890  0.75184194  1
  In  In76  1  -0.01013707  -0.00263894  0.24969003  1
  In  In77  1  0.82697930  0.17495686  0.00921157  1
  In  In78  1  0.17003355  0.17179366  -0.00588704  1
  In  In79  1  0.49262567  0.50681018  0.00085378  1
  In  In80  1  0.83435784  0.17569255  0.49501635  1
  In  In81  1  0.83569944  0.82495601  -0.00118260  1
  In  In82  1  0.33860941  0.65793265  0.26052986  1
  In  In83  1  0.34139124  0.00061621  0.25470762  1
  In  In84  1  0.49915562  0.16749033  0.00611902  1
  In  In85  1  -0.00702954  0.34095408  0.26571572  1
  Cu  Cu86  1  0.00065252  0.66384034  -0.00295788  1
  Cu  Cu87  1  0.16741825  0.81934518  0.25315000  1
  Cu  Cu88  1  0.49985128  0.83181552  0.25243019  1
  Cu  Cu89  1  0.00217887  0.35187693  -0.00495133  1
  Cu  Cu90  1  0.32751630  -0.01507532  -0.00684749  1
  Cu  Cu91  1  0.49854841  0.82842004  0.74399599  1
  Cu  Cu92  1  0.66941991  0.66301968  -0.00032926  1
  Cu  Cu93  1  0.32943663  0.33360289  -0.00085592  1
  Cu  Cu94  1  0.83359936  0.50231474  0.25600994  1
  Cu  Cu95  1  0.50137660  0.49538985  0.73575898  1
  Cu  Cu96  1  0.17563479  0.17336782  0.74483256  1
  Cu  Cu97  1  0.67097086  0.34317503  -0.00268371  1
  Cu  Cu98  1  0.66208311  -0.01148359  0.00665010  1
  Cu  Cu99  1  0.82893357  0.49731074  0.74740134  1
  Cu  Cu100  1  0.66045994  0.00031137  0.50355177  1
  Cu  Cu101  1  0.00197952  0.33365494  0.50670438  1
  Cu  Cu102  1  0.49102481  0.17836467  0.26083479  1
  Cu  Cu103  1  0.50017301  0.17616766  0.73658606  1
  Cu  Cu104  1  0.00331667  -0.00638833  0.50350330  1
  Cu  Cu105  1  0.17039109  0.50095853  0.25583084  1
  Cu  Cu106  1  0.16315649  0.50265644  0.73865124  1
  Cu  Cu107  1  0.33510122  0.00424109  0.49848805  1
  Cu  Cu108  1  0.01147826  -0.00169445  -0.00230514  1
  Cu  Cu109  1  0.82987991  0.82942798  0.25279806  1
  Cu  Cu110  1  0.17404162  0.82993283  0.74105210  1
  Cu  Cu111  1  0.50165433  0.49559666  0.26533158  1
  Cu  Cu112  1  0.83426560  0.17368143  0.74278538  1
  Cu  Cu113  1  0.67548590  0.66364997  0.49932885  1
  Cu  Cu114  1  0.16740084  0.17662426  0.26839200  1
  Se  Se115  1  0.08669045  0.07817285  0.06187321  1
  Se  Se116  1  0.08676397  0.08315116  0.55014725  1
  Se  Se117  1  0.09100870  0.42587391  0.05147974  1
  Se  Se118  1  0.08283121  0.41784047  0.56045384  1
  Se  Se119  1  0.08247723  0.74517555  0.05415167  1
  Se  Se120  1  0.09393226  0.76149871  0.54084837  1
  Se  Se121  1  0.40308982  0.06875178  0.05713062  1
  Se  Se122  1  0.41866460  0.08453335  0.55384968  1
  Se  Se123  1  0.41470414  0.40551663  0.06230795  1
  Se  Se124  1  0.43408447  0.43413518  0.53715223  1
  Se  Se125  1  0.42777675  0.74451653  0.04635107  1
  Se  Se126  1  0.42468247  0.75345847  0.54408341  1
  Se  Se127  1  0.73722222  0.07670102  0.06519768  1
  Se  Se128  1  0.74411582  0.08304170  0.55833435  1
  Se  Se129  1  0.75521582  0.42434699  0.05157963  1
  Se  Se130  1  0.75106056  0.41405513  0.54345610  1
  Se  Se131  1  0.74590017  0.74322621  0.06433291  1
  Se  Se132  1  0.75006376  0.74096372  0.56555140  1
  Se  Se133  1  0.25390101  0.25485067  0.06511368  1
  Se  Se134  1  0.24229444  0.24735005  0.55141964  1
  Se  Se135  1  0.26481314  0.58587878  0.05541103  1
  Se  Se136  1  0.28154602  0.60934864  0.55544649  1
  Se  Se137  1  0.24329830  0.90683075  0.05030614  1
  Se  Se138  1  0.25494085  0.92052436  0.55486681  1
  Se  Se139  1  0.59421016  0.26031204  0.06044252  1
  Se  Se140  1  0.56797370  0.24592892  0.54014232  1
  Se  Se141  1  0.59151132  0.58405739  0.06367794  1
  Se  Se142  1  0.58597573  0.58497783  0.55128307  1
  Se  Se143  1  0.57692224  0.90718035  0.05769066  1
  Se  Se144  1  0.58134529  0.91359758  0.55625350  1
  Se  Se145  1  0.92886256  0.26717592  0.05938195  1
  Se  Se146  1  0.91733028  0.25549870  0.56697948  1
  Se  Se147  1  0.91546523  0.58655104  0.05457985  1
  Se  Se148  1  0.91334912  0.58832004  0.55125331  1
  Se  Se149  1  0.92612579  0.92075722  0.05859284  1
  Se  Se150  1  0.92783071  0.91420196  0.56463941  1
  Se  Se151  1  0.08385711  0.24905865  0.45399751  1
  Se  Se152  1  0.07497704  0.26114087  0.93678843  1
  Se  Se153  1  0.09621855  0.57082798  0.45811407  1
  Se  Se154  1  0.08530980  0.58447845  0.93984827  1
  Se  Se155  1  0.08721317  0.92070128  0.44343351  1
  Se  Se156  1  0.08621168  0.90874734  0.94558638  1
  Se  Se157  1  0.43574377  0.24611136  0.45783392  1
  Se  Se158  1  0.41335078  0.25593020  0.93911561  1
  Se  Se159  1  0.38532733  0.62334442  0.44824736  1
  Se  Se160  1  0.40610641  0.59051533  0.93447893  1
  Se  Se161  1  0.41792156  0.91662557  0.44780701  1
  Se  Se162  1  0.41853535  0.91157937  0.93872741  1
  Se  Se163  1  0.73523692  0.26120858  0.44288679  1
  Se  Se164  1  0.74609903  0.25743889  0.93624263  1
  Se  Se165  1  0.75646823  0.57889173  0.44604266  1
  Se  Se166  1  0.74884505  0.58081019  0.94341977  1
  Se  Se167  1  0.74530644  0.92299948  0.44482235  1
  Se  Se168  1  0.74451557  0.91948859  0.94056840  1
  Se  Se169  1  0.24739967  0.08954128  0.45039370  1
  Se  Se170  1  0.25801746  0.07750496  0.93372345  1
  Se  Se171  1  0.24958464  0.41973460  0.46677477  1
  Se  Se172  1  0.24905699  0.41733012  0.94433236  1
  Se  Se173  1  0.21571796  0.77191588  0.45118017  1
  Se  Se174  1  0.24286900  0.75632878  0.94017227  1
  Se  Se175  1  0.58594273  0.08137957  0.44265980  1
  Se  Se176  1  0.58817412  0.07501500  0.94384935  1
  Se  Se177  1  0.55806543  0.44683552  0.45022473  1
  Se  Se178  1  0.57944547  0.41340296  0.93857431  1
  Se  Se179  1  0.59290796  0.75359352  0.44965246  1
  Se  Se180  1  0.58383590  0.74577715  0.94843296  1
  Se  Se181  1  0.92204455  0.07162717  0.44260669  1
  Se  Se182  1  0.92462468  0.08287128  0.94720837  1
  Se  Se183  1  0.91568049  0.41210594  0.45208907  1
  Se  Se184  1  0.91333785  0.42740945  0.94079145  1
  Se  Se185  1  0.92495349  0.73823205  0.44048115  1
  Se  Se186  1  0.92110077  0.74028103  0.93259103  1
  Se  Se187  1  0.25152365  0.26328846  0.31525209  1
  Se  Se188  1  0.25747503  0.25922933  0.79885333  1
  Se  Se189  1  0.25391794  0.56841396  0.32226333  1
  Se  Se190  1  0.24355258  0.58008241  0.80318765  1
  Se  Se191  1  0.25205213  0.90060702  0.30936904  1
  Se  Se192  1  0.25402548  0.91672474  0.79323761  1
  Se  Se193  1  0.58148466  0.25893664  0.31029477  1
  Se  Se194  1  0.58598991  0.25322931  0.79387606  1
  Se  Se195  1  0.58410403  0.58720254  0.31119366  1
  Se  Se196  1  0.57716167  0.57867359  0.79689868  1
  Se  Se197  1  0.58349930  0.92015253  0.30100097  1
  Se  Se198  1  0.57630966  0.90858935  0.80808223  1
  Se  Se199  1  0.90112634  0.23826381  0.31086485  1
  Se  Se200  1  0.92108698  0.25723225  0.79309466  1
  Se  Se201  1  0.92480546  0.57846201  0.30820410  1
  Se  Se202  1  0.91493301  0.58282430  0.79874303  1
  Se  Se203  1  0.91038044  0.90626023  0.31783929  1
  Se  Se204  1  0.90842926  0.90626059  0.80270263  1
  Se  Se205  1  0.08332945  0.08502113  0.31342679  1
  Se  Se206  1  0.09735827  0.09376068  0.81057974  1
  Se  Se207  1  0.09042606  0.42543234  0.32114214  1
  Se  Se208  1  0.08185700  0.42061061  0.79722812  1
  Se  Se209  1  0.08810737  0.73395960  0.30665985  1
  Se  Se210  1  0.08519834  0.75064747  0.79326886  1
  Se  Se211  1  0.41328115  0.09621523  0.32113809  1
  Se  Se212  1  0.42203080  0.08644483  0.79124845  1
  Se  Se213  1  0.41147526  0.42119370  0.31942010  1
  Se  Se214  1  0.41366020  0.41896646  0.79299057  1
  Se  Se215  1  0.42485462  0.75391056  0.31824134  1
  Se  Se216  1  0.41833249  0.74815182  0.80575425  1
  Se  Se217  1  0.74097852  0.08273512  0.29740952  1
  Se  Se218  1  0.75891643  0.09176566  0.80727261  1
  Se  Se219  1  0.74789812  0.42005850  0.30789884  1
  Se  Se220  1  0.74257510  0.41452542  0.80087112  1
  Se  Se221  1  0.74597688  0.74591529  0.30571569  1
  Se  Se222  1  0.74613019  0.74660642  0.79530304  1
  Se  Se223  1  0.24112617  0.09502097  0.20195758  1
  Se  Se224  1  0.25713548  0.08602013  0.69468948  1
  Se  Se225  1  0.25003382  0.41266911  0.20407762  1
  Se  Se226  1  0.25272352  0.42051096  0.68914779  1
  Se  Se227  1  0.25125469  0.74416975  0.19232060  1
  Se  Se228  1  0.24078665  0.74678143  0.67492660  1
  Se  Se229  1  0.56584613  0.08949828  0.20138893  1
  Se  Se230  1  0.58145577  0.09208994  0.68045873  1
  Se  Se231  1  0.58555294  0.41785786  0.20459214  1
  Se  Se232  1  0.58376700  0.41116674  0.68212093  1
  Se  Se233  1  0.58239813  0.74499842  0.20098611  1
  Se  Se234  1  0.57997836  0.74090104  0.69537254  1
  Se  Se235  1  0.90261307  0.09717840  0.19542529  1
  Se  Se236  1  0.91417246  0.08670149  0.68839262  1
  Se  Se237  1  0.91585676  0.42621820  0.19203478  1
  Se  Se238  1  0.91871120  0.41814823  0.69584842  1
  Se  Se239  1  0.91976461  0.74579814  0.20572708  1
  Se  Se240  1  0.91030254  0.75497775  0.69975316  1
  Se  Se241  1  0.08442767  0.24829109  0.20223194  1
  Se  Se242  1  0.08355638  0.25341602  0.69878862  1
  Se  Se243  1  0.08880393  0.58169586  0.19841329  1
  Se  Se244  1  0.08371003  0.58944138  0.68517702  1
  Se  Se245  1  0.08984733  0.90704183  0.19471224  1
  Se  Se246  1  0.08712906  0.91065631  0.68272689  1
  Se  Se247  1  0.40798609  0.25888969  0.20456357  1
  Se  Se248  1  0.41330523  0.25899682  0.68575527  1
  Se  Se249  1  0.42741959  0.56995048  0.19442997  1
  Se  Se250  1  0.41573054  0.56664434  0.67442546  1
  Se  Se251  1  0.41251304  0.90068832  0.18845119  1
  Se  Se252  1  0.41194550  0.91134000  0.69527398  1
  Se  Se253  1  0.75147502  0.25771753  0.20290421  1
  Se  Se254  1  0.74607105  0.25614462  0.69445049  1
  Se  Se255  1  0.75045822  0.58270142  0.19916906  1
  Se  Se256  1  0.74240959  0.57720246  0.69306537  1
  Se  Se257  1  0.74808142  0.91563042  0.20102016  1
  Se  Se258  1  0.75478763  0.90570088  0.69460157  1
