# generated using pymatgen
data_In86Cu29Se144
_symmetry_space_group_name_H-M   'P 1'
_cell_length_a   17.56212580
_cell_length_b   17.56194149
_cell_length_c   23.41117548
_cell_angle_alpha   89.98729532
_cell_angle_beta   90.00531032
_cell_angle_gamma   90.00296140
_symmetry_Int_Tables_number   1
_chemical_formula_structural   In86Cu29Se144
_chemical_formula_sum   'In86 Cu29 Se144'
_cell_volume   7220.59218241
_cell_formula_units_Z   1
loop_
 _symmetry_equiv_pos_site_id
 _symmetry_equiv_pos_as_xyz
  1  'x, y, z'
loop_
 _atom_site_type_symbol
 _atom_site_label
 _atom_site_symmetry_multiplicity
 _atom_site_fract_x
 _atom_site_fract_y
 _atom_site_fract_z
 _atom_site_occupancy
  In  In0  1  0.00901018  0.15817919  0.12650058  1
  In  In1  1  0.01194990  0.16263489  0.62587101  1
  In  In2  1  -0.00024868  0.50084749  0.12122158  1
  In  In3  1  0.00269631  0.49288545  0.63890603  1
  In  In4  1  -0.00936910  0.83498874  0.12849420  1
  In  In5  1  0.00910300  0.82490308  0.63909235  1
  In  In6  1  0.31283583  0.14609453  0.10193807  1
  In  In7  1  0.32477763  0.18140988  0.62366897  1
  In  In8  1  0.32846021  0.51796249  0.11827982  1
  In  In9  1  0.33229939  0.49243560  0.62141552  1
  In  In10  1  0.34754823  0.83187147  0.11926757  1
  In  In11  1  0.32079676  0.84161668  0.62852578  1
  In  In12  1  0.65468035  0.17539965  0.11134368  1
  In  In13  1  0.67140191  0.16277910  0.63714395  1
  In  In14  1  0.67020667  0.48362117  0.11728066  1
  In  In15  1  0.65367697  0.51239314  0.64076300  1
  In  In16  1  0.66963529  0.83702976  0.11136764  1
  In  In17  1  0.68985820  0.80677725  0.66664079  1
  In  In18  1  0.16481087  -0.00250943  0.37336539  1
  In  In19  1  0.17000871  0.01662007  0.88003130  1
  In  In20  1  0.15652813  0.34585761  0.38947957  1
  In  In21  1  0.17000769  0.33464019  0.87492427  1
  In  In22  1  0.16285321  0.67199296  0.38625355  1
  In  In23  1  0.15439181  0.65862226  0.86487987  1
  In  In24  1  0.49712804  0.01510111  0.37380877  1
  In  In25  1  0.50774347  -0.01225753  0.89013719  1
  In  In26  1  0.50460712  0.33840152  0.38439573  1
  In  In27  1  0.49520668  0.33033519  0.86793764  1
  In  In28  1  0.48915634  0.67206235  0.38377790  1
  In  In29  1  0.51494006  0.68980567  0.84941831  1
  In  In30  1  0.84849992  -0.01819465  0.37623693  1
  In  In31  1  0.82205990  -0.01809465  0.86077365  1
  In  In32  1  0.83276610  0.32416845  0.37702234  1
  In  In33  1  0.85230413  0.35047189  0.85826244  1
  In  In34  1  0.84227199  0.66032453  0.37703565  1
  In  In35  1  0.83405503  0.66309361  0.86749480  1
  In  In36  1  0.01127854  0.17595977  0.36485596  1
  In  In37  1  0.00673694  0.16927084  0.87189430  1
  In  In38  1  0.00918776  0.50785590  0.37102116  1
  In  In39  1  0.00234896  0.50076896  0.87337763  1
  In  In40  1  0.00874689  0.84365093  0.36134416  1
  In  In41  1  -0.01378578  0.82192158  0.86022908  1
  In  In42  1  0.33288949  0.15291669  0.37070285  1
  In  In43  1  0.32537772  0.17205077  0.88582169  1
  In  In44  1  0.32478011  0.50447129  0.39501479  1
  In  In45  1  0.32757164  0.49835918  0.86865635  1
  In  In46  1  0.32064360  0.82890944  0.37422802  1
  In  In47  1  0.35954364  0.83561188  0.87303780  1
  In  In48  1  0.65713432  0.17039418  0.37797277  1
  In  In49  1  0.65949950  0.16140950  0.87083859  1
  In  In50  1  0.67056344  0.49476359  0.38891571  1
  In  In51  1  0.69038560  0.51746828  0.85164602  1
  In  In52  1  0.66934100  0.82847424  0.37975764  1
  In  In53  1  0.66785325  0.82929826  0.86888416  1
  In  In54  1  0.15681456  0.00390250  0.12448417  1
  In  In55  1  0.16138868  -0.00472762  0.61680784  1
  In  In56  1  0.15716294  0.32519350  0.11946810  1
  In  In57  1  0.16637012  0.33350858  0.62176857  1
  In  In58  1  0.16219744  0.65181328  0.11639138  1
  In  In59  1  0.16886550  0.66769905  0.62854653  1
  In  In60  1  0.48888411  -0.00777573  0.10865839  1
  In  In61  1  0.50514735  -0.00220090  0.63136358  1
  In  In62  1  0.51038556  0.32495331  0.11927095  1
  In  In63  1  0.47530842  0.34863828  0.63864251  1
  In  In64  1  0.49118285  0.67689737  0.11617550  1
  In  In65  1  0.51324030  0.65394342  0.63744945  1
  In  In66  1  0.84472611  -0.00877952  0.12094294  1
  In  In67  1  0.84565548  -0.02125299  0.65268174  1
  In  In68  1  0.83407928  0.34431958  0.11737147  1
  In  In69  1  0.83874477  0.34785450  0.64996672  1
  In  In70  1  0.84791134  0.67786930  0.10744227  1
  In  In71  1  0.83530020  0.66198587  0.64673162  1
  In  In72  1  0.33490238  0.00230042  0.75720335  1
  In  In73  1  0.67928686  0.00338842  0.24199656  1
  In  In74  1  0.83513270  0.16704470  0.50484054  1
  In  In75  1  0.50154893  0.50264488  -0.00849085  1
  In  In76  1  0.50025766  0.83180945  0.51016747  1
  In  In77  1  0.16595395  0.83359269  -0.00634369  1
  In  In78  1  0.67710773  0.33000412  0.24857615  1
  In  In79  1  0.32737340  0.33422964  0.25101775  1
  In  In80  1  0.49056760  0.17212644  0.50531122  1
  In  In81  1  0.32364397  0.67371132  0.25055352  1
  In  In82  1  0.83294299  0.16366059  -0.00567955  1
  In  In83  1  0.83717646  0.82308521  0.52100235  1
  In  In84  1  0.67851698  0.66489172  0.25000146  1
  In  In85  1  0.83107657  0.50460481  0.51102488  1
  Cu  Cu86  1  0.16680761  0.49735949  0.74721832  1
  Cu  Cu87  1  0.00421073  0.67168786  0.50599247  1
  Cu  Cu88  1  0.84114134  0.16233517  0.25036505  1
  Cu  Cu89  1  0.49956913  0.50540604  0.26019691  1
  Cu  Cu90  1  0.33279434  0.33888906  -0.00638199  1
  Cu  Cu91  1  0.16791871  0.16353608  0.24570519  1
  Cu  Cu92  1  0.84705581  0.50220359  0.24388792  1
  Cu  Cu93  1  0.48662839  0.16309229  0.24209510  1
  Cu  Cu94  1  0.48992425  0.49096053  0.75068694  1
  Cu  Cu95  1  0.33585190  0.66126742  0.50954272  1
  Cu  Cu96  1  -0.00536004  0.66227680  -0.00983883  1
  Cu  Cu97  1  0.00849156  -0.00104621  0.49869612  1
  Cu  Cu98  1  -0.00326161  -0.00564891  -0.00406922  1
  Cu  Cu99  1  -0.00403534  0.33815038  0.50514835  1
  Cu  Cu100  1  0.16591599  0.83688689  0.24869180  1
  Cu  Cu101  1  0.50703140  0.84622990  0.24263239  1
  Cu  Cu102  1  0.67403609  0.34273437  -0.01721701  1
  Cu  Cu103  1  0.66560253  0.66515820  -0.01436597  1
  Cu  Cu104  1  0.66781765  -0.00751308  -0.00964912  1
  Cu  Cu105  1  0.16098195  0.49560598  0.25174832  1
  Cu  Cu106  1  0.16593252  0.83416834  0.75274833  1
  Cu  Cu107  1  0.33557432  0.66751028  -0.01132097  1
  Cu  Cu108  1  0.00369317  0.33634304  -0.00744199  1
  Cu  Cu109  1  0.49714550  0.16297740  0.75200881  1
  Cu  Cu110  1  0.32862234  -0.00171482  0.49731494  1
  Cu  Cu111  1  0.16876704  0.17422884  0.75065268  1
  Cu  Cu112  1  0.65274944  0.34209663  0.51548074  1
  Cu  Cu113  1  0.67219872  -0.00688775  0.51574930  1
  Cu  Cu114  1  0.83982576  0.16644135  0.75441535  1
  Se  Se115  1  0.07848948  0.07990858  0.04798418  1
  Se  Se116  1  0.08863964  0.08864716  0.54869957  1
  Se  Se117  1  0.08411540  0.41781511  0.05259791  1
  Se  Se118  1  0.07683013  0.42264623  0.55958078  1
  Se  Se119  1  0.07405043  0.74306812  0.05341895  1
  Se  Se120  1  0.08631577  0.75573070  0.56013827  1
  Se  Se121  1  0.44532884  0.11612282  0.06095518  1
  Se  Se122  1  0.40575657  0.07241450  0.56286191  1
  Se  Se123  1  0.41290162  0.41563805  0.05946810  1
  Se  Se124  1  0.41324758  0.40861134  0.55169519  1
  Se  Se125  1  0.41755448  0.75381110  0.04043530  1
  Se  Se126  1  0.41211222  0.74252133  0.57135869  1
  Se  Se127  1  0.74231528  0.07231669  0.05690773  1
  Se  Se128  1  0.75843873  0.07287855  0.57092383  1
  Se  Se129  1  0.75596447  0.41889087  0.04167532  1
  Se  Se130  1  0.74583506  0.41141692  0.57196306  1
  Se  Se131  1  0.74631362  0.74654119  0.04566386  1
  Se  Se132  1  0.73953448  0.73409327  0.57316071  1
  Se  Se133  1  0.24774241  0.25654696  0.04827527  1
  Se  Se134  1  0.23929437  0.24535473  0.55011934  1
  Se  Se135  1  0.24982023  0.58667489  0.04085730  1
  Se  Se136  1  0.24564428  0.58154010  0.55797253  1
  Se  Se137  1  0.25159373  0.91835275  0.05979277  1
  Se  Se138  1  0.24604038  0.91206557  0.54906293  1
  Se  Se139  1  0.58905141  0.26339242  0.03745753  1
  Se  Se140  1  0.58098558  0.25168036  0.57229157  1
  Se  Se141  1  0.59187752  0.59097516  0.05762014  1
  Se  Se142  1  0.58861539  0.58362200  0.55886926  1
  Se  Se143  1  0.57931612  0.91228873  0.04479350  1
  Se  Se144  1  0.59774240  0.90837449  0.57346376  1
  Se  Se145  1  0.92480833  0.25318851  0.05492057  1
  Se  Se146  1  0.91420881  0.26282285  0.56831746  1
  Se  Se147  1  0.91587574  0.57530561  0.04671261  1
  Se  Se148  1  0.92497701  0.59475318  0.56806063  1
  Se  Se149  1  0.91660524  0.90732873  0.04769314  1
  Se  Se150  1  0.92912335  0.92595676  0.56530550  1
  Se  Se151  1  0.07220474  0.25118731  0.44854708  1
  Se  Se152  1  0.08665016  0.24915500  0.94390519  1
  Se  Se153  1  0.07981648  0.58328496  0.45047671  1
  Se  Se154  1  0.08635841  0.58110581  0.94461285  1
  Se  Se155  1  0.08377696  0.91047892  0.44253860  1
  Se  Se156  1  0.07279127  0.91640302  0.93112593  1
  Se  Se157  1  0.40273286  0.25542944  0.43879500  1
  Se  Se158  1  0.42034072  0.25540078  0.94602966  1
  Se  Se159  1  0.42205646  0.58270694  0.45498921  1
  Se  Se160  1  0.42013117  0.59273655  0.92794517  1
  Se  Se161  1  0.41609993  0.92051705  0.44047600  1
  Se  Se162  1  0.39709234  0.93121743  0.95038209  1
  Se  Se163  1  0.73216461  0.26117555  0.45193906  1
  Se  Se164  1  0.75432184  0.25519656  0.92902474  1
  Se  Se165  1  0.74459493  0.59909597  0.44992208  1
  Se  Se166  1  0.75309288  0.57964068  0.93996350  1
  Se  Se167  1  0.75140610  0.91687011  0.45190285  1
  Se  Se168  1  0.75316164  0.90818900  0.94142755  1
  Se  Se169  1  0.24701547  0.08158276  0.44308491  1
  Se  Se170  1  0.25356537  0.08171125  0.95522752  1
  Se  Se171  1  0.24713215  0.41472458  0.45748910  1
  Se  Se172  1  0.24837232  0.42336121  0.94455843  1
  Se  Se173  1  0.25667004  0.74715474  0.45206338  1
  Se  Se174  1  0.25135743  0.74595507  0.92966159  1
  Se  Se175  1  0.59192845  0.07435308  0.45345759  1
  Se  Se176  1  0.58550958  0.08739251  0.94934485  1
  Se  Se177  1  0.57652801  0.42504110  0.45629114  1
  Se  Se178  1  0.59095007  0.42348897  0.92544366  1
  Se  Se179  1  0.59255223  0.74168084  0.44961966  1
  Se  Se180  1  0.57847945  0.74976912  0.93857070  1
  Se  Se181  1  0.92453479  0.07953235  0.44037853  1
  Se  Se182  1  0.91703065  0.07236799  0.93250435  1
  Se  Se183  1  0.91527157  0.41568907  0.44288623  1
  Se  Se184  1  0.91654024  0.41898114  0.94323874  1
  Se  Se185  1  0.92399254  0.75119255  0.44560170  1
  Se  Se186  1  0.91296113  0.74861965  0.93898813  1
  Se  Se187  1  0.23868202  0.24560731  0.31253911  1
  Se  Se188  1  0.25498849  0.24960373  0.80719399  1
  Se  Se189  1  0.24446820  0.57587142  0.31190330  1
  Se  Se190  1  0.24851536  0.58391074  0.79918274  1
  Se  Se191  1  0.25139727  0.91648878  0.30287714  1
  Se  Se192  1  0.24294157  0.91118488  0.81618940  1
  Se  Se193  1  0.56896317  0.24562478  0.30293598  1
  Se  Se194  1  0.58248628  0.24863946  0.80123727  1
  Se  Se195  1  0.58329970  0.58271830  0.31689334  1
  Se  Se196  1  0.57821711  0.57834305  0.79517276  1
  Se  Se197  1  0.58482186  0.91831394  0.31018190  1
  Se  Se198  1  0.57356451  0.91503342  0.81060897  1
  Se  Se199  1  0.91580219  0.25461240  0.30229356  1
  Se  Se200  1  0.92878231  0.25151476  0.79970298  1
  Se  Se201  1  0.92246183  0.58736645  0.30246193  1
  Se  Se202  1  0.91335277  0.57184720  0.80068901  1
  Se  Se203  1  0.91361124  0.91212999  0.29494410  1
  Se  Se204  1  0.93052600  0.93035649  0.79784142  1
  Se  Se205  1  0.08377769  0.07958112  0.30139292  1
  Se  Se206  1  0.08958459  0.08531311  0.80256280  1
  Se  Se207  1  0.08130931  0.41059788  0.30641662  1
  Se  Se208  1  0.08627296  0.41582210  0.80576911  1
  Se  Se209  1  0.09326546  0.74670869  0.30552696  1
  Se  Se210  1  0.07747051  0.74460276  0.79479568  1
  Se  Se211  1  0.41021997  0.07494396  0.29613921  1
  Se  Se212  1  0.42226803  0.08885296  0.81982164  1
  Se  Se213  1  0.41669467  0.42478405  0.31576249  1
  Se  Se214  1  0.40476581  0.40800974  0.80145077  1
  Se  Se215  1  0.42717529  0.76233639  0.30390313  1
  Se  Se216  1  0.39414667  0.73699460  0.79700340  1
  Se  Se217  1  0.75756903  0.09070826  0.31603394  1
  Se  Se218  1  0.75019430  0.08576935  0.80329381  1
  Se  Se219  1  0.76098152  0.42929231  0.30950277  1
  Se  Se220  1  0.73400778  0.39442188  0.80187158  1
  Se  Se221  1  0.76427651  0.75923220  0.31013822  1
  Se  Se222  1  0.74793276  0.74521184  0.80017807  1
  Se  Se223  1  0.25053398  0.08245844  0.18990866  1
  Se  Se224  1  0.24454196  0.08585283  0.69100012  1
  Se  Se225  1  0.24559357  0.42826396  0.18639841  1
  Se  Se226  1  0.24907764  0.41284158  0.69360649  1
  Se  Se227  1  0.23940327  0.75762286  0.18115959  1
  Se  Se228  1  0.24981269  0.75255603  0.69870731  1
  Se  Se229  1  0.58073743  0.09005117  0.18759002  1
  Se  Se230  1  0.58283796  0.08004797  0.70201146  1
  Se  Se231  1  0.57533060  0.42245632  0.19639258  1
  Se  Se232  1  0.58148442  0.40931790  0.70071475  1
  Se  Se233  1  0.58220541  0.75435172  0.18894645  1
  Se  Se234  1  0.56914175  0.74978203  0.71035117  1
  Se  Se235  1  0.91694119  0.07904377  0.19143851  1
  Se  Se236  1  0.92456673  0.08756362  0.69712513  1
  Se  Se237  1  0.92150570  0.41092357  0.19115342  1
  Se  Se238  1  0.91045205  0.44068756  0.71708342  1
  Se  Se239  1  0.91820828  0.73763628  0.19153812  1
  Se  Se240  1  0.89305404  0.77950872  0.69831947  1
  Se  Se241  1  0.08277068  0.24876513  0.19598919  1
  Se  Se242  1  0.08324844  0.25429030  0.69496069  1
  Se  Se243  1  0.08404880  0.58107941  0.19348912  1
  Se  Se244  1  0.08427280  0.58768955  0.69867412  1
  Se  Se245  1  0.08087274  0.91551932  0.19257930  1
  Se  Se246  1  0.08986853  0.92303970  0.69726144  1
  Se  Se247  1  0.41298445  0.25010316  0.18363308  1
  Se  Se248  1  0.40935108  0.24431239  0.70098102  1
  Se  Se249  1  0.42398828  0.58370415  0.19444943  1
  Se  Se250  1  0.41178648  0.57577158  0.69376528  1
  Se  Se251  1  0.41717693  0.92247611  0.19085512  1
  Se  Se252  1  0.42171897  0.90897333  0.69727873  1
  Se  Se253  1  0.75918961  0.23590756  0.18374251  1
  Se  Se254  1  0.75390386  0.24930494  0.70272728  1
  Se  Se255  1  0.75546600  0.57084711  0.18423599  1
  Se  Se256  1  0.75627137  0.56956525  0.70717077  1
  Se  Se257  1  0.76002065  0.89984905  0.18931675  1
  Se  Se258  1  0.72801326  0.93630268  0.70835243  1
