# generated using pymatgen
data_In86Cu29Se144
_symmetry_space_group_name_H-M   'P 1'
_cell_length_a   17.57724758
_cell_length_b   17.57688284
_cell_length_c   23.43563282
_cell_angle_alpha   89.99668654
_cell_angle_beta   90.00350922
_cell_angle_gamma   90.02842089
_symmetry_Int_Tables_number   1
_chemical_formula_structural   In86Cu29Se144
_chemical_formula_sum   'In86 Cu29 Se144'
_cell_volume   7240.51333642
_cell_formula_units_Z   1
loop_
 _symmetry_equiv_pos_site_id
 _symmetry_equiv_pos_as_xyz
  1  'x, y, z'
loop_
 _atom_site_type_symbol
 _atom_site_label
 _atom_site_symmetry_multiplicity
 _atom_site_fract_x
 _atom_site_fract_y
 _atom_site_fract_z
 _atom_site_occupancy
  In  In0  1  0.00006470  0.15822325  0.12331760  1
  In  In1  1  0.01275765  0.16180060  0.62802869  1
  In  In2  1  0.01602079  0.48733253  0.11743760  1
  In  In3  1  0.00307630  0.49976957  0.62602369  1
  In  In4  1  0.00193359  0.83878057  0.12045956  1
  In  In5  1  0.01759963  0.81718053  0.63350263  1
  In  In6  1  0.33605341  0.18225168  0.12431052  1
  In  In7  1  0.33651125  0.17431981  0.62922222  1
  In  In8  1  0.33234027  0.49892260  0.11991663  1
  In  In9  1  0.32871969  0.50903128  0.64150860  1
  In  In10  1  0.32218035  0.82132165  0.11844087  1
  In  In11  1  0.31686437  0.84463926  0.63930394  1
  In  In12  1  0.66591441  0.16665457  0.13531010  1
  In  In13  1  0.66114488  0.18835966  0.63049312  1
  In  In14  1  0.64900487  0.50761473  0.12132243  1
  In  In15  1  0.66105208  0.48277300  0.62729691  1
  In  In16  1  0.66955234  0.83846566  0.11307163  1
  In  In17  1  0.66788971  0.83794626  0.62729363  1
  In  In18  1  0.16082016  0.00925421  0.37865394  1
  In  In19  1  0.17534738  -0.00717888  0.88124838  1
  In  In20  1  0.17165568  0.32935383  0.38446300  1
  In  In21  1  0.16818154  0.33194565  0.87657798  1
  In  In22  1  0.17560111  0.65296997  0.37859307  1
  In  In23  1  0.16557115  0.66414673  0.87408877  1
  In  In24  1  0.50486439  0.00125693  0.37530861  1
  In  In25  1  0.48667090  -0.00084062  0.87378636  1
  In  In26  1  0.48936038  0.32596489  0.37217469  1
  In  In27  1  0.51098463  0.34106066  0.85313865  1
  In  In28  1  0.49452709  0.67790289  0.37072834  1
  In  In29  1  0.49108134  0.67505111  0.88414249  1
  In  In30  1  0.83239294  -0.00639269  0.36252026  1
  In  In31  1  0.82816386  -0.00139162  0.87993171  1
  In  In32  1  0.83365432  0.34571414  0.37602380  1
  In  In33  1  0.83637666  0.33548275  0.86021242  1
  In  In34  1  0.82704146  0.66267219  0.37649243  1
  In  In35  1  0.84659068  0.66665949  0.87684041  1
  In  In36  1  0.01380622  0.16047739  0.37824938  1
  In  In37  1  0.01479971  0.19680586  0.86787752  1
  In  In38  1  0.00551305  0.49774449  0.38575815  1
  In  In39  1  0.00155192  0.50229501  0.87107834  1
  In  In40  1  0.00205159  0.84834632  0.36728553  1
  In  In41  1  0.01421695  0.82389549  0.88486417  1
  In  In42  1  0.31817048  0.17788899  0.38795826  1
  In  In43  1  0.33609866  0.15794279  0.86360070  1
  In  In44  1  0.32895138  0.48986135  0.37199310  1
  In  In45  1  0.33455169  0.49296410  0.86708314  1
  In  In46  1  0.33741982  0.82050312  0.37218306  1
  In  In47  1  0.33009778  0.82948592  0.87593570  1
  In  In48  1  0.65722393  0.16026465  0.37082228  1
  In  In49  1  0.65921607  0.17924828  0.86909165  1
  In  In50  1  0.67855170  0.50305774  0.37639449  1
  In  In51  1  0.66460563  0.48920019  0.87875499  1
  In  In52  1  0.65928343  0.83685229  0.36779155  1
  In  In53  1  0.66948825  0.82415233  0.89645938  1
  In  In54  1  0.16121357  -0.00615601  0.11915676  1
  In  In55  1  0.19715943  0.02124460  0.60100365  1
  In  In56  1  0.17598719  0.34615488  0.10705094  1
  In  In57  1  0.16491995  0.33396974  0.62919504  1
  In  In58  1  0.17441667  0.67144262  0.11789674  1
  In  In59  1  0.17133937  0.66233626  0.62809578  1
  In  In60  1  0.51264501  0.00445593  0.12586276  1
  In  In61  1  0.47350572  0.00115349  0.62577216  1
  In  In62  1  0.48994294  0.34142685  0.12951412  1
  In  In63  1  0.50589459  0.32830427  0.64312708  1
  In  In64  1  0.49224280  0.65090127  0.10856703  1
  In  In65  1  0.48351288  0.65525718  0.63225968  1
  In  In66  1  0.83726109  -0.01076125  0.13715532  1
  In  In67  1  0.83877476  0.00226373  0.62101025  1
  In  In68  1  0.83245953  0.32148418  0.12524076  1
  In  In69  1  0.82032530  0.34288947  0.63503688  1
  In  In70  1  0.82191694  0.67772554  0.11815530  1
  In  In71  1  0.85502741  0.66742182  0.62908277  1
  In  In72  1  0.49472653  0.49568118  0.50616785  1
  In  In73  1  0.83347022  0.50295157  -0.00535917  1
  In  In74  1  0.00270717  0.32576767  0.24936084  1
  In  In75  1  0.00654194  -0.00048395  0.74317242  1
  In  In76  1  0.84074334  0.16402563  -0.00095089  1
  In  In77  1  0.65948323  0.00622308  0.76132057  1
  In  In78  1  -0.00051476  0.67006009  0.23923681  1
  In  In79  1  0.66136539  0.67091473  0.24714758  1
  In  In80  1  0.49534384  0.16528722  -0.00494629  1
  In  In81  1  0.83805406  0.17179279  0.50131499  1
  In  In82  1  0.66318578  0.66215632  0.75879943  1
  In  In83  1  0.49519952  0.83509810  0.49424483  1
  In  In84  1  0.84063149  0.83255446  0.48854609  1
  In  In85  1  0.33278902  0.00116296  0.25342695  1
  Cu  Cu86  1  0.66159734  0.33303342  -0.00140277  1
  Cu  Cu87  1  0.32512984  0.66044829  -0.00618901  1
  Cu  Cu88  1  0.32999007  -0.00435076  -0.00400515  1
  Cu  Cu89  1  0.65672345  0.01122931  0.49854407  1
  Cu  Cu90  1  0.82768373  0.16584101  0.25049616  1
  Cu  Cu91  1  0.16980460  0.16949642  0.25416034  1
  Cu  Cu92  1  0.15927448  0.49987319  0.75267867  1
  Cu  Cu93  1  0.32807671  0.33595936  0.50738487  1
  Cu  Cu94  1  0.83501841  0.50544152  0.74972049  1
  Cu  Cu95  1  0.49479503  0.82875415  0.75597892  1
  Cu  Cu96  1  0.83370692  0.49903662  0.25247595  1
  Cu  Cu97  1  0.33629985  0.33608735  -0.00588900  1
  Cu  Cu98  1  0.00300333  0.00348051  0.00106887  1
  Cu  Cu99  1  0.67756727  0.66092881  0.50451152  1
  Cu  Cu100  1  0.01013144  0.66200883  0.50572112  1
  Cu  Cu101  1  0.49948212  0.17323543  0.25200388  1
  Cu  Cu102  1  0.66946268  -0.00332284  0.00363951  1
  Cu  Cu103  1  0.16364362  0.83071604  0.24300821  1
  Cu  Cu104  1  0.49540380  0.49792036  0.24352674  1
  Cu  Cu105  1  0.00627313  -0.00724029  0.49968149  1
  Cu  Cu106  1  0.17115019  0.83382975  0.75414960  1
  Cu  Cu107  1  0.00285229  0.33655088  0.50530455  1
  Cu  Cu108  1  0.00122431  0.66941135  -0.00085752  1
  Cu  Cu109  1  0.17904174  0.49339014  0.24865131  1
  Cu  Cu110  1  0.49650047  0.83203254  0.24454944  1
  Cu  Cu111  1  0.66365104  0.33405250  0.50522224  1
  Cu  Cu112  1  0.16969789  0.16608727  0.74697042  1
  Cu  Cu113  1  0.32918245  0.66671962  0.50373154  1
  Cu  Cu114  1  0.83999580  0.83758128  0.75392059  1
  Se  Se115  1  0.08801662  0.08746051  0.05200774  1
  Se  Se116  1  0.08224721  0.08552857  0.54961351  1
  Se  Se117  1  0.08271529  0.41434791  0.03868813  1
  Se  Se118  1  0.08789539  0.41946091  0.55686598  1
  Se  Se119  1  0.08366274  0.75220727  0.05448902  1
  Se  Se120  1  0.09326928  0.74798133  0.55499636  1
  Se  Se121  1  0.40776384  0.07574709  0.05981352  1
  Se  Se122  1  0.40704131  0.08723380  0.55471298  1
  Se  Se123  1  0.41927057  0.41712596  0.05119171  1
  Se  Se124  1  0.40857357  0.41142992  0.57065598  1
  Se  Se125  1  0.40815829  0.74435399  0.04908240  1
  Se  Se126  1  0.41226656  0.74709128  0.56114467  1
  Se  Se127  1  0.74668795  0.08167917  0.06208991  1
  Se  Se128  1  0.74151104  0.08371191  0.55985602  1
  Se  Se129  1  0.74562533  0.41075976  0.05870520  1
  Se  Se130  1  0.75080228  0.41759958  0.55386878  1
  Se  Se131  1  0.74007590  0.74576688  0.04497915  1
  Se  Se132  1  0.75326119  0.75014512  0.56008917  1
  Se  Se133  1  0.25564519  0.24884844  0.04701985  1
  Se  Se134  1  0.24528117  0.24997946  0.55917268  1
  Se  Se135  1  0.24422151  0.57723267  0.05073473  1
  Se  Se136  1  0.25529388  0.57806172  0.55967520  1
  Se  Se137  1  0.24761253  0.91370424  0.05215136  1
  Se  Se138  1  0.25208011  0.90272277  0.55189185  1
  Se  Se139  1  0.58526754  0.25124914  0.06044219  1
  Se  Se140  1  0.57454162  0.25805862  0.55826959  1
  Se  Se141  1  0.58427672  0.57919297  0.04084070  1
  Se  Se142  1  0.58814159  0.59082997  0.56274452  1
  Se  Se143  1  0.57491784  0.91854263  0.04979634  1
  Se  Se144  1  0.58517637  0.92330662  0.55886862  1
  Se  Se145  1  0.93028024  0.26001320  0.05473619  1
  Se  Se146  1  0.92260489  0.25783563  0.56662792  1
  Se  Se147  1  0.92366128  0.58873914  0.06220685  1
  Se  Se148  1  0.91929873  0.58229868  0.55401784  1
  Se  Se149  1  0.91597136  0.92514503  0.05580454  1
  Se  Se150  1  0.92796408  0.91190143  0.56036729  1
  Se  Se151  1  0.08067549  0.25026460  0.44958660  1
  Se  Se152  1  0.09483012  0.24562616  0.95030899  1
  Se  Se153  1  0.09272327  0.57735108  0.45142688  1
  Se  Se154  1  0.07917146  0.58351459  0.94388182  1
  Se  Se155  1  0.08685131  0.91120781  0.44371780  1
  Se  Se156  1  0.08772610  0.91700583  0.95073421  1
  Se  Se157  1  0.41308676  0.25650797  0.45109165  1
  Se  Se158  1  0.41531812  0.25711070  0.93210190  1
  Se  Se159  1  0.41385188  0.59057399  0.44193797  1
  Se  Se160  1  0.40977485  0.57707817  0.94170770  1
  Se  Se161  1  0.40335573  0.92572283  0.43826522  1
  Se  Se162  1  0.41555522  0.91281854  0.94533039  1
  Se  Se163  1  0.74240801  0.25608555  0.44124149  1
  Se  Se164  1  0.74788400  0.25732590  0.94094538  1
  Se  Se165  1  0.75903938  0.57785658  0.45117082  1
  Se  Se166  1  0.74165082  0.59334156  0.93839907  1
  Se  Se167  1  0.73787439  0.92678877  0.44135123  1
  Se  Se168  1  0.75810030  0.91554763  0.95391075  1
  Se  Se169  1  0.24620901  0.08089731  0.44940626  1
  Se  Se170  1  0.25707674  0.08708333  0.94226005  1
  Se  Se171  1  0.25018590  0.42081271  0.45011144  1
  Se  Se172  1  0.25079839  0.42004501  0.94289084  1
  Se  Se173  1  0.25150469  0.74735502  0.44385972  1
  Se  Se174  1  0.24329674  0.75021366  0.94490095  1
  Se  Se175  1  0.57288748  0.09276332  0.44703099  1
  Se  Se176  1  0.59403451  0.07670300  0.93904020  1
  Se  Se177  1  0.58686368  0.41438951  0.44064445  1
  Se  Se178  1  0.57448509  0.40672176  0.94185746  1
  Se  Se179  1  0.59646438  0.73983577  0.44354501  1
  Se  Se180  1  0.57530454  0.74833493  0.95634032  1
  Se  Se181  1  0.91816168  0.06993422  0.44150879  1
  Se  Se182  1  0.93166299  0.08236684  0.93404631  1
  Se  Se183  1  0.91695895  0.41563816  0.45017306  1
  Se  Se184  1  0.91928866  0.40728723  0.93848699  1
  Se  Se185  1  0.93438773  0.73745924  0.43617936  1
  Se  Se186  1  0.91487767  0.75413763  0.95007022  1
  Se  Se187  1  0.24975699  0.25498039  0.30780821  1
  Se  Se188  1  0.24798614  0.24833285  0.80482989  1
  Se  Se189  1  0.25653118  0.58178653  0.30241553  1
  Se  Se190  1  0.24663672  0.58154699  0.80446424  1
  Se  Se191  1  0.24119549  0.90803126  0.30919151  1
  Se  Se192  1  0.25445741  0.91945939  0.80549127  1
  Se  Se193  1  0.58497953  0.25593754  0.30515196  1
  Se  Se194  1  0.58299863  0.24347149  0.79033263  1
  Se  Se195  1  0.57440317  0.57565356  0.30917823  1
  Se  Se196  1  0.57181527  0.57667945  0.81673087  1
  Se  Se197  1  0.57522483  0.91692592  0.30012897  1
  Se  Se198  1  0.58242821  0.90002519  0.81700376  1
  Se  Se199  1  0.91081901  0.24040066  0.31411276  1
  Se  Se200  1  0.91471079  0.24495064  0.79765416  1
  Se  Se201  1  0.91812928  0.57748644  0.30869842  1
  Se  Se202  1  0.91949999  0.58768976  0.80212571  1
  Se  Se203  1  0.91576168  0.91446258  0.29532598  1
  Se  Se204  1  0.92151052  0.91502703  0.81357735  1
  Se  Se205  1  0.08350002  0.08218443  0.30038927  1
  Se  Se206  1  0.09147157  0.08547530  0.81044468  1
  Se  Se207  1  0.08980164  0.42087212  0.30854830  1
  Se  Se208  1  0.08075253  0.41185312  0.80622590  1
  Se  Se209  1  0.08947111  0.74806583  0.30796999  1
  Se  Se210  1  0.08395583  0.75119936  0.80438232  1
  Se  Se211  1  0.41658728  0.09614861  0.31369343  1
  Se  Se212  1  0.43460112  0.08953442  0.79857914  1
  Se  Se213  1  0.41636612  0.41563574  0.30231134  1
  Se  Se214  1  0.39609463  0.39366145  0.79630185  1
  Se  Se215  1  0.41319774  0.74601579  0.29447797  1
  Se  Se216  1  0.41101077  0.74421541  0.80633810  1
  Se  Se217  1  0.74450370  0.08161085  0.30314035  1
  Se  Se218  1  0.76127434  0.09498175  0.80985995  1
  Se  Se219  1  0.74775324  0.41642789  0.30254057  1
  Se  Se220  1  0.74798169  0.42381057  0.80141063  1
  Se  Se221  1  0.75894959  0.75786617  0.30557207  1
  Se  Se222  1  0.75488878  0.76028642  0.81206639  1
  Se  Se223  1  0.24665822  0.08996484  0.18939980  1
  Se  Se224  1  0.25139124  0.08140580  0.69285808  1
  Se  Se225  1  0.25311467  0.40941768  0.18919045  1
  Se  Se226  1  0.24359163  0.41679133  0.70061972  1
  Se  Se227  1  0.24959440  0.74452233  0.19664505  1
  Se  Se228  1  0.25166119  0.74288027  0.70209797  1
  Se  Se229  1  0.58118442  0.08464336  0.20287041  1
  Se  Se230  1  0.58151846  0.07824408  0.68335666  1
  Se  Se231  1  0.58534984  0.41738629  0.19429181  1
  Se  Se232  1  0.57896295  0.42610219  0.70542072  1
  Se  Se233  1  0.57218134  0.75089290  0.18111126  1
  Se  Se234  1  0.57741127  0.75538029  0.69271726  1
  Se  Se235  1  0.91532369  0.08802719  0.19667590  1
  Se  Se236  1  0.90746033  0.09205629  0.69314266  1
  Se  Se237  1  0.91483499  0.42284459  0.18993006  1
  Se  Se238  1  0.91685440  0.42040051  0.69613631  1
  Se  Se239  1  0.90301769  0.76138945  0.18950298  1
  Se  Se240  1  0.92339981  0.75198569  0.70370874  1
  Se  Se241  1  0.09557566  0.24660838  0.18576610  1
  Se  Se242  1  0.08151921  0.25005171  0.69955917  1
  Se  Se243  1  0.09392985  0.57217154  0.19073917  1
  Se  Se244  1  0.08081174  0.58597284  0.69629426  1
  Se  Se245  1  0.08173215  0.91791746  0.19408406  1
  Se  Se246  1  0.10445978  0.91732002  0.68611403  1
  Se  Se247  1  0.41382539  0.25485573  0.20021156  1
  Se  Se248  1  0.40200317  0.26358824  0.70442555  1
  Se  Se249  1  0.41603712  0.58318418  0.18923484  1
  Se  Se250  1  0.42154115  0.57800963  0.71074640  1
  Se  Se251  1  0.41577187  0.91409549  0.18544652  1
  Se  Se252  1  0.41396459  0.91572621  0.70413159  1
  Se  Se253  1  0.74822100  0.25523637  0.20048853  1
  Se  Se254  1  0.75095380  0.24967720  0.70237218  1
  Se  Se255  1  0.75517312  0.57745233  0.18985613  1
  Se  Se256  1  0.75296593  0.58400755  0.68851312  1
  Se  Se257  1  0.73148289  0.91956759  0.19208170  1
  Se  Se258  1  0.75830730  0.91691903  0.69631576  1
