# generated using pymatgen
data_In86Cu29Se144
_symmetry_space_group_name_H-M   'P 1'
_cell_length_a   17.57431127
_cell_length_b   17.57651722
_cell_length_c   23.42953437
_cell_angle_alpha   89.96621848
_cell_angle_beta   89.99690752
_cell_angle_gamma   90.00118166
_symmetry_Int_Tables_number   1
_chemical_formula_structural   In86Cu29Se144
_chemical_formula_sum   'In86 Cu29 Se144'
_cell_volume   7237.26907541
_cell_formula_units_Z   1
loop_
 _symmetry_equiv_pos_site_id
 _symmetry_equiv_pos_as_xyz
  1  'x, y, z'
loop_
 _atom_site_type_symbol
 _atom_site_label
 _atom_site_symmetry_multiplicity
 _atom_site_fract_x
 _atom_site_fract_y
 _atom_site_fract_z
 _atom_site_occupancy
  In  In0  1  0.00538896  0.17702942  0.10086094  1
  In  In1  1  0.02132191  0.15912030  0.62837419  1
  In  In2  1  0.00660831  0.50544945  0.12441303  1
  In  In3  1  -0.01065973  0.50878993  0.63202452  1
  In  In4  1  -0.01341512  0.82069453  0.11545433  1
  In  In5  1  -0.01502948  0.83437501  0.62600113  1
  In  In6  1  0.33871883  0.17397905  0.11350154  1
  In  In7  1  0.33433031  0.16057520  0.63421491  1
  In  In8  1  0.32796174  0.48357183  0.12300825  1
  In  In9  1  0.35066072  0.49668180  0.64544518  1
  In  In10  1  0.33795344  0.83884159  0.11549924  1
  In  In11  1  0.34347881  0.82616254  0.63698100  1
  In  In12  1  0.66293289  0.16277145  0.11069461  1
  In  In13  1  0.65587423  0.17333759  0.63352006  1
  In  In14  1  0.67149064  0.51631619  0.12129220  1
  In  In15  1  0.66502112  0.49434636  0.62533475  1
  In  In16  1  0.66289455  0.82556194  0.11882747  1
  In  In17  1  0.68132406  0.84251754  0.62456516  1
  In  In18  1  0.18344104  0.00452358  0.37967002  1
  In  In19  1  0.16943180  -0.00381097  0.87490403  1
  In  In20  1  0.16946324  0.32393673  0.38061471  1
  In  In21  1  0.16296111  0.31845649  0.86064323  1
  In  In22  1  0.16045582  0.67858741  0.37600254  1
  In  In23  1  0.17116770  0.67154568  0.86896517  1
  In  In24  1  0.51010926  -0.00596286  0.38813115  1
  In  In25  1  0.49919745  0.00033632  0.87331934  1
  In  In26  1  0.48628817  0.33712399  0.37575341  1
  In  In27  1  0.49367984  0.33165083  0.86928951  1
  In  In28  1  0.51258140  0.66149740  0.38085232  1
  In  In29  1  0.49379221  0.67736229  0.88037804  1
  In  In30  1  0.81934430  -0.00461800  0.37623203  1
  In  In31  1  0.83124785  0.00026558  0.87192833  1
  In  In32  1  0.84944258  0.33609970  0.38198045  1
  In  In33  1  0.83032104  0.33005056  0.86769751  1
  In  In34  1  0.83823722  0.66656092  0.38196246  1
  In  In35  1  0.84361165  0.67151721  0.87083023  1
  In  In36  1  0.00648112  0.18136973  0.38349727  1
  In  In37  1  -0.00102048  0.17508098  0.87873564  1
  In  In38  1  -0.01479574  0.50870860  0.38854547  1
  In  In39  1  -0.00410138  0.49626517  0.86757696  1
  In  In40  1  0.00193202  0.81878785  0.37842079  1
  In  In41  1  0.00379024  0.82970846  0.87622055  1
  In  In42  1  0.32967981  0.17152150  0.38247121  1
  In  In43  1  0.32845346  0.16739041  0.86822867  1
  In  In44  1  0.34724161  0.48926484  0.37276733  1
  In  In45  1  0.34792226  0.50504818  0.86237060  1
  In  In46  1  0.33513529  0.84194855  0.38135977  1
  In  In47  1  0.33079455  0.83687113  0.87360319  1
  In  In48  1  0.66503251  0.15211133  0.37811268  1
  In  In49  1  0.66689744  0.16378159  0.87044198  1
  In  In50  1  0.66692754  0.52058760  0.37733507  1
  In  In51  1  0.65712461  0.48469827  0.86692434  1
  In  In52  1  0.69726213  0.79835335  0.41495664  1
  In  In53  1  0.66356024  0.83756848  0.87662100  1
  In  In54  1  0.16750253  0.00283965  0.11159899  1
  In  In55  1  0.16637437  0.02278746  0.62778240  1
  In  In56  1  0.17591501  0.33722041  0.12011291  1
  In  In57  1  0.17983096  0.31083026  0.64681104  1
  In  In58  1  0.15190389  0.65866188  0.12406318  1
  In  In59  1  0.16421019  0.66890357  0.63411257  1
  In  In60  1  0.49688900  -0.00045188  0.11468309  1
  In  In61  1  0.49943519  0.00071048  0.63476536  1
  In  In62  1  0.48749720  0.32191030  0.11320199  1
  In  In63  1  0.51569755  0.33138078  0.63848922  1
  In  In64  1  0.50960454  0.67605163  0.11556840  1
  In  In65  1  0.49229936  0.66164987  0.62542936  1
  In  In66  1  0.83442287  -0.00028664  0.11139556  1
  In  In67  1  0.83606381  -0.03168719  0.62741896  1
  In  In68  1  0.84073202  0.32969114  0.11500342  1
  In  In69  1  0.82588330  0.34009324  0.63378516  1
  In  In70  1  0.82389154  0.66918863  0.13009042  1
  In  In71  1  0.84874519  0.68257754  0.60384235  1
  In  In72  1  0.82795069  0.49776698  -0.01158722  1
  In  In73  1  0.50602222  0.49909260  0.50565802  1
  In  In74  1  0.66885016  0.66490354  0.74412973  1
  In  In75  1  0.33222237  0.66154283  0.24894150  1
  In  In76  1  0.83564678  0.16001234  0.50445609  1
  In  In77  1  0.15769008  0.84826682  0.51229219  1
  In  In78  1  0.16842404  0.49449684  -0.00347724  1
  In  In79  1  -0.00151450  0.00248471  0.75124915  1
  In  In80  1  0.00754211  0.34348387  0.24467789  1
  In  In81  1  0.00299663  0.00019748  0.24922718  1
  In  In82  1  0.16298396  0.49743329  0.51060879  1
  In  In83  1  0.65938868  -0.01150448  0.24708709  1
  In  In84  1  0.33731979  -0.00031458  0.24820222  1
  In  In85  1  0.66182163  0.33945365  0.25035517  1
  Cu  Cu86  1  0.15726381  0.82482584  0.24412649  1
  Cu  Cu87  1  0.48996562  0.17110416  0.24645109  1
  Cu  Cu88  1  0.82797308  0.82242986  0.25504916  1
  Cu  Cu89  1  -0.00180570  0.66912147  -0.00160355  1
  Cu  Cu90  1  0.33933693  0.00927615  0.50742379  1
  Cu  Cu91  1  0.00865262  0.33041808  0.51315551  1
  Cu  Cu92  1  0.17525543  0.17309575  0.25264141  1
  Cu  Cu93  1  0.49923707  0.83698130  0.75532181  1
  Cu  Cu94  1  0.33530832  0.00108827  -0.00868205  1
  Cu  Cu95  1  0.16147626  0.50048748  0.25094525  1
  Cu  Cu96  1  0.32909928  0.66851136  0.50952001  1
  Cu  Cu97  1  0.83778669  0.16849710  0.23777173  1
  Cu  Cu98  1  0.49978635  0.49667964  0.24602140  1
  Cu  Cu99  1  0.32989876  0.33212894  -0.01017552  1
  Cu  Cu100  1  0.66555886  0.66944413  -0.00390186  1
  Cu  Cu101  1  0.83435441  0.50375420  0.74963223  1
  Cu  Cu102  1  0.83064954  0.50996092  0.25605727  1
  Cu  Cu103  1  0.66657449  0.00062633  -0.00817762  1
  Cu  Cu104  1  0.65943688  0.32795581  -0.00999833  1
  Cu  Cu105  1  0.33314273  0.66878857  -0.00847927  1
  Cu  Cu106  1  0.65643214  0.00898424  0.51195880  1
  Cu  Cu107  1  0.83119974  0.16576046  0.74860847  1
  Cu  Cu108  1  0.16557822  0.83341612  0.75206699  1
  Cu  Cu109  1  0.49980120  0.16611933  0.75487696  1
  Cu  Cu110  1  0.51089135  0.82227989  0.25299627  1
  Cu  Cu111  1  0.00158219  -0.00166883  -0.00912318  1
  Cu  Cu112  1  0.66627511  0.32983318  0.50576484  1
  Cu  Cu113  1  0.33341446  0.32362840  0.50965111  1
  Cu  Cu114  1  0.16572068  0.50011591  0.75184765  1
  Se  Se115  1  0.08742713  0.08443164  0.04157001  1
  Se  Se116  1  0.07466340  0.07179682  0.55015683  1
  Se  Se117  1  0.07135164  0.40746891  0.05532265  1
  Se  Se118  1  0.08549116  0.40733623  0.57672980  1
  Se  Se119  1  0.08595594  0.74826621  0.05215052  1
  Se  Se120  1  0.07612862  0.74200428  0.55955767  1
  Se  Se121  1  0.41717331  0.08467944  0.04756146  1
  Se  Se122  1  0.42347826  0.08843193  0.56269095  1
  Se  Se123  1  0.41045812  0.41511030  0.04740783  1
  Se  Se124  1  0.41462549  0.41005788  0.56470320  1
  Se  Se125  1  0.41603149  0.74993621  0.04955769  1
  Se  Se126  1  0.41617297  0.75218707  0.55722173  1
  Se  Se127  1  0.75161246  0.08471915  0.04541060  1
  Se  Se128  1  0.74685945  0.07938727  0.57045267  1
  Se  Se129  1  0.73771010  0.40973100  0.05361309  1
  Se  Se130  1  0.74943474  0.41428398  0.55572178  1
  Se  Se131  1  0.75248322  0.74627649  0.05193289  1
  Se  Se132  1  0.74501316  0.75569871  0.54824119  1
  Se  Se133  1  0.24716869  0.25206110  0.04765016  1
  Se  Se134  1  0.24912065  0.24338010  0.56304195  1
  Se  Se135  1  0.25663007  0.58929971  0.05781635  1
  Se  Se136  1  0.25981349  0.58179258  0.57003935  1
  Se  Se137  1  0.25272057  0.91736630  0.04782922  1
  Se  Se138  1  0.26114416  0.92550970  0.56857202  1
  Se  Se139  1  0.57709248  0.24546117  0.04585023  1
  Se  Se140  1  0.57952053  0.25169476  0.55775944  1
  Se  Se141  1  0.58376429  0.58280709  0.04808156  1
  Se  Se142  1  0.59548702  0.59606275  0.55660462  1
  Se  Se143  1  0.58768831  0.91861007  0.05274754  1
  Se  Se144  1  0.58124031  0.91802428  0.56381213  1
  Se  Se145  1  0.90419481  0.24476033  0.04107566  1
  Se  Se146  1  0.91909707  0.25156718  0.56755694  1
  Se  Se147  1  0.91651848  0.58561233  0.05546995  1
  Se  Se148  1  0.91605167  0.57332064  0.54979677  1
  Se  Se149  1  0.91892744  0.91532759  0.04686877  1
  Se  Se150  1  0.92667799  0.92268303  0.54882749  1
  Se  Se151  1  0.09140302  0.25079385  0.45723629  1
  Se  Se152  1  0.09259118  0.25129374  0.94301803  1
  Se  Se153  1  0.08173175  0.59434034  0.44900683  1
  Se  Se154  1  0.07635132  0.58635878  0.93978362  1
  Se  Se155  1  0.07907464  0.92679441  0.43530438  1
  Se  Se156  1  0.08753724  0.91226580  0.94376017  1
  Se  Se157  1  0.41925318  0.25045626  0.44942240  1
  Se  Se158  1  0.41392004  0.24714635  0.93954628  1
  Se  Se159  1  0.40630179  0.58699553  0.44627659  1
  Se  Se160  1  0.41595011  0.58088671  0.94364360  1
  Se  Se161  1  0.41472234  0.91950122  0.45268398  1
  Se  Se162  1  0.41892810  0.91417058  0.94296278  1
  Se  Se163  1  0.74604670  0.25314849  0.44061827  1
  Se  Se164  1  0.74915347  0.25032069  0.93942778  1
  Se  Se165  1  0.76276916  0.57201389  0.44803916  1
  Se  Se166  1  0.73847250  0.58985924  0.93048502  1
  Se  Se167  1  0.74199193  0.92952640  0.45508955  1
  Se  Se168  1  0.75342589  0.91564977  0.94414213  1
  Se  Se169  1  0.25182960  0.08796841  0.45417800  1
  Se  Se170  1  0.24939117  0.08481531  0.94170274  1
  Se  Se171  1  0.26106520  0.41178990  0.44852506  1
  Se  Se172  1  0.25424661  0.41447757  0.92869278  1
  Se  Se173  1  0.25083666  0.74992862  0.44968901  1
  Se  Se174  1  0.24677719  0.75169044  0.94286833  1
  Se  Se175  1  0.57797151  0.09225712  0.45472392  1
  Se  Se176  1  0.58219443  0.08505962  0.94168568  1
  Se  Se177  1  0.59179728  0.40978419  0.43816574  1
  Se  Se178  1  0.57570782  0.41558511  0.94251073  1
  Se  Se179  1  0.56156045  0.76443965  0.44748969  1
  Se  Se180  1  0.58133669  0.75694608  0.94749044  1
  Se  Se181  1  0.92193345  0.07793406  0.43569374  1
  Se  Se182  1  0.91695192  0.08129756  0.93970492  1
  Se  Se183  1  0.92394551  0.41119614  0.45842467  1
  Se  Se184  1  0.92512459  0.40585058  0.94063866  1
  Se  Se185  1  0.90644478  0.76433827  0.44929348  1
  Se  Se186  1  0.91397885  0.75300854  0.94656967  1
  Se  Se187  1  0.25688210  0.25509946  0.30717097  1
  Se  Se188  1  0.26224216  0.25684663  0.79445937  1
  Se  Se189  1  0.24285519  0.57538505  0.31541850  1
  Se  Se190  1  0.25082339  0.58497081  0.80256873  1
  Se  Se191  1  0.24016296  0.90426507  0.30329449  1
  Se  Se192  1  0.24970517  0.91831875  0.80192035  1
  Se  Se193  1  0.57743257  0.24055946  0.30975017  1
  Se  Se194  1  0.58552819  0.25155746  0.80376816  1
  Se  Se195  1  0.57729537  0.58100050  0.30147317  1
  Se  Se196  1  0.57708666  0.58676274  0.81033730  1
  Se  Se197  1  0.58364789  0.90336682  0.31729867  1
  Se  Se198  1  0.58573366  0.91937005  0.80471081  1
  Se  Se199  1  0.91580003  0.24568119  0.30263203  1
  Se  Se200  1  0.91669396  0.24659164  0.80183812  1
  Se  Se201  1  0.92022917  0.58625952  0.30837358  1
  Se  Se202  1  0.91970295  0.58685619  0.80109326  1
  Se  Se203  1  0.90813117  0.91153638  0.30833889  1
  Se  Se204  1  0.91130110  0.90573973  0.80523183  1
  Se  Se205  1  0.09298573  0.09376174  0.31142733  1
  Se  Se206  1  0.08855182  0.09113304  0.80929973  1
  Se  Se207  1  0.08592095  0.42434023  0.31949315  1
  Se  Se208  1  0.08063687  0.41474436  0.80142603  1
  Se  Se209  1  0.07579269  0.74368221  0.29990406  1
  Se  Se210  1  0.08012659  0.74881815  0.80238981  1
  Se  Se211  1  0.42459116  0.08499043  0.31306729  1
  Se  Se212  1  0.41461928  0.08004573  0.80360269  1
  Se  Se213  1  0.41610027  0.41073827  0.29489806  1
  Se  Se214  1  0.41963240  0.41415585  0.79529838  1
  Se  Se215  1  0.41781822  0.75355496  0.31119061  1
  Se  Se216  1  0.41460267  0.75234878  0.80527799  1
  Se  Se217  1  0.75625160  0.09019372  0.29840098  1
  Se  Se218  1  0.75001193  0.08069332  0.80111496  1
  Se  Se219  1  0.75901778  0.41912440  0.31368531  1
  Se  Se220  1  0.75071128  0.41707830  0.79930412  1
  Se  Se221  1  0.74479686  0.74825669  0.31624134  1
  Se  Se222  1  0.75342989  0.75585185  0.80637231  1
  Se  Se223  1  0.24548874  0.08867389  0.18865018  1
  Se  Se224  1  0.24414515  0.08974044  0.70526149  1
  Se  Se225  1  0.24343212  0.41565841  0.19920404  1
  Se  Se226  1  0.25240567  0.41695723  0.70222930  1
  Se  Se227  1  0.24673033  0.75284600  0.18548993  1
  Se  Se228  1  0.25068303  0.74818927  0.70117593  1
  Se  Se229  1  0.57434020  0.09006754  0.18921309  1
  Se  Se230  1  0.58522990  0.08219677  0.70325187  1
  Se  Se231  1  0.57702631  0.42024812  0.18032076  1
  Se  Se232  1  0.57703109  0.43552201  0.70084171  1
  Se  Se233  1  0.59039744  0.74288303  0.19468206  1
  Se  Se234  1  0.57671871  0.76000601  0.68939097  1
  Se  Se235  1  0.92032077  0.08911021  0.18063046  1
  Se  Se236  1  0.90745302  0.08549611  0.68537418  1
  Se  Se237  1  0.90378950  0.42890595  0.19013197  1
  Se  Se238  1  0.91800212  0.41527394  0.70045265  1
  Se  Se239  1  0.91485402  0.74799349  0.19602838  1
  Se  Se240  1  0.91120625  0.74401463  0.69160726  1
  Se  Se241  1  0.08888948  0.24208849  0.18742374  1
  Se  Se242  1  0.06854712  0.25237093  0.70468303  1
  Se  Se243  1  0.07665037  0.58433463  0.20158696  1
  Se  Se244  1  0.08072676  0.58408942  0.69961670  1
  Se  Se245  1  0.08661397  0.91147992  0.18274510  1
  Se  Se246  1  0.08908809  0.91272105  0.68860395  1
  Se  Se247  1  0.40809364  0.25308848  0.19234510  1
  Se  Se248  1  0.42098516  0.24944966  0.69792190  1
  Se  Se249  1  0.41977637  0.57733919  0.18365051  1
  Se  Se250  1  0.41890705  0.59628005  0.70625988  1
  Se  Se251  1  0.43142856  0.90523561  0.19372873  1
  Se  Se252  1  0.41284978  0.92113884  0.70433705  1
  Se  Se253  1  0.75013142  0.24888519  0.18611388  1
  Se  Se254  1  0.74492020  0.25291603  0.69982866  1
  Se  Se255  1  0.74368312  0.58709303  0.20147071  1
  Se  Se256  1  0.76278576  0.58180226  0.68315830  1
  Se  Se257  1  0.76039371  0.90903201  0.18874288  1
  Se  Se258  1  0.74440662  0.92215087  0.70479932  1
