# generated using pymatgen
data_In86Cu29Se144
_symmetry_space_group_name_H-M   'P 1'
_cell_length_a   17.58437873
_cell_length_b   17.58538025
_cell_length_c   23.44670284
_cell_angle_alpha   89.97309003
_cell_angle_beta   90.01407787
_cell_angle_gamma   89.98649919
_symmetry_Int_Tables_number   1
_chemical_formula_structural   In86Cu29Se144
_chemical_formula_sum   'In86 Cu29 Se144'
_cell_volume   7250.37548834
_cell_formula_units_Z   1
loop_
 _symmetry_equiv_pos_site_id
 _symmetry_equiv_pos_as_xyz
  1  'x, y, z'
loop_
 _atom_site_type_symbol
 _atom_site_label
 _atom_site_symmetry_multiplicity
 _atom_site_fract_x
 _atom_site_fract_y
 _atom_site_fract_z
 _atom_site_occupancy
  In  In0  1  0.02361306  0.17417031  0.12250346  1
  In  In1  1  -0.00753365  0.17735725  0.63130329  1
  In  In2  1  -0.01360857  0.49534941  0.12064873  1
  In  In3  1  0.01702431  0.48232025  0.63043897  1
  In  In4  1  0.00865417  0.82815995  0.11905390  1
  In  In5  1  0.00088762  0.83246639  0.63414814  1
  In  In6  1  0.33309381  0.17868171  0.11684873  1
  In  In7  1  0.34115130  0.17426684  0.63234795  1
  In  In8  1  0.34786521  0.48680829  0.12679434  1
  In  In9  1  0.31022890  0.51903974  0.64115341  1
  In  In10  1  0.33134726  0.82673297  0.11990505  1
  In  In11  1  0.31480416  0.81770641  0.62327021  1
  In  In12  1  0.66376071  0.16887789  0.13076501  1
  In  In13  1  0.66677462  0.15436920  0.62482715  1
  In  In14  1  0.66566347  0.49873507  0.12738797  1
  In  In15  1  0.67484514  0.50123569  0.62277852  1
  In  In16  1  0.65100524  0.84228575  0.13111794  1
  In  In17  1  0.67868535  0.83844062  0.62312543  1
  In  In18  1  0.15486019  0.00088279  0.37738962  1
  In  In19  1  0.16549177  0.00292148  0.87534414  1
  In  In20  1  0.17903506  0.34061492  0.36203832  1
  In  In21  1  0.16632470  0.32982528  0.87423328  1
  In  In22  1  0.17539673  0.65723517  0.38916258  1
  In  In23  1  0.17392844  0.67757921  0.86185845  1
  In  In24  1  0.50514086  -0.00559782  0.36801020  1
  In  In25  1  0.50469291  -0.00158553  0.88439103  1
  In  In26  1  0.50260894  0.33483145  0.36532815  1
  In  In27  1  0.48679262  0.34405479  0.89745632  1
  In  In28  1  0.49420218  0.66105559  0.36273668  1
  In  In29  1  0.48930215  0.67443150  0.88304983  1
  In  In30  1  0.83255748  0.00567330  0.37998266  1
  In  In31  1  0.82805043  -0.00027505  0.86727859  1
  In  In32  1  0.82547998  0.32273488  0.37363356  1
  In  In33  1  0.84607529  0.33549557  0.87437419  1
  In  In34  1  0.83816979  0.67934579  0.37791987  1
  In  In35  1  0.83781970  0.65731789  0.87449240  1
  In  In36  1  -0.00685465  0.16411913  0.37509029  1
  In  In37  1  0.00787325  0.17691956  0.86609358  1
  In  In38  1  0.01494768  0.50075831  0.37847028  1
  In  In39  1  -0.00125726  0.49542616  0.86985741  1
  In  In40  1  0.00226542  0.82809684  0.38725376  1
  In  In41  1  0.01441696  0.84785694  0.85587859  1
  In  In42  1  0.32413222  0.18693621  0.37104344  1
  In  In43  1  0.32951594  0.17366827  0.88969654  1
  In  In44  1  0.32941097  0.49985332  0.36751064  1
  In  In45  1  0.33384590  0.50005026  0.87742673  1
  In  In46  1  0.32807580  0.82297394  0.37261958  1
  In  In47  1  0.33538801  0.82858806  0.87617942  1
  In  In48  1  0.68500748  0.17856262  0.35962798  1
  In  In49  1  0.65822670  0.15851116  0.88051525  1
  In  In50  1  0.65845864  0.49194698  0.36534933  1
  In  In51  1  0.66876916  0.49823134  0.88714917  1
  In  In52  1  0.67530763  0.84125226  0.36671266  1
  In  In53  1  0.65283700  0.84157935  0.88061448  1
  In  In54  1  0.17465458  0.00397680  0.11153055  1
  In  In55  1  0.16016236  -0.02375196  0.62902521  1
  In  In56  1  0.17858576  0.31897779  0.14282184  1
  In  In57  1  0.15908252  0.34396577  0.63058013  1
  In  In58  1  0.17077086  0.68203462  0.12319365  1
  In  In59  1  0.16616369  0.66186175  0.62959819  1
  In  In60  1  0.51604893  0.00877684  0.10939075  1
  In  In61  1  0.50439707  0.01262920  0.63489815  1
  In  In62  1  0.49873157  0.33755351  0.12259618  1
  In  In63  1  0.49208434  0.32607398  0.62723639  1
  In  In64  1  0.49906727  0.66586605  0.12404462  1
  In  In65  1  0.49113523  0.65729364  0.62829774  1
  In  In66  1  0.82556141  -0.00587945  0.12589144  1
  In  In67  1  0.83671496  0.00138975  0.62805882  1
  In  In68  1  0.82533484  0.33757372  0.13295798  1
  In  In69  1  0.85418352  0.33355827  0.61194031  1
  In  In70  1  0.83390503  0.64970646  0.12296122  1
  In  In71  1  0.82936539  0.68425721  0.62015140  1
  In  In72  1  -0.00246525  0.00481762  0.25471347  1
  In  In73  1  0.49335381  0.49429248  0.48978481  1
  In  In74  1  0.83029128  0.82830605  -0.00761521  1
  In  In75  1  0.50972707  0.16500268  0.49949132  1
  In  In76  1  0.16008504  0.16907234  0.50028783  1
  In  In77  1  0.83812029  0.50127991  0.49703489  1
  In  In78  1  0.66824397  0.33155754  0.74588145  1
  In  In79  1  0.33298420  -0.00188159  0.75245940  1
  In  In80  1  0.00055148  0.66631477  0.25176251  1
  In  In81  1  0.66139280  0.67726630  0.75857895  1
  In  In82  1  0.49729126  0.82969244  0.50513366  1
  In  In83  1  0.83011500  0.16968619  0.00206348  1
  In  In84  1  0.33987530  0.00650082  0.23711683  1
  In  In85  1  0.17039466  0.49506699  -0.00150071  1
  Cu  Cu86  1  0.49365745  0.49639497  0.75828301  1
  Cu  Cu87  1  -0.00021381  0.66915522  0.50879467  1
  Cu  Cu88  1  0.49849294  0.16527221  0.23990778  1
  Cu  Cu89  1  0.00179626  0.33638241  -0.00474713  1
  Cu  Cu90  1  0.67773843  -0.00033038  0.49766551  1
  Cu  Cu91  1  0.16828365  0.83765777  0.24911781  1
  Cu  Cu92  1  0.32996226  -0.00928796  -0.00332545  1
  Cu  Cu93  1  0.83500072  0.16561496  0.75034054  1
  Cu  Cu94  1  0.82643365  0.83034187  0.25039793  1
  Cu  Cu95  1  0.49831007  0.49935062  0.24348027  1
  Cu  Cu96  1  0.32846716  -0.00341389  0.50149504  1
  Cu  Cu97  1  0.16939241  0.16562491  0.75430919  1
  Cu  Cu98  1  0.50278828  0.82868239  0.24731837  1
  Cu  Cu99  1  -0.00006104  0.00041674  -0.00870453  1
  Cu  Cu100  1  0.83828073  0.50279286  0.74644107  1
  Cu  Cu101  1  0.66793191  0.33766626  0.01021709  1
  Cu  Cu102  1  0.49975221  0.17384281  0.75700449  1
  Cu  Cu103  1  0.49721195  0.83704058  0.75615303  1
  Cu  Cu104  1  0.66734547  0.66328597  0.00454406  1
  Cu  Cu105  1  0.82960366  0.49585860  0.25020533  1
  Cu  Cu106  1  0.16738017  0.49423957  0.75471067  1
  Cu  Cu107  1  0.83264641  0.84050184  0.74651755  1
  Cu  Cu108  1  0.32816508  0.34429300  0.49952897  1
  Cu  Cu109  1  0.66147088  0.66903840  0.49356913  1
  Cu  Cu110  1  0.33532496  0.66405709  -0.00187540  1
  Cu  Cu111  1  0.83375814  0.16210647  0.25021015  1
  Cu  Cu112  1  0.00735418  0.66737033  -0.00149125  1
  Cu  Cu113  1  0.16753191  0.50817681  0.24965010  1
  Cu  Cu114  1  -0.00199179  -0.00813004  0.50674047  1
  Se  Se115  1  0.08162903  0.08264458  0.04767721  1
  Se  Se116  1  0.08011860  0.07475174  0.56461421  1
  Se  Se117  1  0.08140176  0.40920235  0.06167902  1
  Se  Se118  1  0.08377376  0.40912336  0.55042467  1
  Se  Se119  1  0.09066908  0.75398776  0.04659810  1
  Se  Se120  1  0.08286164  0.75082040  0.56350820  1
  Se  Se121  1  0.40346889  0.07372968  0.05790942  1
  Se  Se122  1  0.40993961  0.07773930  0.55844722  1
  Se  Se123  1  0.41562806  0.41143176  0.04889318  1
  Se  Se124  1  0.40861280  0.41847330  0.56359860  1
  Se  Se125  1  0.41862861  0.74803891  0.05196967  1
  Se  Se126  1  0.40539915  0.73331087  0.55467055  1
  Se  Se127  1  0.74036152  0.07599064  0.05689324  1
  Se  Se128  1  0.75545675  0.08307928  0.55495589  1
  Se  Se129  1  0.75613822  0.42112147  0.05772098  1
  Se  Se130  1  0.74454749  0.40835243  0.55377835  1
  Se  Se131  1  0.74742675  0.74630560  0.06313849  1
  Se  Se132  1  0.74323032  0.75358821  0.54665780  1
  Se  Se133  1  0.23231292  0.24888411  0.05596679  1
  Se  Se134  1  0.25770992  0.25490653  0.55958449  1
  Se  Se135  1  0.25578977  0.58680279  0.06139927  1
  Se  Se136  1  0.24323921  0.57860411  0.55655935  1
  Se  Se137  1  0.24630244  0.90596800  0.04971949  1
  Se  Se138  1  0.24796726  0.91227793  0.55381519  1
  Se  Se139  1  0.58622746  0.24979592  0.05888889  1
  Se  Se140  1  0.59310446  0.25898422  0.56096159  1
  Se  Se141  1  0.58329845  0.58037073  0.05720954  1
  Se  Se142  1  0.58657100  0.58715312  0.55443976  1
  Se  Se143  1  0.58187138  0.90592075  0.04768912  1
  Se  Se144  1  0.58647300  0.93074463  0.55810217  1
  Se  Se145  1  0.92265268  0.25801784  0.06017717  1
  Se  Se146  1  0.92607511  0.24231729  0.54644457  1
  Se  Se147  1  0.92009975  0.58474983  0.04730896  1
  Se  Se148  1  0.91957033  0.58532850  0.56701755  1
  Se  Se149  1  0.92224219  0.92203255  0.05455736  1
  Se  Se150  1  0.91530517  0.91083240  0.56206695  1
  Se  Se151  1  0.08495489  0.25841438  0.43194116  1
  Se  Se152  1  0.08295029  0.24899037  0.94486236  1
  Se  Se153  1  0.08062498  0.58452980  0.45451191  1
  Se  Se154  1  0.08540714  0.58688122  0.93634457  1
  Se  Se155  1  0.08589396  0.91632231  0.45089656  1
  Se  Se156  1  0.08239879  0.91343743  0.94101819  1
  Se  Se157  1  0.41344952  0.26018007  0.44522331  1
  Se  Se158  1  0.44016754  0.22516413  0.95154082  1
  Se  Se159  1  0.40594824  0.59398322  0.43944143  1
  Se  Se160  1  0.41852697  0.57777534  0.94824754  1
  Se  Se161  1  0.41259480  0.92273491  0.44064085  1
  Se  Se162  1  0.41727664  0.91038416  0.94518521  1
  Se  Se163  1  0.75126204  0.23773544  0.44532493  1
  Se  Se164  1  0.74286902  0.26281396  0.94060728  1
  Se  Se165  1  0.74071961  0.58538733  0.43602329  1
  Se  Se166  1  0.75440489  0.58656793  0.94880511  1
  Se  Se167  1  0.75480669  0.91104415  0.44428007  1
  Se  Se168  1  0.74160335  0.93095990  0.94520640  1
  Se  Se169  1  0.25796239  0.08197758  0.43929024  1
  Se  Se170  1  0.24659047  0.07921303  0.94798187  1
  Se  Se171  1  0.24786392  0.42160696  0.44027904  1
  Se  Se172  1  0.26192617  0.40056036  0.94593595  1
  Se  Se173  1  0.23784132  0.76585268  0.44616545  1
  Se  Se174  1  0.25015335  0.74459640  0.94309591  1
  Se  Se175  1  0.59431928  0.07549664  0.43618388  1
  Se  Se176  1  0.57301736  0.09181643  0.95370694  1
  Se  Se177  1  0.59253501  0.40167714  0.44285868  1
  Se  Se178  1  0.58427958  0.42192298  0.95693332  1
  Se  Se179  1  0.58163840  0.74839433  0.43378412  1
  Se  Se180  1  0.58671272  0.74561972  0.94770412  1
  Se  Se181  1  0.92343449  0.07817531  0.44840268  1
  Se  Se182  1  0.91854554  0.08387393  0.93610555  1
  Se  Se183  1  0.92239778  0.40950373  0.43689164  1
  Se  Se184  1  0.91713457  0.42195630  0.94643842  1
  Se  Se185  1  0.91418819  0.75091813  0.45572249  1
  Se  Se186  1  0.92949583  0.74778426  0.93526134  1
  Se  Se187  1  0.25313190  0.25398539  0.29159225  1
  Se  Se188  1  0.25398249  0.24446270  0.80969066  1
  Se  Se189  1  0.24678154  0.59294899  0.30487066  1
  Se  Se190  1  0.25323616  0.57809066  0.80507971  1
  Se  Se191  1  0.24798702  0.92330589  0.30582452  1
  Se  Se192  1  0.24189510  0.90609567  0.80662643  1
  Se  Se193  1  0.58069188  0.24571842  0.29915389  1
  Se  Se194  1  0.57902114  0.25715197  0.81573570  1
  Se  Se195  1  0.58311123  0.58137219  0.29813207  1
  Se  Se196  1  0.57888745  0.57677874  0.81452162  1
  Se  Se197  1  0.58549680  0.91572629  0.29763190  1
  Se  Se198  1  0.58040967  0.92261171  0.80532599  1
  Se  Se199  1  0.91463331  0.24621567  0.30414845  1
  Se  Se200  1  0.91687343  0.25456211  0.79966499  1
  Se  Se201  1  0.90995823  0.57541777  0.31210409  1
  Se  Se202  1  0.92032558  0.58423125  0.80106906  1
  Se  Se203  1  0.91385476  0.90444269  0.31080672  1
  Se  Se204  1  0.91570093  0.92631581  0.79782477  1
  Se  Se205  1  0.09488803  0.09732143  0.30415133  1
  Se  Se206  1  0.08388680  0.08118940  0.80318501  1
  Se  Se207  1  0.08433566  0.42337559  0.30075339  1
  Se  Se208  1  0.08206007  0.40918534  0.80461706  1
  Se  Se209  1  0.08984810  0.75691137  0.31053229  1
  Se  Se210  1  0.06578022  0.73317675  0.80047275  1
  Se  Se211  1  0.42004398  0.09426673  0.30974463  1
  Se  Se212  1  0.41966028  0.08826675  0.81350100  1
  Se  Se213  1  0.41611270  0.41780170  0.30142100  1
  Se  Se214  1  0.41740307  0.40977648  0.81276745  1
  Se  Se215  1  0.41281096  0.75200979  0.29954897  1
  Se  Se216  1  0.41628426  0.74778881  0.80384316  1
  Se  Se217  1  0.75295809  0.07232564  0.30048370  1
  Se  Se218  1  0.74583245  0.09221887  0.80587527  1
  Se  Se219  1  0.74838039  0.40966261  0.30324637  1
  Se  Se220  1  0.75464347  0.42598296  0.80733364  1
  Se  Se221  1  0.74882665  0.74232666  0.30365448  1
  Se  Se222  1  0.75721167  0.76529975  0.81535545  1
  Se  Se223  1  0.23924485  0.09275431  0.18788783  1
  Se  Se224  1  0.24343203  0.08645060  0.68806769  1
  Se  Se225  1  0.25177049  0.42368035  0.19766444  1
  Se  Se226  1  0.25285221  0.40960741  0.70179087  1
  Se  Se227  1  0.25249982  0.75335386  0.19818116  1
  Se  Se228  1  0.25295373  0.73823904  0.70077888  1
  Se  Se229  1  0.58264744  0.07640233  0.19464440  1
  Se  Se230  1  0.58550915  0.09100882  0.70511866  1
  Se  Se231  1  0.58396800  0.41303366  0.19520719  1
  Se  Se232  1  0.57512042  0.42867174  0.69056926  1
  Se  Se233  1  0.58591932  0.74222981  0.19627517  1
  Se  Se234  1  0.57494669  0.76031588  0.68817561  1
  Se  Se235  1  0.91420225  0.08950508  0.18430813  1
  Se  Se236  1  0.92000912  0.08327825  0.69760862  1
  Se  Se237  1  0.91728821  0.41636595  0.19844504  1
  Se  Se238  1  0.91442894  0.41300115  0.69336750  1
  Se  Se239  1  0.91121815  0.75671531  0.18871500  1
  Se  Se240  1  0.90981842  0.74764578  0.69849007  1
  Se  Se241  1  0.06544996  0.26539237  0.20113614  1
  Se  Se242  1  0.08805341  0.24852533  0.69722656  1
  Se  Se243  1  0.08646421  0.58116977  0.18460609  1
  Se  Se244  1  0.08372801  0.57612272  0.69927881  1
  Se  Se245  1  0.08843614  0.91739991  0.18945532  1
  Se  Se246  1  0.08114029  0.91231234  0.70626505  1
  Se  Se247  1  0.41522161  0.25145024  0.19135733  1
  Se  Se248  1  0.41452885  0.25659489  0.70565762  1
  Se  Se249  1  0.41359746  0.58527685  0.19378900  1
  Se  Se250  1  0.41514029  0.58402680  0.70409696  1
  Se  Se251  1  0.42825279  0.91108940  0.18343834  1
  Se  Se252  1  0.41925670  0.90871524  0.68659824  1
  Se  Se253  1  0.74862739  0.24787466  0.19967865  1
  Se  Se254  1  0.76056491  0.24623978  0.68533464  1
  Se  Se255  1  0.74976349  0.58256479  0.19769692  1
  Se  Se256  1  0.75143255  0.58647299  0.69523617  1
  Se  Se257  1  0.74641177  0.91593731  0.19732117  1
  Se  Se258  1  0.74487246  0.92357005  0.69734240  1
