# generated using pymatgen
data_In86Cu29Se144
_symmetry_space_group_name_H-M   'P 1'
_cell_length_a   17.60775941
_cell_length_b   17.61300528
_cell_length_c   23.45594387
_cell_angle_alpha   90.01045195
_cell_angle_beta   89.99440748
_cell_angle_gamma   90.00637726
_symmetry_Int_Tables_number   1
_chemical_formula_structural   In86Cu29Se144
_chemical_formula_sum   'In86 Cu29 Se144'
_cell_volume   7274.28751513
_cell_formula_units_Z   1
loop_
 _symmetry_equiv_pos_site_id
 _symmetry_equiv_pos_as_xyz
  1  'x, y, z'
loop_
 _atom_site_type_symbol
 _atom_site_label
 _atom_site_symmetry_multiplicity
 _atom_site_fract_x
 _atom_site_fract_y
 _atom_site_fract_z
 _atom_site_occupancy
  In  In0  1  0.00067929  0.17336735  0.11986300  1
  In  In1  1  0.00567964  0.15828437  0.63219573  1
  In  In2  1  -0.01243896  0.49656680  0.12105121  1
  In  In3  1  -0.01505688  0.50147306  0.63086868  1
  In  In4  1  0.00408532  0.83399735  0.10812480  1
  In  In5  1  0.01388191  0.83656231  0.62501770  1
  In  In6  1  0.33197171  0.16301169  0.11216570  1
  In  In7  1  0.33176093  0.16573548  0.62605714  1
  In  In8  1  0.34227536  0.51019635  0.12465741  1
  In  In9  1  0.32622256  0.49119863  0.63804581  1
  In  In10  1  0.32980158  0.82883708  0.11629502  1
  In  In11  1  0.34149160  0.84068472  0.63263831  1
  In  In12  1  0.66400791  0.16595296  0.10982026  1
  In  In13  1  0.66272298  0.16805582  0.62810793  1
  In  In14  1  0.67204030  0.49470046  0.11695626  1
  In  In15  1  0.67735420  0.49834542  0.64023408  1
  In  In16  1  0.66643243  0.83284983  0.11092372  1
  In  In17  1  0.63789296  0.86685593  0.68189873  1
  In  In18  1  0.16967604  -0.00058388  0.38593784  1
  In  In19  1  0.16902440  -0.00047109  0.87598234  1
  In  In20  1  0.15631175  0.33714811  0.37955174  1
  In  In21  1  0.15706942  0.32453103  0.86270992  1
  In  In22  1  0.18116428  0.66416069  0.37972220  1
  In  In23  1  0.18206337  0.66765419  0.87226158  1
  In  In24  1  0.49663016  0.00718797  0.39197620  1
  In  In25  1  0.50230981  -0.00319398  0.86626988  1
  In  In26  1  0.49603623  0.32381605  0.38184192  1
  In  In27  1  0.49176508  0.32851904  0.86609399  1
  In  In28  1  0.49262849  0.68165169  0.38333841  1
  In  In29  1  0.50705043  0.68218143  0.85950304  1
  In  In30  1  0.83137334  -0.00065044  0.37453874  1
  In  In31  1  0.83337537  0.00329871  0.86669684  1
  In  In32  1  0.85108897  0.33080531  0.37930297  1
  In  In33  1  0.83135512  0.32938074  0.87213969  1
  In  In34  1  0.82021938  0.66326686  0.38089598  1
  In  In35  1  0.82381055  0.67770283  0.87562142  1
  In  In36  1  -0.00634670  0.18524620  0.37763660  1
  In  In37  1  -0.00026475  0.16249192  0.87571624  1
  In  In38  1  0.00479421  0.48364226  0.37693004  1
  In  In39  1  -0.00581635  0.47242109  0.85816917  1
  In  In40  1  0.00194119  0.84295673  0.37719213  1
  In  In41  1  -0.01076005  0.84962265  0.87435351  1
  In  In42  1  0.33448327  0.16879328  0.39412845  1
  In  In43  1  0.33436191  0.16117242  0.87383551  1
  In  In44  1  0.32146888  0.50515140  0.37750735  1
  In  In45  1  0.33458341  0.50940913  0.85665683  1
  In  In46  1  0.34121112  0.83234557  0.38501489  1
  In  In47  1  0.33638061  0.83282281  0.86943090  1
  In  In48  1  0.66309188  0.16370521  0.37941038  1
  In  In49  1  0.66672884  0.16795213  0.86943116  1
  In  In50  1  0.67235796  0.50901817  0.38610275  1
  In  In51  1  0.68762572  0.50555087  0.86038194  1
  In  In52  1  0.66355593  0.82599257  0.38148551  1
  In  In53  1  0.66333087  0.83784885  0.86164505  1
  In  In54  1  0.16926619  -0.00054449  0.11198756  1
  In  In55  1  0.16954143  0.00584027  0.62730886  1
  In  In56  1  0.16404482  0.31882503  0.12290716  1
  In  In57  1  0.17979840  0.30900621  0.64227722  1
  In  In58  1  0.17232667  0.67441407  0.11803178  1
  In  In59  1  0.16657909  0.68927072  0.62218997  1
  In  In60  1  0.50479214  -0.00000300  0.11284212  1
  In  In61  1  0.49951509  -0.00351791  0.63115201  1
  In  In62  1  0.50531144  0.33272098  0.11827238  1
  In  In63  1  0.50162210  0.32428371  0.62989952  1
  In  In64  1  0.48898108  0.66659071  0.12439602  1
  In  In65  1  0.49500713  0.68776590  0.64819860  1
  In  In66  1  0.83527759  0.00308394  0.11096068  1
  In  In67  1  0.82166873  0.00182598  0.64146350  1
  In  In68  1  0.83566689  0.33544380  0.11666847  1
  In  In69  1  0.83058549  0.35041129  0.64374249  1
  In  In70  1  0.83092734  0.66334755  0.10871858  1
  In  In71  1  0.82826651  0.65812056  0.62944453  1
  In  In72  1  0.00689834  0.00757317  0.23447292  1
  In  In73  1  0.16354188  0.49865954  -0.01559002  1
  In  In74  1  0.66543008  0.00094196  0.25712590  1
  In  In75  1  -0.00118309  0.66511081  0.24720871  1
  In  In76  1  0.33371541  -0.00007586  0.25170907  1
  In  In77  1  0.83198722  0.16818505  0.51009741  1
  In  In78  1  0.66999326  0.34026541  0.24103818  1
  In  In79  1  0.82892992  0.83114769  0.50932372  1
  In  In80  1  0.66519135  0.66880954  0.25115390  1
  In  In81  1  0.00401354  0.67152167  0.75403980  1
  In  In82  1  0.16255841  0.49446327  0.50706555  1
  In  In83  1  0.50630212  0.49772864  -0.00561148  1
  In  In84  1  0.50348904  0.49804124  0.52152055  1
  In  In85  1  0.32597876  0.33372614  0.25375550  1
  Cu  Cu86  1  0.32989190  0.32753551  -0.01000179  1
  Cu  Cu87  1  0.49872096  0.49064128  0.74586339  1
  Cu  Cu88  1  0.33514295  -0.00388153  0.51025778  1
  Cu  Cu89  1  0.66384102  0.67124076  0.50875477  1
  Cu  Cu90  1  0.00562709  0.00025425  0.50468840  1
  Cu  Cu91  1  0.16735523  0.15722070  0.75379900  1
  Cu  Cu92  1  0.17405193  0.82491203  0.24644192  1
  Cu  Cu93  1  -0.00134864  0.66743037  -0.01021819  1
  Cu  Cu94  1  -0.00093101  0.32901432  -0.00700070  1
  Cu  Cu95  1  0.66560633  0.67293990  -0.01459709  1
  Cu  Cu96  1  0.17036484  0.84592134  0.74837474  1
  Cu  Cu97  1  0.83660940  0.49489992  0.24885835  1
  Cu  Cu98  1  0.16442994  0.49827593  0.25102742  1
  Cu  Cu99  1  0.66894457  0.33100011  -0.00674844  1
  Cu  Cu100  1  0.83489791  0.16847062  0.75341868  1
  Cu  Cu101  1  0.83757540  0.83873038  0.23967586  1
  Cu  Cu102  1  0.16053209  0.16662579  0.25084209  1
  Cu  Cu103  1  0.00136864  0.33190119  0.50572777  1
  Cu  Cu104  1  0.34232106  0.67427234  -0.00817130  1
  Cu  Cu105  1  0.33890978  0.67330851  0.50688918  1
  Cu  Cu106  1  0.49270635  0.50991727  0.25303891  1
  Cu  Cu107  1  0.67089128  0.34101672  0.51383077  1
  Cu  Cu108  1  0.49611967  0.16715997  0.24835372  1
  Cu  Cu109  1  -0.00503206  0.00094481  -0.00655947  1
  Cu  Cu110  1  -0.00355640  0.66502422  0.50906461  1
  Cu  Cu111  1  0.33927812  -0.00138294  -0.00900525  1
  Cu  Cu112  1  0.49224327  0.83188111  0.25373640  1
  Cu  Cu113  1  0.66678532  -0.00439445  -0.01266122  1
  Cu  Cu114  1  0.49698929  0.16750150  0.74852730  1
  Se  Se115  1  0.07623597  0.08129963  0.05313566  1
  Se  Se116  1  0.08658553  0.08789383  0.55569829  1
  Se  Se117  1  0.08041372  0.41096326  0.05374181  1
  Se  Se118  1  0.07805115  0.40793834  0.57086024  1
  Se  Se119  1  0.08594541  0.74377415  0.04552679  1
  Se  Se120  1  0.08247289  0.75694748  0.54661323  1
  Se  Se121  1  0.41993205  0.08344858  0.04783428  1
  Se  Se122  1  0.41943705  0.08008786  0.56134637  1
  Se  Se123  1  0.40519983  0.41006312  0.05257760  1
  Se  Se124  1  0.40300904  0.40570529  0.56401343  1
  Se  Se125  1  0.42404544  0.75341525  0.05038144  1
  Se  Se126  1  0.42294895  0.75178886  0.56342743  1
  Se  Se127  1  0.74591887  0.08004874  0.04499736  1
  Se  Se128  1  0.74222571  0.07064473  0.56033351  1
  Se  Se129  1  0.75118462  0.41644240  0.04691689  1
  Se  Se130  1  0.75613602  0.42226829  0.56353694  1
  Se  Se131  1  0.75058897  0.75112542  0.04442801  1
  Se  Se132  1  0.73881336  0.75142311  0.57172199  1
  Se  Se133  1  0.24769382  0.25005245  0.04894888  1
  Se  Se134  1  0.24578520  0.24706313  0.55799479  1
  Se  Se135  1  0.25977189  0.58597848  0.04760262  1
  Se  Se136  1  0.25644777  0.58885960  0.56286530  1
  Se  Se137  1  0.25527718  0.91690042  0.04765603  1
  Se  Se138  1  0.25084584  0.91358270  0.56245927  1
  Se  Se139  1  0.57932876  0.25239543  0.04614445  1
  Se  Se140  1  0.58574937  0.25117453  0.55566797  1
  Se  Se141  1  0.59278648  0.59568418  0.05596623  1
  Se  Se142  1  0.58972666  0.59337233  0.57556942  1
  Se  Se143  1  0.58281366  0.91496241  0.04487500  1
  Se  Se144  1  0.59514052  0.90304759  0.58157244  1
  Se  Se145  1  0.91450434  0.24822791  0.04885969  1
  Se  Se146  1  0.91977793  0.25817413  0.56945934  1
  Se  Se147  1  0.92096267  0.58133620  0.04627164  1
  Se  Se148  1  0.91116802  0.58140307  0.55551714  1
  Se  Se149  1  0.91285700  0.91323534  0.04576110  1
  Se  Se150  1  0.91762166  0.92826893  0.56407563  1
  Se  Se151  1  0.08323891  0.24992079  0.45055174  1
  Se  Se152  1  0.08698732  0.24824780  0.94169807  1
  Se  Se153  1  0.07603859  0.58866908  0.44249499  1
  Se  Se154  1  0.07237647  0.58634994  0.92588923  1
  Se  Se155  1  0.08429090  0.91400984  0.45026146  1
  Se  Se156  1  0.08188001  0.91760226  0.94451682  1
  Se  Se157  1  0.42335482  0.24889601  0.45587217  1
  Se  Se158  1  0.41935205  0.24684613  0.94156468  1
  Se  Se159  1  0.41362956  0.58296341  0.44946515  1
  Se  Se160  1  0.41685255  0.58708414  0.93478966  1
  Se  Se161  1  0.41998897  0.91466892  0.45493889  1
  Se  Se162  1  0.42110351  0.91497620  0.93836289  1
  Se  Se163  1  0.74572967  0.26186747  0.44563312  1
  Se  Se164  1  0.75170956  0.24456714  0.94237320  1
  Se  Se165  1  0.75021198  0.58694833  0.45909811  1
  Se  Se166  1  0.75058980  0.58226407  0.94300015  1
  Se  Se167  1  0.74274047  0.92335604  0.44374233  1
  Se  Se168  1  0.74947124  0.91374455  0.93249447  1
  Se  Se169  1  0.25192196  0.07878365  0.45467685  1
  Se  Se170  1  0.24981503  0.08380693  0.94637325  1
  Se  Se171  1  0.25775200  0.40749912  0.44680968  1
  Se  Se172  1  0.25948844  0.41210441  0.92906345  1
  Se  Se173  1  0.25200458  0.75068117  0.45099958  1
  Se  Se174  1  0.25216565  0.75500010  0.94409513  1
  Se  Se175  1  0.58969412  0.08551766  0.45151393  1
  Se  Se176  1  0.58364055  0.08103320  0.93643495  1
  Se  Se177  1  0.58823769  0.41352536  0.44705810  1
  Se  Se178  1  0.59162013  0.41088308  0.93137331  1
  Se  Se179  1  0.58091190  0.75214351  0.45390448  1
  Se  Se180  1  0.58168704  0.75735839  0.93639581  1
  Se  Se181  1  0.92224671  0.07807518  0.44377525  1
  Se  Se182  1  0.90979877  0.08352341  0.94221521  1
  Se  Se183  1  0.91901065  0.41814182  0.45224277  1
  Se  Se184  1  0.91698741  0.41423509  0.94114880  1
  Se  Se185  1  0.92111348  0.74441849  0.44147519  1
  Se  Se186  1  0.91533871  0.75521636  0.94082188  1
  Se  Se187  1  0.24385550  0.23840978  0.31425244  1
  Se  Se188  1  0.25188705  0.24350274  0.80294482  1
  Se  Se189  1  0.24770454  0.58291840  0.30176012  1
  Se  Se190  1  0.24630548  0.59084868  0.79323703  1
  Se  Se191  1  0.24335102  0.90911517  0.30993552  1
  Se  Se192  1  0.25566222  0.92448588  0.80462899  1
  Se  Se193  1  0.58001451  0.24877000  0.30383243  1
  Se  Se194  1  0.58252077  0.25066169  0.80038687  1
  Se  Se195  1  0.57591055  0.58178053  0.31522517  1
  Se  Se196  1  0.57280116  0.56820106  0.80957083  1
  Se  Se197  1  0.57175822  0.90995500  0.31439601  1
  Se  Se198  1  0.56585745  0.90353197  0.79150101  1
  Se  Se199  1  0.91415999  0.25163681  0.30127585  1
  Se  Se200  1  0.92158550  0.24883307  0.80566125  1
  Se  Se201  1  0.90965021  0.57803096  0.31186110  1
  Se  Se202  1  0.91264627  0.58263664  0.81146459  1
  Se  Se203  1  0.91590169  0.91675667  0.30003501  1
  Se  Se204  1  0.90045987  0.90641309  0.79707336  1
  Se  Se205  1  0.08621242  0.08471564  0.31294946  1
  Se  Se206  1  0.08045035  0.07663581  0.80635363  1
  Se  Se207  1  0.08342015  0.41146547  0.30081060  1
  Se  Se208  1  0.11079191  0.43514925  0.79749252  1
  Se  Se209  1  0.08853612  0.75431356  0.30915108  1
  Se  Se210  1  0.09214577  0.76641329  0.81230144  1
  Se  Se211  1  0.42072258  0.09150406  0.31282306  1
  Se  Se212  1  0.41548947  0.08194736  0.80185648  1
  Se  Se213  1  0.42193605  0.42253137  0.31251788  1
  Se  Se214  1  0.40959490  0.41045253  0.79654555  1
  Se  Se215  1  0.40987240  0.74979643  0.30746242  1
  Se  Se216  1  0.39502737  0.73221955  0.80057979  1
  Se  Se217  1  0.76047597  0.09712674  0.30642568  1
  Se  Se218  1  0.74542256  0.08295847  0.79864499  1
  Se  Se219  1  0.75275579  0.42469416  0.31261229  1
  Se  Se220  1  0.74869141  0.40289194  0.79818442  1
  Se  Se221  1  0.76131493  0.76330248  0.30555584  1
  Se  Se222  1  0.73026796  0.73162282  0.79900752  1
  Se  Se223  1  0.24231787  0.08967730  0.19004897  1
  Se  Se224  1  0.25587630  0.07970261  0.69892450  1
  Se  Se225  1  0.24393744  0.42413720  0.18564154  1
  Se  Se226  1  0.22723025  0.42366317  0.70220994  1
  Se  Se227  1  0.25697556  0.74548338  0.19150539  1
  Se  Se228  1  0.25015056  0.75700883  0.69707437  1
  Se  Se229  1  0.57757516  0.08842334  0.19022419  1
  Se  Se230  1  0.58349317  0.08455515  0.69788733  1
  Se  Se231  1  0.56971401  0.43403697  0.18993380  1
  Se  Se232  1  0.58653738  0.40772943  0.69687144  1
  Se  Se233  1  0.57725931  0.76073255  0.19113179  1
  Se  Se234  1  0.61252717  0.72408047  0.70936738  1
  Se  Se235  1  0.90356649  0.09191270  0.18704087  1
  Se  Se236  1  0.91652327  0.08278788  0.70029984  1
  Se  Se237  1  0.91509850  0.41190244  0.19311198  1
  Se  Se238  1  0.92618918  0.41805907  0.71035150  1
  Se  Se239  1  0.91225563  0.75354623  0.18212542  1
  Se  Se240  1  0.91761589  0.75546018  0.68731672  1
  Se  Se241  1  0.07978889  0.24946718  0.19636328  1
  Se  Se242  1  0.07892048  0.24270881  0.70582566  1
  Se  Se243  1  0.08951674  0.57691575  0.18532361  1
  Se  Se244  1  0.08760909  0.58990423  0.68339444  1
  Se  Se245  1  0.09599619  0.90386278  0.18558922  1
  Se  Se246  1  0.08198132  0.92485110  0.69668955  1
  Se  Se247  1  0.41754043  0.24768736  0.18884927  1
  Se  Se248  1  0.41035661  0.25052889  0.69750813  1
  Se  Se249  1  0.41113975  0.59223439  0.20027784  1
  Se  Se250  1  0.41728806  0.57846289  0.69573230  1
  Se  Se251  1  0.42365039  0.91468292  0.18865517  1
  Se  Se252  1  0.43184723  0.90587522  0.70598466  1
  Se  Se253  1  0.75060130  0.24243131  0.18412889  1
  Se  Se254  1  0.75108039  0.24683633  0.69592004  1
  Se  Se255  1  0.75758065  0.57797706  0.19069798  1
  Se  Se256  1  0.76726791  0.57319034  0.70735971  1
  Se  Se257  1  0.75032683  0.91556965  0.18588931  1
  Se  Se258  1  0.77427435  0.90317001  0.71463068  1
