# generated using pymatgen
data_In86Cu29Se144
_symmetry_space_group_name_H-M   'P 1'
_cell_length_a   17.57752080
_cell_length_b   17.58003267
_cell_length_c   23.43183772
_cell_angle_alpha   90.01958421
_cell_angle_beta   89.99681675
_cell_angle_gamma   90.01318258
_symmetry_Int_Tables_number   1
_chemical_formula_structural   In86Cu29Se144
_chemical_formula_sum   'In86 Cu29 Se144'
_cell_volume   7240.75098106
_cell_formula_units_Z   1
loop_
 _symmetry_equiv_pos_site_id
 _symmetry_equiv_pos_as_xyz
  1  'x, y, z'
loop_
 _atom_site_type_symbol
 _atom_site_label
 _atom_site_symmetry_multiplicity
 _atom_site_fract_x
 _atom_site_fract_y
 _atom_site_fract_z
 _atom_site_occupancy
  In  In0  1  0.00756906  0.17665944  0.11843580  1
  In  In1  1  -0.00200793  0.16503588  0.61597110  1
  In  In2  1  0.01393819  0.48792407  0.13840562  1
  In  In3  1  0.01618100  0.50222067  0.62938581  1
  In  In4  1  0.00739835  0.81496526  0.12760317  1
  In  In5  1  -0.01213651  0.83780267  0.62472867  1
  In  In6  1  0.33183556  0.16111109  0.11990855  1
  In  In7  1  0.34528994  0.18568050  0.60992715  1
  In  In8  1  0.34324865  0.51158434  0.12460755  1
  In  In9  1  0.33962321  0.49536618  0.63273432  1
  In  In10  1  0.33504928  0.83821807  0.13114087  1
  In  In11  1  0.32068812  0.82900424  0.62620902  1
  In  In12  1  0.66331782  0.16936263  0.12592424  1
  In  In13  1  0.66411931  0.16490898  0.62182901  1
  In  In14  1  0.64918116  0.50532392  0.14157280  1
  In  In15  1  0.64031689  0.51063228  0.61783528  1
  In  In16  1  0.66337368  0.82649287  0.13967843  1
  In  In17  1  0.68434657  0.83062525  0.61828267  1
  In  In18  1  0.18424648  -0.00047570  0.37069986  1
  In  In19  1  0.16394134  0.00110846  0.88655036  1
  In  In20  1  0.15857880  0.34084057  0.37025414  1
  In  In21  1  0.17934795  0.32309749  0.88228737  1
  In  In22  1  0.17570523  0.66577021  0.36093342  1
  In  In23  1  0.16864353  0.66380218  0.88382490  1
  In  In24  1  0.51081042  0.00781020  0.36180154  1
  In  In25  1  0.51710309  0.00246113  0.87118862  1
  In  In26  1  0.50109175  0.32413372  0.37962669  1
  In  In27  1  0.49050301  0.34418875  0.88543626  1
  In  In28  1  0.49812499  0.65697915  0.36125699  1
  In  In29  1  0.48863653  0.66913859  0.87961909  1
  In  In30  1  0.81996099  0.01212898  0.38155535  1
  In  In31  1  0.82622315  0.01240315  0.87562426  1
  In  In32  1  0.82481536  0.32490863  0.36760555  1
  In  In33  1  0.82260470  0.32207961  0.87529498  1
  In  In34  1  0.83473357  0.66961651  0.37285077  1
  In  In35  1  0.83478643  0.65425154  0.87539046  1
  In  In36  1  -0.00721055  0.17064766  0.37662627  1
  In  In37  1  -0.00161975  0.16652582  0.88338903  1
  In  In38  1  0.01301654  0.50163991  0.35861124  1
  In  In39  1  -0.00170217  0.51541780  0.87485855  1
  In  In40  1  -0.00344978  0.81788169  0.37527513  1
  In  In41  1  0.01363976  0.83126078  0.88231386  1
  In  In42  1  0.34666154  0.16774527  0.38325881  1
  In  In43  1  0.32678665  0.17694812  0.88087937  1
  In  In44  1  0.33070789  0.50745827  0.36961694  1
  In  In45  1  0.33295184  0.49871289  0.88177235  1
  In  In46  1  0.35116617  0.83074411  0.35217588  1
  In  In47  1  0.33627137  0.81661913  0.87704341  1
  In  In48  1  0.66634276  0.16707091  0.37447979  1
  In  In49  1  0.67213367  0.16098492  0.88417641  1
  In  In50  1  0.65610552  0.49224590  0.36380266  1
  In  In51  1  0.66555251  0.49219997  0.88153365  1
  In  In52  1  0.66813354  0.84221708  0.36479688  1
  In  In53  1  0.65437385  0.84115563  0.87382464  1
  In  In54  1  0.17986480  0.00976147  0.11645394  1
  In  In55  1  0.15601817  0.00315738  0.62292523  1
  In  In56  1  0.16405976  0.32705762  0.11850528  1
  In  In57  1  0.17866072  0.34037695  0.62214238  1
  In  In58  1  0.16574074  0.66093704  0.12285761  1
  In  In59  1  0.17181202  0.66342736  0.63416702  1
  In  In60  1  0.49025584  0.00392210  0.13661432  1
  In  In61  1  0.50338696  0.01743486  0.62423125  1
  In  In62  1  0.50984122  0.34372984  0.12451725  1
  In  In63  1  0.49057950  0.33125467  0.61394054  1
  In  In64  1  0.51403509  0.65036477  0.15179928  1
  In  In65  1  0.49808075  0.64789394  0.61979070  1
  In  In66  1  0.81636046  0.00193505  0.12859469  1
  In  In67  1  0.83045599  -0.00381221  0.61874511  1
  In  In68  1  0.83827341  0.32947751  0.12920901  1
  In  In69  1  0.83384799  0.32728602  0.61915812  1
  In  In70  1  0.83321996  0.66751498  0.13403494  1
  In  In71  1  0.82954734  0.68145953  0.62345553  1
  In  In72  1  0.49531478  0.83091117  0.00581612  1
  In  In73  1  0.66601738  0.66975224  0.74430447  1
  In  In74  1  0.00551028  0.33004726  0.76093873  1
  In  In75  1  0.16394761  0.83346600  0.49586470  1
  In  In76  1  0.50125037  0.83435444  0.48661304  1
  In  In77  1  0.66437604  0.32860227  0.74626791  1
  In  In78  1  -0.00187268  0.00110735  0.24836326  1
  In  In79  1  0.17383544  0.49894618  0.48982611  1
  In  In80  1  -0.00052934  -0.00418503  0.75049035  1
  In  In81  1  0.33440842  0.00245451  0.75006461  1
  In  In82  1  0.83152816  0.49425621  0.00135482  1
  In  In83  1  0.83264437  0.83318373  0.01514287  1
  In  In84  1  0.33478839  0.33761720  0.24987702  1
  In  In85  1  0.83281806  0.49371398  0.49344737  1
  Cu  Cu86  1  0.66236025  0.00367148  0.00484441  1
  Cu  Cu87  1  0.17490731  0.50886834  0.75567486  1
  Cu  Cu88  1  0.83962478  0.50353340  0.74550235  1
  Cu  Cu89  1  0.33569505  0.33437502  0.00686230  1
  Cu  Cu90  1  0.33559075  0.66822612  0.49226644  1
  Cu  Cu91  1  0.66376776  0.00063039  0.49568322  1
  Cu  Cu92  1  0.83661668  0.83371611  0.74695063  1
  Cu  Cu93  1  -0.00417174  0.00143281  0.49778767  1
  Cu  Cu94  1  0.33725464  0.01086351  0.49443121  1
  Cu  Cu95  1  0.50276493  0.83506482  0.75039041  1
  Cu  Cu96  1  0.66736873  0.33013519  0.49302491  1
  Cu  Cu97  1  0.33867635  -0.00142321  0.00298812  1
  Cu  Cu98  1  0.50271071  0.17599956  0.74622875  1
  Cu  Cu99  1  0.33349782  0.66381712  0.00439988  1
  Cu  Cu100  1  -0.00581917  0.66481496  0.49968455  1
  Cu  Cu101  1  0.83346071  0.83697132  0.25100255  1
  Cu  Cu102  1  0.00252451  0.66159945  0.00475437  1
  Cu  Cu103  1  0.50292084  0.16907628  0.25233708  1
  Cu  Cu104  1  -0.00192935  0.32630032  0.49226038  1
  Cu  Cu105  1  0.83321400  0.50040564  0.25149240  1
  Cu  Cu106  1  0.82856387  0.16900179  0.25329255  1
  Cu  Cu107  1  0.66181575  0.33136680  0.00462532  1
  Cu  Cu108  1  0.17093576  0.82025428  0.75892973  1
  Cu  Cu109  1  0.48973798  0.50323168  0.75517256  1
  Cu  Cu110  1  0.17256150  0.17041282  0.74973174  1
  Cu  Cu111  1  0.17117318  0.16679707  0.24245220  1
  Cu  Cu112  1  0.16696783  0.83268911  0.24739587  1
  Cu  Cu113  1  -0.00018720  0.33296655  0.00352339  1
  Cu  Cu114  1  0.00042220  0.00115145  0.00326049  1
  Se  Se115  1  0.08667879  0.08712185  0.05232625  1
  Se  Se116  1  0.08302749  0.08273461  0.54873831  1
  Se  Se117  1  0.08161698  0.41891736  0.05440112  1
  Se  Se118  1  0.07608960  0.41154040  0.55130503  1
  Se  Se119  1  0.08841878  0.74934363  0.05019653  1
  Se  Se120  1  0.07933414  0.74183772  0.56054067  1
  Se  Se121  1  0.42354265  0.08029908  0.05534968  1
  Se  Se122  1  0.42315998  0.08844721  0.54925955  1
  Se  Se123  1  0.41875813  0.41964039  0.05776110  1
  Se  Se124  1  0.42786822  0.43953398  0.55623889  1
  Se  Se125  1  0.41536718  0.73786092  0.06809163  1
  Se  Se126  1  0.40997524  0.75133615  0.55513664  1
  Se  Se127  1  0.74898626  0.08756777  0.05473827  1
  Se  Se128  1  0.74708492  0.08201770  0.55282631  1
  Se  Se129  1  0.74036583  0.41355060  0.06569343  1
  Se  Se130  1  0.73671204  0.41325292  0.56031756  1
  Se  Se131  1  0.73649567  0.73952641  0.06304243  1
  Se  Se132  1  0.74576223  0.74030527  0.54623920  1
  Se  Se133  1  0.25003504  0.24532237  0.05184695  1
  Se  Se134  1  0.23450225  0.24314494  0.55316706  1
  Se  Se135  1  0.24895450  0.57792680  0.05393994  1
  Se  Se136  1  0.25550877  0.59140953  0.55608809  1
  Se  Se137  1  0.25602184  0.91298013  0.05393681  1
  Se  Se138  1  0.25733755  0.92811014  0.55362424  1
  Se  Se139  1  0.57689232  0.24750617  0.05572316  1
  Se  Se140  1  0.58524644  0.25089022  0.55345880  1
  Se  Se141  1  0.57747676  0.58500306  0.06640490  1
  Se  Se142  1  0.58769346  0.60001579  0.54139736  1
  Se  Se143  1  0.58805518  0.91935517  0.06545480  1
  Se  Se144  1  0.58433297  0.92039855  0.55752050  1
  Se  Se145  1  0.91237446  0.25008236  0.05252661  1
  Se  Se146  1  0.91357722  0.24806901  0.54839042  1
  Se  Se147  1  0.91909971  0.58319312  0.06348117  1
  Se  Se148  1  0.92184086  0.58019252  0.56128564  1
  Se  Se149  1  0.92649137  0.92500817  0.07032975  1
  Se  Se150  1  0.91456190  0.91408184  0.54920007  1
  Se  Se151  1  0.08719372  0.24939397  0.43973423  1
  Se  Se152  1  0.08366375  0.24989586  0.94771527  1
  Se  Se153  1  0.07891954  0.59400979  0.43796868  1
  Se  Se154  1  0.08428326  0.57740976  0.95090344  1
  Se  Se155  1  0.07606063  0.92468813  0.43450427  1
  Se  Se156  1  0.08555258  0.91471839  0.95508358  1
  Se  Se157  1  0.41858254  0.25322583  0.45414098  1
  Se  Se158  1  0.41676059  0.24951569  0.95064344  1
  Se  Se159  1  0.41695704  0.58473862  0.43926187  1
  Se  Se160  1  0.41899390  0.58165058  0.95060280  1
  Se  Se161  1  0.40737439  0.92539402  0.43154594  1
  Se  Se162  1  0.41532885  0.92251714  0.93582021  1
  Se  Se163  1  0.75361073  0.24620551  0.44488313  1
  Se  Se164  1  0.74956297  0.24967499  0.95305556  1
  Se  Se165  1  0.74382848  0.58042356  0.43444651  1
  Se  Se166  1  0.73960508  0.59187798  0.94753085  1
  Se  Se167  1  0.74540103  0.91412897  0.44381111  1
  Se  Se168  1  0.74390932  0.91934754  0.94728460  1
  Se  Se169  1  0.24717076  0.08895096  0.44402345  1
  Se  Se170  1  0.25489430  0.08248313  0.94812827  1
  Se  Se171  1  0.26417620  0.40345831  0.43859061  1
  Se  Se172  1  0.25054394  0.41507196  0.95084601  1
  Se  Se173  1  0.25865894  0.75219513  0.43327800  1
  Se  Se174  1  0.25168193  0.75037645  0.95179518  1
  Se  Se175  1  0.58010588  0.08302789  0.44190211  1
  Se  Se176  1  0.57880828  0.08480536  0.95014557  1
  Se  Se177  1  0.58485834  0.41596822  0.44297981  1
  Se  Se178  1  0.58182399  0.42012071  0.95313946  1
  Se  Se179  1  0.58763581  0.74305551  0.42906760  1
  Se  Se180  1  0.59022560  0.74470005  0.94389994  1
  Se  Se181  1  0.91283499  0.08745970  0.44648362  1
  Se  Se182  1  0.91516870  0.07954523  0.94815802  1
  Se  Se183  1  0.92769385  0.41306201  0.43068896  1
  Se  Se184  1  0.92228721  0.40725514  0.93589774  1
  Se  Se185  1  0.91107874  0.74985929  0.44958352  1
  Se  Se186  1  0.91768879  0.74282465  0.94701028  1
  Se  Se187  1  0.24789746  0.24301378  0.30927347  1
  Se  Se188  1  0.25547898  0.25372805  0.80218296  1
  Se  Se189  1  0.23085224  0.55943979  0.29889848  1
  Se  Se190  1  0.25643294  0.58868587  0.81291202  1
  Se  Se191  1  0.25378892  0.91518640  0.29760964  1
  Se  Se192  1  0.24503207  0.91279901  0.81298463  1
  Se  Se193  1  0.58559509  0.25231842  0.30541673  1
  Se  Se194  1  0.57716165  0.25022428  0.81579526  1
  Se  Se195  1  0.59341535  0.58852955  0.29445194  1
  Se  Se196  1  0.58129129  0.57895469  0.81005787  1
  Se  Se197  1  0.56272837  0.89831954  0.29873935  1
  Se  Se198  1  0.58922244  0.92115288  0.79536623  1
  Se  Se199  1  0.91917981  0.25012389  0.30117378  1
  Se  Se200  1  0.90732952  0.23507828  0.80677195  1
  Se  Se201  1  0.91648799  0.58576031  0.30359734  1
  Se  Se202  1  0.91860369  0.58901525  0.79891392  1
  Se  Se203  1  0.91102153  0.91644492  0.31404717  1
  Se  Se204  1  0.91148572  0.90784144  0.81586324  1
  Se  Se205  1  0.09171473  0.08847564  0.30700547  1
  Se  Se206  1  0.09183060  0.08985697  0.80854032  1
  Se  Se207  1  0.09261844  0.41756168  0.29171171  1
  Se  Se208  1  0.09516595  0.42555722  0.81547618  1
  Se  Se209  1  0.08359130  0.75155897  0.30183337  1
  Se  Se210  1  0.08241726  0.74281719  0.81136013  1
  Se  Se211  1  0.41345112  0.08914897  0.30368848  1
  Se  Se212  1  0.42399961  0.09374028  0.80925794  1
  Se  Se213  1  0.42806727  0.42200318  0.30955055  1
  Se  Se214  1  0.41194117  0.41543575  0.80841099  1
  Se  Se215  1  0.39004677  0.71189446  0.29566192  1
  Se  Se216  1  0.42116461  0.74952818  0.80162360  1
  Se  Se217  1  0.74492803  0.08185538  0.30216836  1
  Se  Se218  1  0.73836031  0.08111518  0.80593756  1
  Se  Se219  1  0.74916695  0.41319935  0.30019029  1
  Se  Se220  1  0.75812055  0.42519189  0.80513424  1
  Se  Se221  1  0.75178373  0.75079851  0.30293223  1
  Se  Se222  1  0.75513193  0.75618890  0.81063980  1
  Se  Se223  1  0.25628811  0.08064288  0.19535632  1
  Se  Se224  1  0.24653161  0.08872805  0.68646363  1
  Se  Se225  1  0.24781823  0.41939138  0.18334382  1
  Se  Se226  1  0.24826454  0.41932669  0.69941973  1
  Se  Se227  1  0.24614486  0.74920392  0.19100723  1
  Se  Se228  1  0.25733510  0.74435469  0.70253232  1
  Se  Se229  1  0.58510931  0.08451006  0.19761079  1
  Se  Se230  1  0.58614568  0.08829072  0.69845425  1
  Se  Se231  1  0.58460517  0.40570558  0.20635182  1
  Se  Se232  1  0.57155602  0.42406500  0.69442563  1
  Se  Se233  1  0.56687366  0.76577767  0.20841559  1
  Se  Se234  1  0.57571562  0.75699820  0.68233653  1
  Se  Se235  1  0.91045823  0.09343283  0.18881114  1
  Se  Se236  1  0.91306833  0.08609010  0.69018128  1
  Se  Se237  1  0.91626751  0.41366286  0.19980898  1
  Se  Se238  1  0.91728486  0.41594715  0.69050147  1
  Se  Se239  1  0.91757804  0.75161319  0.20093175  1
  Se  Se240  1  0.91969921  0.74790996  0.69665908  1
  Se  Se241  1  0.08482619  0.25102003  0.19474742  1
  Se  Se242  1  0.08681507  0.24574849  0.68964765  1
  Se  Se243  1  0.06400327  0.60472235  0.19184950  1
  Se  Se244  1  0.08457196  0.58638203  0.70347505  1
  Se  Se245  1  0.09101601  0.91671048  0.18658842  1
  Se  Se246  1  0.09483225  0.90143313  0.69493851  1
  Se  Se247  1  0.42177960  0.24476659  0.18903019  1
  Se  Se248  1  0.41681276  0.25479733  0.69201821  1
  Se  Se249  1  0.40097030  0.59105180  0.20769432  1
  Se  Se250  1  0.41341568  0.59047148  0.69937685  1
  Se  Se251  1  0.41845781  0.91257280  0.20335257  1
  Se  Se252  1  0.42252607  0.91278448  0.68647671  1
  Se  Se253  1  0.74792792  0.25109531  0.19544967  1
  Se  Se254  1  0.76113321  0.24075063  0.69300041  1
  Se  Se255  1  0.74871562  0.58445014  0.20008049  1
  Se  Se256  1  0.75248766  0.57356874  0.68408218  1
  Se  Se257  1  0.74569911  0.91917804  0.20183812  1
  Se  Se258  1  0.75309986  0.91508075  0.69315038  1
