# generated using pymatgen
data_In86Cu29Se144
_symmetry_space_group_name_H-M   'P 1'
_cell_length_a   17.58409811
_cell_length_b   17.58121300
_cell_length_c   23.44634204
_cell_angle_alpha   90.00528782
_cell_angle_beta   89.99983921
_cell_angle_gamma   90.01861234
_symmetry_Int_Tables_number   1
_chemical_formula_structural   In86Cu29Se144
_chemical_formula_sum   'In86 Cu29 Se144'
_cell_volume   7248.43093813
_cell_formula_units_Z   1
loop_
 _symmetry_equiv_pos_site_id
 _symmetry_equiv_pos_as_xyz
  1  'x, y, z'
loop_
 _atom_site_type_symbol
 _atom_site_label
 _atom_site_symmetry_multiplicity
 _atom_site_fract_x
 _atom_site_fract_y
 _atom_site_fract_z
 _atom_site_occupancy
  In  In0  1  -0.00244002  0.16641095  0.13446671  1
  In  In1  1  -0.03236202  0.15674467  0.61163354  1
  In  In2  1  -0.00186199  0.50361821  0.12591183  1
  In  In3  1  -0.00108079  0.50412139  0.62290167  1
  In  In4  1  -0.01163239  0.84347128  0.13592487  1
  In  In5  1  -0.00466545  0.82929292  0.62959503  1
  In  In6  1  0.33835506  0.17155709  0.12461933  1
  In  In7  1  0.32120613  0.15689667  0.62353084  1
  In  In8  1  0.34222024  0.51594280  0.11337751  1
  In  In9  1  0.33767761  0.51724080  0.62879140  1
  In  In10  1  0.33105526  0.82104408  0.12407200  1
  In  In11  1  0.33665672  0.82910839  0.61612838  1
  In  In12  1  0.66190677  0.15622776  0.13179853  1
  In  In13  1  0.68514518  0.14210773  0.63293227  1
  In  In14  1  0.67861027  0.51360635  0.11563629  1
  In  In15  1  0.67145824  0.49062466  0.63373613  1
  In  In16  1  0.66591616  0.83202733  0.12562502  1
  In  In17  1  0.68843160  0.85946665  0.60002857  1
  In  In18  1  0.15669847  -0.00477521  0.37963227  1
  In  In19  1  0.15575316  -0.01394943  0.86393231  1
  In  In20  1  0.15674340  0.34688410  0.37366624  1
  In  In21  1  0.16614584  0.34253750  0.87684169  1
  In  In22  1  0.17187018  0.68132619  0.36894052  1
  In  In23  1  0.15512705  0.65759008  0.86898797  1
  In  In24  1  0.51333439  -0.03253069  0.39009254  1
  In  In25  1  0.49676641  -0.00845305  0.86469613  1
  In  In26  1  0.49547821  0.33269440  0.37493447  1
  In  In27  1  0.51313074  0.33450660  0.87248742  1
  In  In28  1  0.50639954  0.67457988  0.36704144  1
  In  In29  1  0.49629289  0.67964149  0.88047249  1
  In  In30  1  0.83168976  -0.00858498  0.38107190  1
  In  In31  1  0.81898336  -0.01454603  0.86115371  1
  In  In32  1  0.85250129  0.32413048  0.39163449  1
  In  In33  1  0.83622937  0.36679123  0.86823908  1
  In  In34  1  0.83133534  0.66442161  0.37651829  1
  In  In35  1  0.83877200  0.66326360  0.87588503  1
  In  In36  1  -0.00903222  0.15627007  0.36991624  1
  In  In37  1  0.00217670  0.16258626  0.87456562  1
  In  In38  1  -0.00898755  0.49503994  0.36561449  1
  In  In39  1  -0.02106452  0.51842410  0.89598051  1
  In  In40  1  -0.00522504  0.83042655  0.37595368  1
  In  In41  1  -0.01501981  0.81682199  0.85748523  1
  In  In42  1  0.33113393  0.15396822  0.37964546  1
  In  In43  1  0.34112563  0.16143325  0.86946555  1
  In  In44  1  0.31951461  0.51213251  0.37394418  1
  In  In45  1  0.32566150  0.51665845  0.88099687  1
  In  In46  1  0.35097083  0.81085948  0.40035286  1
  In  In47  1  0.34130382  0.83786806  0.86426007  1
  In  In48  1  0.68971642  0.16276341  0.37999114  1
  In  In49  1  0.66453331  0.16597829  0.86663962  1
  In  In50  1  0.67191137  0.51382331  0.37007842  1
  In  In51  1  0.67841279  0.49509349  0.87963155  1
  In  In52  1  0.67261871  0.83014717  0.37940196  1
  In  In53  1  0.66619509  0.82909040  0.87676231  1
  In  In54  1  0.15918557  -0.01059906  0.12765130  1
  In  In55  1  0.18142598  -0.02487069  0.63034860  1
  In  In56  1  0.14633943  0.34626444  0.12898484  1
  In  In57  1  0.15403686  0.34300457  0.62732394  1
  In  In58  1  0.17289741  0.66091625  0.13133930  1
  In  In59  1  0.16417981  0.67568849  0.62569839  1
  In  In60  1  0.51913532  -0.00053065  0.12833548  1
  In  In61  1  0.50870441  -0.01876007  0.62135063  1
  In  In62  1  0.48812360  0.33621756  0.12297654  1
  In  In63  1  0.50490728  0.35080377  0.62874743  1
  In  In64  1  0.50129330  0.67163963  0.12181404  1
  In  In65  1  0.49298450  0.68189719  0.62759849  1
  In  In66  1  0.83790269  -0.00727766  0.13329552  1
  In  In67  1  0.83141765  0.00043814  0.62629616  1
  In  In68  1  0.84068031  0.34576068  0.12065115  1
  In  In69  1  0.82964779  0.32268567  0.61621527  1
  In  In70  1  0.83012227  0.66931579  0.12875780  1
  In  In71  1  0.84650730  0.67698713  0.62478673  1
  In  In72  1  0.16773541  0.17062353  -0.00619918  1
  In  In73  1  0.67609365  0.33774071  0.24171735  1
  In  In74  1  0.50186514  0.17156285  -0.00117447  1
  In  In75  1  0.33685096  0.32709578  0.75654946  1
  In  In76  1  0.67244484  0.67171659  0.74694004  1
  In  In77  1  0.32747584  -0.00900358  0.25716933  1
  In  In78  1  0.15620372  0.15863477  0.49385106  1
  In  In79  1  -0.00147254  0.32805286  0.74888353  1
  In  In80  1  0.50751600  0.50790014  0.49408553  1
  In  In81  1  0.15889328  0.50869248  0.50759085  1
  In  In82  1  0.33249221  0.33884231  0.24929595  1
  In  In83  1  0.83175414  0.17242420  0.00180841  1
  In  In84  1  0.51160578  0.15607035  0.51756831  1
  In  In85  1  0.16418578  0.82707956  -0.00087587  1
  Cu  Cu86  1  0.49741396  0.15877242  0.74533892  1
  Cu  Cu87  1  0.32639801  0.34879924  -0.00018426  1
  Cu  Cu88  1  0.83275758  0.50236048  0.24736448  1
  Cu  Cu89  1  0.82763240  0.83208475  0.25518702  1
  Cu  Cu90  1  -0.00219082  -0.00626634  0.50300293  1
  Cu  Cu91  1  0.17296586  0.83125370  0.74302386  1
  Cu  Cu92  1  0.50406888  0.50719875  0.75318278  1
  Cu  Cu93  1  0.49993664  0.82939985  0.25473354  1
  Cu  Cu94  1  0.16348227  0.16769565  0.25225039  1
  Cu  Cu95  1  0.33439241  0.32697596  0.50280993  1
  Cu  Cu96  1  0.82702906  0.16732569  0.74673785  1
  Cu  Cu97  1  0.34051763  -0.00537541  -0.00963050  1
  Cu  Cu98  1  0.49951701  0.51480503  0.24156742  1
  Cu  Cu99  1  0.66814979  0.66582670  0.50005262  1
  Cu  Cu100  1  0.66684122  -0.01127979  -0.00167548  1
  Cu  Cu101  1  -0.00489606  0.67150844  0.00417171  1
  Cu  Cu102  1  -0.00258599  0.66679195  0.49831199  1
  Cu  Cu103  1  0.67636444  0.33332580  0.50394908  1
  Cu  Cu104  1  0.16081689  0.15451989  0.74305291  1
  Cu  Cu105  1  0.51495039  0.15470878  0.26134670  1
  Cu  Cu106  1  -0.00974034  -0.00201729  0.00185540  1
  Cu  Cu107  1  0.16702538  0.50493452  0.75086446  1
  Cu  Cu108  1  0.66670043  0.66872346  0.00080321  1
  Cu  Cu109  1  0.50609218  0.83236762  0.74536407  1
  Cu  Cu110  1  0.16060239  0.50739923  0.25078788  1
  Cu  Cu111  1  0.83942177  0.16025502  0.25753552  1
  Cu  Cu112  1  0.33599735  0.67123808  -0.00133440  1
  Cu  Cu113  1  0.67025808  0.33983560  -0.00351838  1
  Cu  Cu114  1  0.15881567  0.83441694  0.25364735  1
  Se  Se115  1  0.07805708  0.07786379  0.05676348  1
  Se  Se116  1  0.07853151  0.07347222  0.56514854  1
  Se  Se117  1  0.08213355  0.42718175  0.05331541  1
  Se  Se118  1  0.06646907  0.40508099  0.55054963  1
  Se  Se119  1  0.07520833  0.74895447  0.06739385  1
  Se  Se120  1  0.07668579  0.74919830  0.55588515  1
  Se  Se121  1  0.41353429  0.07502654  0.05711758  1
  Se  Se122  1  0.40602159  0.06901421  0.56013932  1
  Se  Se123  1  0.42088720  0.42235303  0.04972971  1
  Se  Se124  1  0.40993297  0.41855333  0.55630395  1
  Se  Se125  1  0.41856325  0.75533159  0.05083644  1
  Se  Se126  1  0.42099615  0.74692543  0.54723131  1
  Se  Se127  1  0.74230066  0.07496787  0.05793795  1
  Se  Se128  1  0.75948155  0.08571313  0.55089227  1
  Se  Se129  1  0.75479133  0.42013289  0.05068305  1
  Se  Se130  1  0.75207807  0.42355025  0.55637320  1
  Se  Se131  1  0.74953763  0.75045369  0.05668045  1
  Se  Se132  1  0.75614698  0.74534838  0.55196765  1
  Se  Se133  1  0.25320563  0.26095471  0.06069381  1
  Se  Se134  1  0.24465066  0.25652029  0.55916609  1
  Se  Se135  1  0.24622005  0.59175473  0.04991729  1
  Se  Se136  1  0.26074628  0.59746652  0.55454573  1
  Se  Se137  1  0.25711975  0.92419225  0.05572755  1
  Se  Se138  1  0.24100031  0.90105922  0.54870826  1
  Se  Se139  1  0.59505171  0.25880771  0.06138519  1
  Se  Se140  1  0.59327810  0.26176864  0.56698115  1
  Se  Se141  1  0.58073841  0.58505638  0.05248984  1
  Se  Se142  1  0.59047797  0.58805732  0.56574056  1
  Se  Se143  1  0.58035059  0.91204738  0.05330816  1
  Se  Se144  1  0.57869097  0.91379437  0.53931500  1
  Se  Se145  1  0.93116511  0.25535048  0.05828652  1
  Se  Se146  1  0.92219364  0.25966391  0.54359955  1
  Se  Se147  1  0.91259918  0.58719800  0.05829340  1
  Se  Se148  1  0.91596083  0.58435806  0.55386905  1
  Se  Se149  1  0.91099788  0.91364335  0.05687238  1
  Se  Se150  1  0.91513958  0.91366323  0.55939725  1
  Se  Se151  1  0.07310959  0.25591718  0.43668641  1
  Se  Se152  1  0.07161922  0.26146158  0.94257828  1
  Se  Se153  1  0.07873513  0.58947868  0.43534899  1
  Se  Se154  1  0.08399480  0.59107590  0.95235486  1
  Se  Se155  1  0.07867316  0.91046306  0.44835451  1
  Se  Se156  1  0.07291375  0.91804686  0.94268926  1
  Se  Se157  1  0.41652456  0.24575706  0.44653516  1
  Se  Se158  1  0.40533198  0.26193189  0.94076529  1
  Se  Se159  1  0.41053348  0.59238855  0.43880066  1
  Se  Se160  1  0.42126580  0.58612933  0.94746247  1
  Se  Se161  1  0.40630448  0.92357365  0.45550986  1
  Se  Se162  1  0.42337104  0.91074883  0.94029135  1
  Se  Se163  1  0.75872653  0.24570985  0.45448444  1
  Se  Se164  1  0.74479309  0.25678728  0.93524349  1
  Se  Se165  1  0.75050508  0.57979172  0.44849147  1
  Se  Se166  1  0.75206751  0.58710318  0.94647841  1
  Se  Se167  1  0.74474574  0.91682423  0.45097446  1
  Se  Se168  1  0.75426470  0.91258325  0.94379825  1
  Se  Se169  1  0.25754571  0.06519879  0.44986199  1
  Se  Se170  1  0.25373967  0.07259837  0.93549528  1
  Se  Se171  1  0.25473708  0.41237472  0.44577809  1
  Se  Se172  1  0.24248410  0.42828482  0.94563654  1
  Se  Se173  1  0.23539683  0.75206609  0.45146078  1
  Se  Se174  1  0.25507547  0.74632035  0.93395129  1
  Se  Se175  1  0.59054656  0.08161415  0.44116028  1
  Se  Se176  1  0.58769946  0.07614635  0.94039437  1
  Se  Se177  1  0.59508109  0.40687096  0.43921588  1
  Se  Se178  1  0.58197801  0.42017529  0.94558207  1
  Se  Se179  1  0.58400477  0.74463985  0.44470845  1
  Se  Se180  1  0.58369747  0.75475608  0.95042714  1
  Se  Se181  1  0.91924340  0.07795683  0.44621762  1
  Se  Se182  1  0.91327818  0.07730136  0.94005043  1
  Se  Se183  1  0.90958569  0.43678597  0.44595381  1
  Se  Se184  1  0.92172867  0.40616436  0.95098574  1
  Se  Se185  1  0.91138962  0.74947562  0.44605836  1
  Se  Se186  1  0.91907140  0.75306496  0.94362642  1
  Se  Se187  1  0.24630820  0.24488211  0.31243556  1
  Se  Se188  1  0.23481834  0.23787522  0.80729510  1
  Se  Se189  1  0.24837700  0.59095335  0.29906344  1
  Se  Se190  1  0.25246327  0.58835786  0.80141118  1
  Se  Se191  1  0.24463587  0.90109346  0.31905094  1
  Se  Se192  1  0.25227370  0.91755613  0.79873321  1
  Se  Se193  1  0.58985812  0.24963907  0.31175679  1
  Se  Se194  1  0.57665477  0.24496370  0.79912432  1
  Se  Se195  1  0.58659489  0.58819824  0.29910447  1
  Se  Se196  1  0.58423183  0.58741536  0.81415538  1
  Se  Se197  1  0.58674817  0.90973502  0.30614908  1
  Se  Se198  1  0.58891622  0.91107254  0.80334116  1
  Se  Se199  1  0.91626973  0.25367681  0.30637635  1
  Se  Se200  1  0.90266058  0.24542442  0.81293337  1
  Se  Se201  1  0.91366924  0.58737558  0.30169927  1
  Se  Se202  1  0.91808167  0.57600396  0.80833298  1
  Se  Se203  1  0.91375096  0.91555024  0.30677993  1
  Se  Se204  1  0.93699577  0.93744912  0.80668992  1
  Se  Se205  1  0.08566516  0.07985390  0.30540436  1
  Se  Se206  1  0.07656250  0.08086595  0.80223469  1
  Se  Se207  1  0.07946609  0.41623403  0.29677107  1
  Se  Se208  1  0.08412182  0.42427648  0.80683426  1
  Se  Se209  1  0.07409253  0.74810874  0.30238810  1
  Se  Se210  1  0.08870138  0.74917004  0.79796514  1
  Se  Se211  1  0.42720720  0.07624282  0.31574346  1
  Se  Se212  1  0.41299872  0.07700991  0.79785834  1
  Se  Se213  1  0.42509876  0.43339374  0.30740605  1
  Se  Se214  1  0.42004636  0.42646554  0.81213636  1
  Se  Se215  1  0.40857273  0.75428033  0.30752069  1
  Se  Se216  1  0.42294996  0.74881537  0.79922405  1
  Se  Se217  1  0.75411459  0.07634999  0.30597680  1
  Se  Se218  1  0.74293595  0.08081478  0.79827690  1
  Se  Se219  1  0.76012141  0.41760970  0.31157939  1
  Se  Se220  1  0.73520640  0.41237853  0.79851926  1
  Se  Se221  1  0.74643028  0.74499484  0.30659129  1
  Se  Se222  1  0.76377664  0.75979261  0.80694466  1
  Se  Se223  1  0.24604290  0.08945182  0.19108265  1
  Se  Se224  1  0.25170402  0.07362320  0.69695428  1
  Se  Se225  1  0.24766099  0.43055542  0.18852960  1
  Se  Se226  1  0.24985147  0.42142977  0.69374092  1
  Se  Se227  1  0.24543544  0.75554924  0.19856536  1
  Se  Se228  1  0.25838455  0.74806690  0.69202256  1
  Se  Se229  1  0.59539048  0.07163624  0.20680185  1
  Se  Se230  1  0.57828511  0.07596186  0.69055150  1
  Se  Se231  1  0.57733519  0.42484394  0.18590232  1
  Se  Se232  1  0.58517144  0.41707008  0.70621293  1
  Se  Se233  1  0.58110688  0.75041011  0.19497970  1
  Se  Se234  1  0.59346247  0.76472637  0.68267614  1
  Se  Se235  1  0.92066299  0.07777628  0.20039034  1
  Se  Se236  1  0.91466450  0.08438951  0.69797351  1
  Se  Se237  1  0.91774809  0.41713972  0.19723229  1
  Se  Se238  1  0.91030250  0.41500775  0.68731254  1
  Se  Se239  1  0.91197655  0.75062786  0.20011690  1
  Se  Se240  1  0.92439548  0.74347368  0.70327867  1
  Se  Se241  1  0.08211384  0.25194650  0.19927702  1
  Se  Se242  1  0.08206885  0.23595703  0.68435117  1
  Se  Se243  1  0.07742888  0.58904791  0.19648036  1
  Se  Se244  1  0.08653638  0.58187647  0.69046954  1
  Se  Se245  1  0.07778221  0.92297990  0.20371562  1
  Se  Se246  1  0.08147114  0.91432555  0.69712090  1
  Se  Se247  1  0.43196901  0.23735088  0.20115703  1
  Se  Se248  1  0.42011256  0.24396457  0.68524487  1
  Se  Se249  1  0.41064141  0.59428961  0.19156015  1
  Se  Se250  1  0.42321780  0.59038665  0.69924319  1
  Se  Se251  1  0.42244460  0.91201323  0.19042632  1
  Se  Se252  1  0.41766835  0.90951116  0.69052797  1
  Se  Se253  1  0.76620732  0.23838052  0.18755598  1
  Se  Se254  1  0.74634973  0.25199591  0.69213322  1
  Se  Se255  1  0.74546676  0.58441601  0.19776004  1
  Se  Se256  1  0.76344892  0.57947633  0.69210280  1
  Se  Se257  1  0.74643544  0.91462827  0.19756016  1
  Se  Se258  1  0.74064212  0.92076806  0.69091989  1
