# generated using pymatgen
data_In86Cu29Se144
_symmetry_space_group_name_H-M   'P 1'
_cell_length_a   17.58649798
_cell_length_b   17.58299947
_cell_length_c   23.44097106
_cell_angle_alpha   90.02049233
_cell_angle_beta   90.01812640
_cell_angle_gamma   89.96919809
_symmetry_Int_Tables_number   1
_chemical_formula_structural   In86Cu29Se144
_chemical_formula_sum   'In86 Cu29 Se144'
_cell_volume   7248.49453373
_cell_formula_units_Z   1
loop_
 _symmetry_equiv_pos_site_id
 _symmetry_equiv_pos_as_xyz
  1  'x, y, z'
loop_
 _atom_site_type_symbol
 _atom_site_label
 _atom_site_symmetry_multiplicity
 _atom_site_fract_x
 _atom_site_fract_y
 _atom_site_fract_z
 _atom_site_occupancy
  In  In0  1  0.00432537  0.15658838  0.12549472  1
  In  In1  1  0.01082011  0.18037013  0.61841352  1
  In  In2  1  0.02066898  0.50183652  0.12555927  1
  In  In3  1  -0.00793297  0.50150733  0.62590747  1
  In  In4  1  -0.01073426  0.82466711  0.12077686  1
  In  In5  1  -0.01761052  0.81314935  0.60756458  1
  In  In6  1  0.31238777  0.16618391  0.13097807  1
  In  In7  1  0.31421822  0.16735956  0.62039410  1
  In  In8  1  0.33928124  0.51433831  0.11564623  1
  In  In9  1  0.32795435  0.48571188  0.60390338  1
  In  In10  1  0.33168306  0.82890211  0.12421667  1
  In  In11  1  0.31613994  0.83181345  0.62356822  1
  In  In12  1  0.66231069  0.16871278  0.13518648  1
  In  In13  1  0.66890578  0.15262271  0.62865892  1
  In  In14  1  0.65498575  0.49706257  0.13135022  1
  In  In15  1  0.67511578  0.50373811  0.61688125  1
  In  In16  1  0.67224198  0.84167353  0.11984695  1
  In  In17  1  0.67684626  0.82049562  0.63674374  1
  In  In18  1  0.17090089  -0.00031998  0.37377522  1
  In  In19  1  0.16809630  -0.00672075  0.88124421  1
  In  In20  1  0.17494027  0.33709676  0.38665279  1
  In  In21  1  0.16505509  0.33933674  0.87491850  1
  In  In22  1  0.16653510  0.66707306  0.37530691  1
  In  In23  1  0.16126168  0.67066096  0.88168794  1
  In  In24  1  0.49849108  -0.00154001  0.36152755  1
  In  In25  1  0.50084592  -0.01403998  0.88005790  1
  In  In26  1  0.50839343  0.33468079  0.37214988  1
  In  In27  1  0.50590681  0.36414675  0.88053184  1
  In  In28  1  0.48891735  0.66730865  0.36747429  1
  In  In29  1  0.50525793  0.66189899  0.88440529  1
  In  In30  1  0.83044017  0.00268270  0.38377118  1
  In  In31  1  0.82361946  0.00245232  0.87089862  1
  In  In32  1  0.82772027  0.33851180  0.38278331  1
  In  In33  1  0.83750066  0.32552665  0.87101367  1
  In  In34  1  0.85085253  0.65665586  0.39137991  1
  In  In35  1  0.84516900  0.67597519  0.86839656  1
  In  In36  1  0.00554037  0.16377721  0.38425728  1
  In  In37  1  0.00479620  0.17646035  0.86759702  1
  In  In38  1  0.00323628  0.51136811  0.38530343  1
  In  In39  1  0.00548741  0.50770858  0.86246723  1
  In  In40  1  0.01443729  0.81813003  0.38948175  1
  In  In41  1  0.00809577  0.82540985  0.88260136  1
  In  In42  1  0.33320730  0.16246998  0.36894218  1
  In  In43  1  0.32777279  0.16422909  0.88070728  1
  In  In44  1  0.32418249  0.50944619  0.38182994  1
  In  In45  1  0.32808083  0.51468465  0.89098303  1
  In  In46  1  0.32789186  0.82429031  0.35953526  1
  In  In47  1  0.33100620  0.82538914  0.89317452  1
  In  In48  1  0.66887279  0.16839200  0.37244787  1
  In  In49  1  0.67863922  0.16998608  0.87175431  1
  In  In50  1  0.67170975  0.49658653  0.37812366  1
  In  In51  1  0.64884838  0.50500889  0.87863697  1
  In  In52  1  0.66952585  0.84264492  0.37172893  1
  In  In53  1  0.67358600  0.83382887  0.87604931  1
  In  In54  1  0.17449722  0.00444111  0.12356183  1
  In  In55  1  0.15978243  -0.00577978  0.61601627  1
  In  In56  1  0.16752896  0.33500427  0.11630204  1
  In  In57  1  0.15170063  0.32146634  0.61706992  1
  In  In58  1  0.16698259  0.66525293  0.12739971  1
  In  In59  1  0.13546143  0.64376712  0.60005993  1
  In  In60  1  0.50557684  -0.01048686  0.12928121  1
  In  In61  1  0.50527966  0.00668806  0.62803713  1
  In  In62  1  0.50475457  0.34826974  0.12699975  1
  In  In63  1  0.48673834  0.34033285  0.62165242  1
  In  In64  1  0.48038434  0.65328345  0.10847188  1
  In  In65  1  0.51124595  0.66344209  0.62636924  1
  In  In66  1  0.83625498  -0.01410718  0.12815462  1
  In  In67  1  0.82698230  -0.01063749  0.61917051  1
  In  In68  1  0.83252845  0.32414734  0.13309645  1
  In  In69  1  0.84773950  0.34716423  0.61609748  1
  In  In70  1  0.82779347  0.68087438  0.12744095  1
  In  In71  1  0.83214520  0.66365689  0.62443422  1
  In  In72  1  0.33702039  0.33776860  0.25058826  1
  In  In73  1  0.83748616  0.16423049  -0.00740077  1
  In  In74  1  0.33412061  -0.00627767  0.74510567  1
  In  In75  1  0.49621426  0.17353820  0.49497720  1
  In  In76  1  -0.00060336  -0.00256870  0.74466381  1
  In  In77  1  0.33401684  0.66664739  0.75324943  1
  In  In78  1  0.66341644  0.67089235  0.24832839  1
  In  In79  1  0.32865958  0.33112535  0.74673616  1
  In  In80  1  -0.00011775  0.33708853  0.25342926  1
  In  In81  1  0.66703298  0.33656098  0.75290829  1
  In  In82  1  0.50162148  0.82980857  0.49529682  1
  In  In83  1  -0.00050233  -0.00538834  0.26003086  1
  In  In84  1  0.83111116  0.50261453  0.00238343  1
  In  In85  1  0.49623556  0.16934697  0.00797636  1
  Cu  Cu86  1  -0.00069422  0.00743607  0.50151553  1
  Cu  Cu87  1  0.82382682  0.16380496  0.25821421  1
  Cu  Cu88  1  0.83195067  0.83182422  0.74675150  1
  Cu  Cu89  1  0.50392158  0.16427029  0.75245596  1
  Cu  Cu90  1  0.00781947  -0.00581535  0.00242746  1
  Cu  Cu91  1  0.00239077  0.66501183  -0.00192542  1
  Cu  Cu92  1  0.83030485  0.50434546  0.74331849  1
  Cu  Cu93  1  0.66764640  -0.00407387  0.50161121  1
  Cu  Cu94  1  0.66831733  0.67476845  0.00137485  1
  Cu  Cu95  1  0.15743551  0.49716693  0.74568124  1
  Cu  Cu96  1  0.00475610  0.33353180  -0.00570673  1
  Cu  Cu97  1  0.66825264  0.32825058  0.49809493  1
  Cu  Cu98  1  0.32776394  -0.00359498  0.00395967  1
  Cu  Cu99  1  -0.00119690  0.33727752  0.49924471  1
  Cu  Cu100  1  0.16154024  0.82660246  0.75202877  1
  Cu  Cu101  1  0.67058695  0.66325158  0.50236244  1
  Cu  Cu102  1  0.49774264  0.83222017  0.24147056  1
  Cu  Cu103  1  0.67069290  0.00292026  -0.00020689  1
  Cu  Cu104  1  0.33167734  0.67424207  0.49116573  1
  Cu  Cu105  1  0.49797681  0.15963077  0.24844467  1
  Cu  Cu106  1  0.51009739  0.83447371  0.75633511  1
  Cu  Cu107  1  0.16304014  0.83290828  0.24982144  1
  Cu  Cu108  1  0.17202446  0.50756898  0.25189352  1
  Cu  Cu109  1  0.49607953  0.50771153  0.75026281  1
  Cu  Cu110  1  0.33418115  0.33342273  0.00493061  1
  Cu  Cu111  1  0.32960756  0.00161060  0.49154451  1
  Cu  Cu112  1  0.83516297  0.82921124  0.25164042  1
  Cu  Cu113  1  0.83751021  0.16930129  0.74546727  1
  Cu  Cu114  1  0.83629822  0.50206334  0.26242750  1
  Se  Se115  1  0.08659302  0.08338587  0.05328273  1
  Se  Se116  1  0.08787082  0.08971252  0.55102918  1
  Se  Se117  1  0.08513289  0.41849863  0.04809909  1
  Se  Se118  1  0.07869425  0.42023698  0.55625986  1
  Se  Se119  1  0.08167032  0.74709755  0.05680298  1
  Se  Se120  1  0.10664353  0.77474555  0.55716717  1
  Se  Se121  1  0.40648196  0.07803726  0.06518157  1
  Se  Se122  1  0.40899812  0.07640110  0.55703142  1
  Se  Se123  1  0.41845810  0.41748743  0.05457748  1
  Se  Se124  1  0.43229487  0.42310506  0.54268707  1
  Se  Se125  1  0.42240170  0.76283306  0.05166442  1
  Se  Se126  1  0.41086622  0.74507791  0.56014880  1
  Se  Se127  1  0.74938172  0.08195836  0.06209700  1
  Se  Se128  1  0.74949585  0.08289310  0.55277984  1
  Se  Se129  1  0.74882542  0.41036400  0.06494079  1
  Se  Se130  1  0.75136952  0.41522685  0.54940107  1
  Se  Se131  1  0.75549875  0.75752421  0.05089651  1
  Se  Se132  1  0.74831746  0.75113678  0.55617523  1
  Se  Se133  1  0.24917708  0.24610142  0.05099734  1
  Se  Se134  1  0.26565822  0.27273050  0.55608487  1
  Se  Se135  1  0.22859893  0.56844835  0.05717076  1
  Se  Se136  1  0.25345852  0.58868210  0.54758334  1
  Se  Se137  1  0.24430151  0.91139708  0.05574422  1
  Se  Se138  1  0.25162397  0.91833924  0.54897717  1
  Se  Se139  1  0.59365515  0.25751420  0.05988667  1
  Se  Se140  1  0.58914687  0.25230095  0.56317766  1
  Se  Se141  1  0.59332924  0.58621893  0.05628594  1
  Se  Se142  1  0.58191355  0.58151499  0.55173102  1
  Se  Se143  1  0.58466987  0.92076160  0.05098219  1
  Se  Se144  1  0.58800057  0.91592219  0.56213985  1
  Se  Se145  1  0.92543689  0.25545058  0.05680308  1
  Se  Se146  1  0.91568663  0.24920862  0.55036276  1
  Se  Se147  1  0.92277267  0.58953965  0.06364630  1
  Se  Se148  1  0.91619149  0.58585541  0.55522279  1
  Se  Se149  1  0.91565557  0.91672856  0.05162124  1
  Se  Se150  1  0.91530544  0.91841909  0.54863403  1
  Se  Se151  1  0.08528639  0.25312631  0.44902882  1
  Se  Se152  1  0.08680883  0.24738286  0.94252186  1
  Se  Se153  1  0.08605310  0.59505626  0.45142376  1
  Se  Se154  1  0.07839001  0.57714443  0.94324951  1
  Se  Se155  1  0.08233215  0.92726921  0.44433842  1
  Se  Se156  1  0.09089826  0.90818176  0.95053546  1
  Se  Se157  1  0.40544517  0.26157297  0.43673127  1
  Se  Se158  1  0.41630380  0.26158442  0.93848582  1
  Se  Se159  1  0.42000734  0.58945627  0.44501713  1
  Se  Se160  1  0.42641395  0.58041776  0.95416619  1
  Se  Se161  1  0.41189370  0.91996584  0.43529332  1
  Se  Se162  1  0.41619545  0.91680919  0.95280097  1
  Se  Se163  1  0.75023650  0.24301867  0.44621132  1
  Se  Se164  1  0.74185955  0.26380851  0.94609859  1
  Se  Se165  1  0.75213182  0.57771105  0.44914848  1
  Se  Se166  1  0.74701336  0.59359256  0.93868418  1
  Se  Se167  1  0.74973945  0.91111705  0.44899595  1
  Se  Se168  1  0.75489646  0.92043951  0.94619534  1
  Se  Se169  1  0.24864757  0.09012391  0.44238898  1
  Se  Se170  1  0.24834272  0.08090459  0.94851057  1
  Se  Se171  1  0.24845345  0.42642267  0.45263294  1
  Se  Se172  1  0.25113980  0.41295595  0.94646049  1
  Se  Se173  1  0.25049135  0.75951161  0.43965138  1
  Se  Se174  1  0.25913261  0.72707977  0.95160238  1
  Se  Se175  1  0.58241656  0.07216912  0.44151512  1
  Se  Se176  1  0.59003122  0.08554573  0.94142322  1
  Se  Se177  1  0.58625513  0.41310807  0.44584001  1
  Se  Se178  1  0.59127900  0.42134429  0.95728818  1
  Se  Se179  1  0.59308867  0.73953844  0.43634328  1
  Se  Se180  1  0.58598015  0.75646965  0.94533948  1
  Se  Se181  1  0.91281083  0.08921347  0.44953603  1
  Se  Se182  1  0.93099056  0.07312344  0.93609753  1
  Se  Se183  1  0.91689145  0.42083382  0.44572057  1
  Se  Se184  1  0.92045132  0.41383504  0.93845937  1
  Se  Se185  1  0.91478210  0.75644287  0.45579372  1
  Se  Se186  1  0.91551069  0.74932762  0.94875978  1
  Se  Se187  1  0.24037728  0.25128104  0.30644884  1
  Se  Se188  1  0.24297759  0.23903688  0.80676769  1
  Se  Se189  1  0.25492188  0.59093780  0.30471793  1
  Se  Se190  1  0.24046609  0.57288565  0.80810709  1
  Se  Se191  1  0.24700580  0.91949037  0.29943895  1
  Se  Se192  1  0.24876902  0.90221419  0.80943944  1
  Se  Se193  1  0.57909460  0.24295748  0.30375856  1
  Se  Se194  1  0.57122033  0.25141941  0.81489990  1
  Se  Se195  1  0.58017443  0.57608710  0.30754065  1
  Se  Se196  1  0.57982648  0.58912341  0.80374763  1
  Se  Se197  1  0.58254930  0.91064467  0.29815741  1
  Se  Se198  1  0.59024556  0.92124156  0.80744572  1
  Se  Se199  1  0.91153208  0.24314986  0.31280035  1
  Se  Se200  1  0.91979354  0.25333150  0.79725669  1
  Se  Se201  1  0.92236419  0.58615215  0.30966194  1
  Se  Se202  1  0.91589432  0.58650753  0.79746539  1
  Se  Se203  1  0.91193852  0.90382640  0.31860267  1
  Se  Se204  1  0.91363485  0.90915456  0.80961189  1
  Se  Se205  1  0.08968059  0.09574571  0.30599812  1
  Se  Se206  1  0.09201714  0.08073646  0.80740375  1
  Se  Se207  1  0.09270173  0.42526848  0.31247847  1
  Se  Se208  1  0.08042800  0.40966601  0.80028088  1
  Se  Se209  1  0.08150487  0.75014421  0.30535136  1
  Se  Se210  1  0.07962312  0.74405171  0.80662571  1
  Se  Se211  1  0.40895996  0.07897803  0.29724017  1
  Se  Se212  1  0.42094743  0.08439273  0.81100438  1
  Se  Se213  1  0.41989770  0.42840920  0.31251096  1
  Se  Se214  1  0.41111594  0.43034588  0.80823406  1
  Se  Se215  1  0.41559555  0.74584471  0.29212434  1
  Se  Se216  1  0.42177651  0.75871391  0.81382045  1
  Se  Se217  1  0.74580668  0.07319365  0.30853915  1
  Se  Se218  1  0.75177381  0.08821444  0.79798399  1
  Se  Se219  1  0.75099910  0.41386860  0.30609723  1
  Se  Se220  1  0.75516738  0.42972700  0.81270154  1
  Se  Se221  1  0.75899675  0.74639309  0.31403844  1
  Se  Se222  1  0.74983379  0.74949849  0.80326137  1
  Se  Se223  1  0.24099148  0.08240413  0.20230928  1
  Se  Se224  1  0.23683467  0.08228797  0.69267365  1
  Se  Se225  1  0.24423596  0.42300983  0.18933572  1
  Se  Se226  1  0.24317091  0.42319481  0.68590376  1
  Se  Se227  1  0.24787157  0.75053968  0.19608039  1
  Se  Se228  1  0.23746353  0.74366418  0.69082642  1
  Se  Se229  1  0.58523123  0.07608959  0.19811095  1
  Se  Se230  1  0.58697455  0.07835314  0.70282869  1
  Se  Se231  1  0.58665255  0.41153678  0.20414099  1
  Se  Se232  1  0.57542762  0.42324803  0.69151358  1
  Se  Se233  1  0.57881206  0.75338624  0.18069090  1
  Se  Se234  1  0.58347089  0.74442750  0.70131529  1
  Se  Se235  1  0.90795749  0.08807117  0.19711277  1
  Se  Se236  1  0.91290686  0.08815620  0.68267478  1
  Se  Se237  1  0.91279117  0.42890881  0.19166897  1
  Se  Se238  1  0.91615820  0.41583373  0.69887387  1
  Se  Se239  1  0.91911262  0.74607694  0.19968870  1
  Se  Se240  1  0.91612197  0.74896722  0.69354391  1
  Se  Se241  1  0.08739489  0.24857468  0.19054518  1
  Se  Se242  1  0.08791423  0.24644350  0.69760239  1
  Se  Se243  1  0.08212616  0.58777866  0.20175745  1
  Se  Se244  1  0.07981383  0.58662669  0.69285111  1
  Se  Se245  1  0.08118858  0.91179438  0.18913328  1
  Se  Se246  1  0.08445351  0.90235776  0.68657403  1
  Se  Se247  1  0.42247571  0.24349074  0.18663890  1
  Se  Se248  1  0.42202261  0.23593197  0.68961288  1
  Se  Se249  1  0.41974244  0.58187582  0.19238817  1
  Se  Se250  1  0.41236123  0.57528884  0.68463340  1
  Se  Se251  1  0.40994783  0.91787465  0.19426086  1
  Se  Se252  1  0.42709200  0.90092804  0.68816543  1
  Se  Se253  1  0.74668149  0.25091756  0.20343836  1
  Se  Se254  1  0.75526127  0.25247298  0.68723931  1
  Se  Se255  1  0.75933824  0.57638051  0.19341628  1
  Se  Se256  1  0.74264332  0.58545348  0.69390275  1
  Se  Se257  1  0.75088648  0.91272129  0.19962993  1
  Se  Se258  1  0.74911774  0.92106473  0.69860932  1
