# generated using pymatgen
data_In86Cu29Se144
_symmetry_space_group_name_H-M   'P 1'
_cell_length_a   17.58650457
_cell_length_b   17.58775853
_cell_length_c   23.45227447
_cell_angle_alpha   89.99270570
_cell_angle_beta   90.01774979
_cell_angle_gamma   89.99638049
_symmetry_Int_Tables_number   1
_chemical_formula_structural   In86Cu29Se144
_chemical_formula_sum   'In86 Cu29 Se144'
_cell_volume   7253.95683204
_cell_formula_units_Z   1
loop_
 _symmetry_equiv_pos_site_id
 _symmetry_equiv_pos_as_xyz
  1  'x, y, z'
loop_
 _atom_site_type_symbol
 _atom_site_label
 _atom_site_symmetry_multiplicity
 _atom_site_fract_x
 _atom_site_fract_y
 _atom_site_fract_z
 _atom_site_occupancy
  In  In0  1  0.01612880  0.16042456  0.12553934  1
  In  In1  1  -0.00445324  0.16404654  0.61783999  1
  In  In2  1  0.00613448  0.50598418  0.11393490  1
  In  In3  1  0.01149616  0.49803596  0.62851002  1
  In  In4  1  0.01546660  0.82774682  0.12422689  1
  In  In5  1  0.01050758  0.82111509  0.63569571  1
  In  In6  1  0.32136102  0.15452351  0.11993982  1
  In  In7  1  0.33267802  0.18177930  0.62745879  1
  In  In8  1  0.33654465  0.50677139  0.12059398  1
  In  In9  1  0.31728465  0.51357836  0.63873927  1
  In  In10  1  0.32420649  0.82404578  0.12876115  1
  In  In11  1  0.31846865  0.80735172  0.60813903  1
  In  In12  1  0.66595056  0.18166954  0.12669005  1
  In  In13  1  0.65837495  0.15460769  0.62299445  1
  In  In14  1  0.66030783  0.49863435  0.12491623  1
  In  In15  1  0.67625137  0.50347060  0.62798034  1
  In  In16  1  0.64557512  0.82198138  0.11666771  1
  In  In17  1  0.65991482  0.83540182  0.62722276  1
  In  In18  1  0.17583585  -0.00209202  0.38186904  1
  In  In19  1  0.16482236  0.00576307  0.87563879  1
  In  In20  1  0.16396392  0.33587862  0.38364883  1
  In  In21  1  0.17251583  0.32707643  0.88079995  1
  In  In22  1  0.18063244  0.66995951  0.37902635  1
  In  In23  1  0.16923478  0.66640397  0.87507418  1
  In  In24  1  0.47948010  -0.00242430  0.36937122  1
  In  In25  1  0.50713424  -0.00980814  0.88104829  1
  In  In26  1  0.50513435  0.32986322  0.36829987  1
  In  In27  1  0.49026032  0.34660206  0.88290877  1
  In  In28  1  0.49785667  0.66920682  0.37273200  1
  In  In29  1  0.49644682  0.67112942  0.87482457  1
  In  In30  1  0.84645682  0.00324210  0.37707423  1
  In  In31  1  0.83128460  -0.00219526  0.86448337  1
  In  In32  1  0.81799634  0.33266175  0.38074942  1
  In  In33  1  0.84293499  0.34453288  0.87403665  1
  In  In34  1  0.82566209  0.66995660  0.37070524  1
  In  In35  1  0.82677511  0.66396611  0.86994152  1
  In  In36  1  0.00662613  0.16385443  0.39353263  1
  In  In37  1  0.01249148  0.16823464  0.87252360  1
  In  In38  1  0.01267441  0.50826385  0.37762770  1
  In  In39  1  -0.00970055  0.50840286  0.88330898  1
  In  In40  1  0.00653753  0.84147696  0.37819150  1
  In  In41  1  0.01059857  0.84369232  0.86712958  1
  In  In42  1  0.33016816  0.15375342  0.37109861  1
  In  In43  1  0.32761701  0.17701895  0.88099755  1
  In  In44  1  0.31535632  0.52131415  0.37388370  1
  In  In45  1  0.33203722  0.50132645  0.87588181  1
  In  In46  1  0.32774100  0.83863492  0.37709916  1
  In  In47  1  0.34563227  0.82058306  0.88102672  1
  In  In48  1  0.66429870  0.17805556  0.37526277  1
  In  In49  1  0.66682791  0.15422384  0.87340440  1
  In  In50  1  0.66101257  0.49735620  0.36714769  1
  In  In51  1  0.64320210  0.53337731  0.90034758  1
  In  In52  1  0.66198953  0.81584135  0.36903198  1
  In  In53  1  0.65156246  0.82352069  0.86753224  1
  In  In54  1  0.18261144  0.00734079  0.12337349  1
  In  In55  1  0.16346671  -0.01131765  0.62340551  1
  In  In56  1  0.16910770  0.33408577  0.12133393  1
  In  In57  1  0.17060488  0.34879620  0.61369836  1
  In  In58  1  0.17775763  0.66888198  0.12136043  1
  In  In59  1  0.16774392  0.66046654  0.62711824  1
  In  In60  1  0.47615640  -0.01834558  0.11299001  1
  In  In61  1  0.51254087  -0.00859695  0.62826543  1
  In  In62  1  0.50522141  0.34568645  0.11782950  1
  In  In63  1  0.49324304  0.32300671  0.62767939  1
  In  In64  1  0.49672599  0.66171080  0.12351746  1
  In  In65  1  0.49062293  0.67266142  0.63467313  1
  In  In66  1  0.84047776  0.00372097  0.12248609  1
  In  In67  1  0.82859303  0.00502575  0.62786627  1
  In  In68  1  0.81915486  0.33486591  0.12859639  1
  In  In69  1  0.84610201  0.33114622  0.61837474  1
  In  In70  1  0.82510524  0.64882053  0.11817038  1
  In  In71  1  0.82943927  0.67095575  0.63698674  1
  In  In72  1  0.49887976  0.16238589  0.49974182  1
  In  In73  1  0.00275766  0.33460651  0.25710523  1
  In  In74  1  0.33799680  0.33564752  0.24937828  1
  In  In75  1  0.66787216  0.33689288  0.75110674  1
  In  In76  1  0.00905368  -0.00323015  0.25408998  1
  In  In77  1  0.00389611  0.33312535  0.74504540  1
  In  In78  1  0.00657798  0.66904681  0.25079336  1
  In  In79  1  0.84102398  0.49580515  0.50493056  1
  In  In80  1  0.82911622  0.82743369  -0.00020760  1
  In  In81  1  0.83599154  0.83672255  0.49742356  1
  In  In82  1  0.83593986  0.17257050  0.00003796  1
  In  In83  1  0.66210810  -0.00270308  0.23867802  1
  In  In84  1  0.33946771  -0.00636103  0.75150416  1
  In  In85  1  0.49498169  0.49867891  0.49287802  1
  Cu  Cu86  1  0.01209586  0.66793386  0.50439788  1
  Cu  Cu87  1  0.33401226  0.66535255  0.00037259  1
  Cu  Cu88  1  0.50049728  0.83140156  0.75041281  1
  Cu  Cu89  1  0.33190179  0.33798268  0.49989973  1
  Cu  Cu90  1  0.82858179  0.49494620  0.24683213  1
  Cu  Cu91  1  0.49770909  0.16724421  0.75065537  1
  Cu  Cu92  1  0.50014091  0.16804018  0.24422746  1
  Cu  Cu93  1  0.00436548  0.33406755  -0.00048545  1
  Cu  Cu94  1  0.49909077  0.50255807  0.76003570  1
  Cu  Cu95  1  0.50138609  0.50203077  0.24496047  1
  Cu  Cu96  1  0.83341619  0.15935190  0.74292355  1
  Cu  Cu97  1  0.17239963  0.82637828  0.74807601  1
  Cu  Cu98  1  0.33447583  0.33407011  0.00195072  1
  Cu  Cu99  1  0.16747757  0.16549708  0.75330166  1
  Cu  Cu100  1  0.66058012  -0.00066017  -0.00320228  1
  Cu  Cu101  1  0.82657837  0.50963470  0.75855294  1
  Cu  Cu102  1  0.66764722  -0.00131696  0.50127148  1
  Cu  Cu103  1  0.01002679  0.00009965  -0.00416139  1
  Cu  Cu104  1  0.49144961  0.82897182  0.24386406  1
  Cu  Cu105  1  0.83562688  0.83817128  0.74916320  1
  Cu  Cu106  1  0.33056420  -0.00113523  -0.00312474  1
  Cu  Cu107  1  0.00390719  0.00143934  0.50484846  1
  Cu  Cu108  1  0.16708445  0.49983917  0.75310547  1
  Cu  Cu109  1  0.33367637  -0.00118037  0.49950472  1
  Cu  Cu110  1  0.82534318  0.82204755  0.24348460  1
  Cu  Cu111  1  0.66030492  0.66489809  0.49857092  1
  Cu  Cu112  1  0.83212215  0.17131355  0.25570024  1
  Cu  Cu113  1  0.00730070  0.67100599  -0.00241914  1
  Cu  Cu114  1  0.66766020  0.33799498  0.00255234  1
  Se  Se115  1  0.09093327  0.08173445  0.05243976  1
  Se  Se116  1  0.09031322  0.08274611  0.55686952  1
  Se  Se117  1  0.08931471  0.41729107  0.05129132  1
  Se  Se118  1  0.06771407  0.41303863  0.55147887  1
  Se  Se119  1  0.09236332  0.75058494  0.05145808  1
  Se  Se120  1  0.09063413  0.75317585  0.55859140  1
  Se  Se121  1  0.41358589  0.08547305  0.04957006  1
  Se  Se122  1  0.41145341  0.07609719  0.56512867  1
  Se  Se123  1  0.41675912  0.42242782  0.05094764  1
  Se  Se124  1  0.41111575  0.41418978  0.56231771  1
  Se  Se125  1  0.41245832  0.74919037  0.05819221  1
  Se  Se126  1  0.43452315  0.75469679  0.55418165  1
  Se  Se127  1  0.74256425  0.07801807  0.05684581  1
  Se  Se128  1  0.74860846  0.08263878  0.55360775  1
  Se  Se129  1  0.75156421  0.42007863  0.05548805  1
  Se  Se130  1  0.74136675  0.40724044  0.55718062  1
  Se  Se131  1  0.73581105  0.73513995  0.05198202  1
  Se  Se132  1  0.74710679  0.74298017  0.55574127  1
  Se  Se133  1  0.24945142  0.24968863  0.05313297  1
  Se  Se134  1  0.25096389  0.25197617  0.55282709  1
  Se  Se135  1  0.24790881  0.57984732  0.04942380  1
  Se  Se136  1  0.24506129  0.57490044  0.55699803  1
  Se  Se137  1  0.25253458  0.91459730  0.05548348  1
  Se  Se138  1  0.25003719  0.91494149  0.55235289  1
  Se  Se139  1  0.58402667  0.25177318  0.05238922  1
  Se  Se140  1  0.58867984  0.25693659  0.55621780  1
  Se  Se141  1  0.57615035  0.57601101  0.05528957  1
  Se  Se142  1  0.58530632  0.58301833  0.55982273  1
  Se  Se143  1  0.57771922  0.91498181  0.04886545  1
  Se  Se144  1  0.58431067  0.91324156  0.55090464  1
  Se  Se145  1  0.92606780  0.25661663  0.06532906  1
  Se  Se146  1  0.92321800  0.25286434  0.54810165  1
  Se  Se147  1  0.92054464  0.58752887  0.04783763  1
  Se  Se148  1  0.92209748  0.59635995  0.56321686  1
  Se  Se149  1  0.92837650  0.92074053  0.05543408  1
  Se  Se150  1  0.92490581  0.91653253  0.56405459  1
  Se  Se151  1  0.08666401  0.25472771  0.45382521  1
  Se  Se152  1  0.08411254  0.24616149  0.94823469  1
  Se  Se153  1  0.09289071  0.58749731  0.44712453  1
  Se  Se154  1  0.08755165  0.58246559  0.94549329  1
  Se  Se155  1  0.08534692  0.91930604  0.44938356  1
  Se  Se156  1  0.09103182  0.91379255  0.94431172  1
  Se  Se157  1  0.41081648  0.25615075  0.43906680  1
  Se  Se158  1  0.41904272  0.25076783  0.94886569  1
  Se  Se159  1  0.40401031  0.59814898  0.44625634  1
  Se  Se160  1  0.41641668  0.58422217  0.94363964  1
  Se  Se161  1  0.41873339  0.91637573  0.44796373  1
  Se  Se162  1  0.41733797  0.91452371  0.94793423  1
  Se  Se163  1  0.75265240  0.23844937  0.44885426  1
  Se  Se164  1  0.74463541  0.25905671  0.93801994  1
  Se  Se165  1  0.74475241  0.58369703  0.44269149  1
  Se  Se166  1  0.76717125  0.57784830  0.94686797  1
  Se  Se167  1  0.74159231  0.92005662  0.43383556  1
  Se  Se168  1  0.74433433  0.92131887  0.93804678  1
  Se  Se169  1  0.25220736  0.08851068  0.45105856  1
  Se  Se170  1  0.24824064  0.08547071  0.94512309  1
  Se  Se171  1  0.25428784  0.42294932  0.44311188  1
  Se  Se172  1  0.25116272  0.41654831  0.94616520  1
  Se  Se173  1  0.24349716  0.76324858  0.44909258  1
  Se  Se174  1  0.25018989  0.74917732  0.94646034  1
  Se  Se175  1  0.58556879  0.07235431  0.43526823  1
  Se  Se176  1  0.57951980  0.08783677  0.94688439  1
  Se  Se177  1  0.59202278  0.40526865  0.44240006  1
  Se  Se178  1  0.58012397  0.41977019  0.95208635  1
  Se  Se179  1  0.58016944  0.74984771  0.44551529  1
  Se  Se180  1  0.57890687  0.75279898  0.94471962  1
  Se  Se181  1  0.91376942  0.08096549  0.45483971  1
  Se  Se182  1  0.92073223  0.07691431  0.93994099  1
  Se  Se183  1  0.92460435  0.41324613  0.43618938  1
  Se  Se184  1  0.91583546  0.41679574  0.95212138  1
  Se  Se185  1  0.92629488  0.73859584  0.44060237  1
  Se  Se186  1  0.92565783  0.75038060  0.93647278  1
  Se  Se187  1  0.24573306  0.25052026  0.31085494  1
  Se  Se188  1  0.24941159  0.25122330  0.80427859  1
  Se  Se189  1  0.25081763  0.60162938  0.29568340  1
  Se  Se190  1  0.25160359  0.58397887  0.80473208  1
  Se  Se191  1  0.26202235  0.93469121  0.30767286  1
  Se  Se192  1  0.24857136  0.90678872  0.81215352  1
  Se  Se193  1  0.58445377  0.24807042  0.29781524  1
  Se  Se194  1  0.57748534  0.24826457  0.81238882  1
  Se  Se195  1  0.58088275  0.58596079  0.30359166  1
  Se  Se196  1  0.58546167  0.58767113  0.80791619  1
  Se  Se197  1  0.57539142  0.91013291  0.30403660  1
  Se  Se198  1  0.58180646  0.92060059  0.80061281  1
  Se  Se199  1  0.91520747  0.24274511  0.31761487  1
  Se  Se200  1  0.90900976  0.24228802  0.80503311  1
  Se  Se201  1  0.90985721  0.57463560  0.30702441  1
  Se  Se202  1  0.92167517  0.58709718  0.80492190  1
  Se  Se203  1  0.90547614  0.90252028  0.30325742  1
  Se  Se204  1  0.92188986  0.92163290  0.79922582  1
  Se  Se205  1  0.08839783  0.09220396  0.31474656  1
  Se  Se206  1  0.08192371  0.08021819  0.80074291  1
  Se  Se207  1  0.09824345  0.42947770  0.30605696  1
  Se  Se208  1  0.08438826  0.42007279  0.81360583  1
  Se  Se209  1  0.09167497  0.76310024  0.30851998  1
  Se  Se210  1  0.08601484  0.74780849  0.80404471  1
  Se  Se211  1  0.41494274  0.08595534  0.29564966  1
  Se  Se212  1  0.42097379  0.08766602  0.81447339  1
  Se  Se213  1  0.42098690  0.43057597  0.31302116  1
  Se  Se214  1  0.41288313  0.41546710  0.80485411  1
  Se  Se215  1  0.41284313  0.75431001  0.30813130  1
  Se  Se216  1  0.41420791  0.74760215  0.80019867  1
  Se  Se217  1  0.75222696  0.08040610  0.30705980  1
  Se  Se218  1  0.74676597  0.08189860  0.79806173  1
  Se  Se219  1  0.74855982  0.41259771  0.30354025  1
  Se  Se220  1  0.74612208  0.42877233  0.81673227  1
  Se  Se221  1  0.74275202  0.73961394  0.29578352  1
  Se  Se222  1  0.75185211  0.75579111  0.80369160  1
  Se  Se223  1  0.24732224  0.08914571  0.20081706  1
  Se  Se224  1  0.24929862  0.08599052  0.69219432  1
  Se  Se225  1  0.24634460  0.42413534  0.19124544  1
  Se  Se226  1  0.24434443  0.41098906  0.69815770  1
  Se  Se227  1  0.25362359  0.73478759  0.20106401  1
  Se  Se228  1  0.25501819  0.74310474  0.69503064  1
  Se  Se229  1  0.57071594  0.08416348  0.17898671  1
  Se  Se230  1  0.58116752  0.08239963  0.69978470  1
  Se  Se231  1  0.58358681  0.41283845  0.19747057  1
  Se  Se232  1  0.57308964  0.42516697  0.69157984  1
  Se  Se233  1  0.57904164  0.74588154  0.19576676  1
  Se  Se234  1  0.58706173  0.74756041  0.69818279  1
  Se  Se235  1  0.91299052  0.09281963  0.19618539  1
  Se  Se236  1  0.92331237  0.08113416  0.69258255  1
  Se  Se237  1  0.91709175  0.42151163  0.18913885  1
  Se  Se238  1  0.90378198  0.42748864  0.69561336  1
  Se  Se239  1  0.91144649  0.74897689  0.18371769  1
  Se  Se240  1  0.91883912  0.74769771  0.70286462  1
  Se  Se241  1  0.09396526  0.24541486  0.19724024  1
  Se  Se242  1  0.09373983  0.24435741  0.68643346  1
  Se  Se243  1  0.08980934  0.57666841  0.18992647  1
  Se  Se244  1  0.08292179  0.58312164  0.70025175  1
  Se  Se245  1  0.09839952  0.91046347  0.19301544  1
  Se  Se246  1  0.08790092  0.91470198  0.70064966  1
  Se  Se247  1  0.42046478  0.24780531  0.18257787  1
  Se  Se248  1  0.41266619  0.25337383  0.70393754  1
  Se  Se249  1  0.41356178  0.58342420  0.19607589  1
  Se  Se250  1  0.41600949  0.58280639  0.70247693  1
  Se  Se251  1  0.40678751  0.91488565  0.19556259  1
  Se  Se252  1  0.41703022  0.90241488  0.68511106  1
  Se  Se253  1  0.74752440  0.25181290  0.20255699  1
  Se  Se254  1  0.75502343  0.24639496  0.68696616  1
  Se  Se255  1  0.74577682  0.58059458  0.19544928  1
  Se  Se256  1  0.74210581  0.58879225  0.70264084  1
  Se  Se257  1  0.75513764  0.90534221  0.18000338  1
  Se  Se258  1  0.74875319  0.91596490  0.69293781  1
