# generated using pymatgen
data_In86Cu29Se144
_symmetry_space_group_name_H-M   'P 1'
_cell_length_a   17.57430635
_cell_length_b   17.57773072
_cell_length_c   23.44157030
_cell_angle_alpha   89.99198769
_cell_angle_beta   90.00506695
_cell_angle_gamma   90.00725546
_symmetry_Int_Tables_number   1
_chemical_formula_structural   In86Cu29Se144
_chemical_formula_sum   'In86 Cu29 Se144'
_cell_volume   7241.48592925
_cell_formula_units_Z   1
loop_
 _symmetry_equiv_pos_site_id
 _symmetry_equiv_pos_as_xyz
  1  'x, y, z'
loop_
 _atom_site_type_symbol
 _atom_site_label
 _atom_site_symmetry_multiplicity
 _atom_site_fract_x
 _atom_site_fract_y
 _atom_site_fract_z
 _atom_site_occupancy
  In  In0  1  -0.00137086  0.17857548  0.12571285  1
  In  In1  1  0.00943702  0.15323030  0.62365914  1
  In  In2  1  -0.00697426  0.49121412  0.11943836  1
  In  In3  1  0.01092949  0.49169400  0.62610713  1
  In  In4  1  0.00732640  0.81768641  0.12304325  1
  In  In5  1  0.00730723  0.85050385  0.62880906  1
  In  In6  1  0.34266933  0.15971184  0.13304731  1
  In  In7  1  0.32740138  0.15141926  0.60158252  1
  In  In8  1  0.33533549  0.50354275  0.12654081  1
  In  In9  1  0.34524620  0.50291267  0.59510479  1
  In  In10  1  0.33772489  0.83669535  0.12315283  1
  In  In11  1  0.34849213  0.84227021  0.62798472  1
  In  In12  1  0.67171668  0.17228330  0.11357809  1
  In  In13  1  0.65944324  0.18419989  0.64361929  1
  In  In14  1  0.66514713  0.49899002  0.12496255  1
  In  In15  1  0.64117215  0.50963984  0.64532330  1
  In  In16  1  0.65053126  0.83712158  0.11939059  1
  In  In17  1  0.64139248  0.84130905  0.65470648  1
  In  In18  1  0.18068863  -0.00279551  0.38455056  1
  In  In19  1  0.16109360  -0.00439659  0.86818302  1
  In  In20  1  0.17494119  0.33746296  0.37311893  1
  In  In21  1  0.17760185  0.34134373  0.87886793  1
  In  In22  1  0.17474118  0.64881888  0.37866800  1
  In  In23  1  0.17874628  0.66262081  0.88277444  1
  In  In24  1  0.48925460  0.01950857  0.38823339  1
  In  In25  1  0.49983186  -0.00008479  0.87040481  1
  In  In26  1  0.49843036  0.33337320  0.37572722  1
  In  In27  1  0.50100217  0.33153139  0.88229319  1
  In  In28  1  0.48066383  0.64624281  0.35881283  1
  In  In29  1  0.51069750  0.65616033  0.88322330  1
  In  In30  1  0.83428259  0.01462124  0.37816764  1
  In  In31  1  0.83546622  0.01174610  0.86602232  1
  In  In32  1  0.83338773  0.32949080  0.36255104  1
  In  In33  1  0.82021906  0.34714662  0.88462858  1
  In  In34  1  0.82451187  0.67099213  0.37128519  1
  In  In35  1  0.81940219  0.66076104  0.87714087  1
  In  In36  1  -0.00454638  0.18069522  0.37568349  1
  In  In37  1  -0.00169746  0.15241577  0.87030572  1
  In  In38  1  0.01721983  0.49084979  0.37395699  1
  In  In39  1  0.00555103  0.49096298  0.88157844  1
  In  In40  1  0.01480088  0.83522704  0.37463021  1
  In  In41  1  0.00169303  0.84948934  0.87543141  1
  In  In42  1  0.33666188  0.16823408  0.37826428  1
  In  In43  1  0.34550704  0.16968673  0.87463522  1
  In  In44  1  0.33816171  0.50064260  0.37654860  1
  In  In45  1  0.33971280  0.49629956  0.88664630  1
  In  In46  1  0.33693194  0.83321962  0.36773914  1
  In  In47  1  0.32812870  0.84001663  0.87863193  1
  In  In48  1  0.65235588  0.17429782  0.37840712  1
  In  In49  1  0.66455764  0.16898875  0.87126351  1
  In  In50  1  0.65253262  0.48602238  0.36559712  1
  In  In51  1  0.65730249  0.50292265  0.87725728  1
  In  In52  1  0.66726407  0.82582499  0.37425400  1
  In  In53  1  0.65256880  0.82428656  0.86441034  1
  In  In54  1  0.18407051  0.00398101  0.12563931  1
  In  In55  1  0.16300156  0.00995091  0.62808137  1
  In  In56  1  0.16101332  0.34029189  0.13464452  1
  In  In57  1  0.18708973  0.33646316  0.60549879  1
  In  In58  1  0.17795384  0.67704796  0.11873027  1
  In  In59  1  0.17907659  0.65571123  0.62111019  1
  In  In60  1  0.49482813  -0.00433129  0.11608837  1
  In  In61  1  0.48671198  0.00853832  0.64544957  1
  In  In62  1  0.49931603  0.33501991  0.12643012  1
  In  In63  1  0.49913841  0.33050486  0.61498526  1
  In  In64  1  0.49964444  0.66859694  0.12674792  1
  In  In65  1  0.50127561  0.66421695  0.62281824  1
  In  In66  1  0.81658288  -0.00077711  0.11412262  1
  In  In67  1  0.83966997  0.01244081  0.64013550  1
  In  In68  1  0.82970655  0.33299271  0.12175314  1
  In  In69  1  0.81699088  0.32253151  0.62938417  1
  In  In70  1  0.83533953  0.65004406  0.12170774  1
  In  In71  1  0.81300938  0.65970870  0.62628544  1
  In  In72  1  0.16815937  0.83189284  0.49762089  1
  In  In73  1  0.64827867  0.00040339  0.25273953  1
  In  In74  1  0.83890849  0.16867018  0.50636507  1
  In  In75  1  -0.00752335  0.67859947  0.75789364  1
  In  In76  1  0.34468156  0.66581939  0.74316059  1
  In  In77  1  -0.00453163  0.32161499  0.74147997  1
  In  In78  1  0.82910988  0.83505906  0.51776825  1
  In  In79  1  -0.00069518  0.00328893  0.25449879  1
  In  In80  1  0.83305805  0.83479770  -0.01243413  1
  In  In81  1  0.00114310  0.65253111  0.24884668  1
  In  In82  1  0.16434985  0.16980014  0.00164528  1
  In  In83  1  0.34353462  0.33579776  0.74449141  1
  In  In84  1  0.83222218  0.49883577  0.50387270  1
  In  In85  1  0.49931637  0.82868053  0.50390596  1
  Cu  Cu86  1  0.83006607  0.49377908  0.24292284  1
  Cu  Cu87  1  0.82453513  0.83087981  0.25167586  1
  Cu  Cu88  1  0.17179287  0.49764545  0.74707108  1
  Cu  Cu89  1  0.17397626  0.16497033  0.74259562  1
  Cu  Cu90  1  0.49751377  0.83484174  0.24482166  1
  Cu  Cu91  1  0.33941010  0.67226872  0.00270623  1
  Cu  Cu92  1  0.00977689  0.66112594  -0.00031081  1
  Cu  Cu93  1  0.67270462  -0.00135095  0.50835172  1
  Cu  Cu94  1  0.82802412  0.17046344  0.24212038  1
  Cu  Cu95  1  0.49639432  0.16455038  0.75177777  1
  Cu  Cu96  1  0.50079718  0.49913786  0.24615242  1
  Cu  Cu97  1  0.17339366  0.17070900  0.25360236  1
  Cu  Cu98  1  0.49661851  0.17257283  0.25422906  1
  Cu  Cu99  1  0.33437202  -0.00017687  -0.00087186  1
  Cu  Cu100  1  0.17002534  0.84395729  0.75069401  1
  Cu  Cu101  1  0.33179904  0.33893207  0.00635481  1
  Cu  Cu102  1  0.83511215  0.83682051  0.75547635  1
  Cu  Cu103  1  0.17549594  0.49787774  0.25063833  1
  Cu  Cu104  1  0.65521092  0.65460027  0.50186133  1
  Cu  Cu105  1  -0.00797642  0.32975877  0.00158831  1
  Cu  Cu106  1  0.17435132  0.83286654  0.24604689  1
  Cu  Cu107  1  -0.00557370  0.67446900  0.49702399  1
  Cu  Cu108  1  0.66193379  0.33681004  0.00125969  1
  Cu  Cu109  1  0.00155923  -0.00484266  -0.00431154  1
  Cu  Cu110  1  0.66014028  0.33579514  0.50218187  1
  Cu  Cu111  1  0.82075991  0.49593137  0.75507492  1
  Cu  Cu112  1  0.66711843  0.66564827  0.00148924  1
  Cu  Cu113  1  0.66042295  0.00990225  -0.01004724  1
  Cu  Cu114  1  0.01034728  0.33714299  0.49921550  1
  Se  Se115  1  0.07552914  0.07492663  0.06218432  1
  Se  Se116  1  0.09943903  0.09452180  0.55061131  1
  Se  Se117  1  0.08122033  0.40707279  0.05520415  1
  Se  Se118  1  0.09138428  0.42488660  0.55017088  1
  Se  Se119  1  0.08962766  0.75197943  0.04733829  1
  Se  Se120  1  0.07558325  0.74583108  0.56276796  1
  Se  Se121  1  0.41349737  0.08719300  0.05220310  1
  Se  Se122  1  0.42590083  0.06021126  0.55488608  1
  Se  Se123  1  0.41859997  0.42076474  0.05699116  1
  Se  Se124  1  0.39302040  0.38143455  0.54718528  1
  Se  Se125  1  0.42305736  0.75503744  0.05538844  1
  Se  Se126  1  0.40114396  0.73739660  0.55677275  1
  Se  Se127  1  0.75011014  0.08701165  0.04240810  1
  Se  Se128  1  0.74636310  0.08435912  0.56769415  1
  Se  Se129  1  0.74828313  0.41842956  0.05412631  1
  Se  Se130  1  0.73803056  0.41608700  0.56452086  1
  Se  Se131  1  0.75092009  0.74937682  0.05839356  1
  Se  Se132  1  0.72527643  0.74443108  0.56186704  1
  Se  Se133  1  0.25316364  0.25388256  0.06552270  1
  Se  Se134  1  0.26699094  0.25489059  0.53776573  1
  Se  Se135  1  0.25484195  0.58564837  0.05393886  1
  Se  Se136  1  0.24186455  0.57947842  0.54229889  1
  Se  Se137  1  0.25095993  0.91691368  0.05287307  1
  Se  Se138  1  0.25285763  0.91864723  0.56261848  1
  Se  Se139  1  0.57759355  0.25211185  0.05308193  1
  Se  Se140  1  0.58949057  0.24094314  0.55555061  1
  Se  Se141  1  0.58356440  0.58608740  0.05748717  1
  Se  Se142  1  0.57560246  0.57011214  0.55637221  1
  Se  Se143  1  0.58366025  0.92266651  0.04549229  1
  Se  Se144  1  0.59126907  0.91608311  0.56417336  1
  Se  Se145  1  0.91028212  0.24408000  0.05290301  1
  Se  Se146  1  0.92807143  0.26457543  0.56381935  1
  Se  Se147  1  0.92034913  0.58082729  0.04880896  1
  Se  Se148  1  0.92238141  0.59325818  0.56368423  1
  Se  Se149  1  0.92280338  0.91593535  0.05896566  1
  Se  Se150  1  0.92315956  0.93557252  0.56026026  1
  Se  Se151  1  0.08732233  0.25399268  0.44176710  1
  Se  Se152  1  0.07511442  0.25645817  0.93687966  1
  Se  Se153  1  0.07465794  0.58721209  0.44583717  1
  Se  Se154  1  0.09141407  0.57677199  0.94511967  1
  Se  Se155  1  0.07169626  0.92933755  0.44865988  1
  Se  Se156  1  0.09198645  0.91612384  0.94730583  1
  Se  Se157  1  0.44299531  0.22862972  0.44133108  1
  Se  Se158  1  0.41044444  0.25438532  0.95028088  1
  Se  Se159  1  0.42376807  0.58131214  0.44575642  1
  Se  Se160  1  0.42054408  0.58309161  0.95230104  1
  Se  Se161  1  0.40608831  0.91906382  0.44626344  1
  Se  Se162  1  0.41895591  0.91921736  0.94421175  1
  Se  Se163  1  0.74903052  0.25985964  0.44386556  1
  Se  Se164  1  0.74215725  0.25159127  0.94580811  1
  Se  Se165  1  0.74198496  0.58418509  0.44011562  1
  Se  Se166  1  0.74735730  0.57811094  0.94971950  1
  Se  Se167  1  0.74781678  0.92243187  0.44254795  1
  Se  Se168  1  0.74040465  0.92351911  0.93197346  1
  Se  Se169  1  0.25233422  0.08895657  0.44901097  1
  Se  Se170  1  0.25209906  0.08161025  0.93908241  1
  Se  Se171  1  0.23439099  0.43771146  0.44054803  1
  Se  Se172  1  0.24674682  0.42215360  0.95409056  1
  Se  Se173  1  0.25979853  0.74314420  0.43993727  1
  Se  Se174  1  0.25246120  0.75333316  0.94983743  1
  Se  Se175  1  0.59251521  0.08203005  0.45212569  1
  Se  Se176  1  0.57383807  0.09124949  0.93947083  1
  Se  Se177  1  0.57984328  0.41909703  0.44714449  1
  Se  Se178  1  0.57758553  0.42105793  0.94972947  1
  Se  Se179  1  0.58173219  0.73732074  0.43853371  1
  Se  Se180  1  0.58706368  0.75203496  0.94787483  1
  Se  Se181  1  0.93149866  0.07893818  0.44714296  1
  Se  Se182  1  0.91770564  0.07902525  0.94504399  1
  Se  Se183  1  0.91883549  0.40806925  0.44009459  1
  Se  Se184  1  0.91422965  0.42087729  0.95045679  1
  Se  Se185  1  0.91464910  0.75555811  0.44104202  1
  Se  Se186  1  0.92876123  0.73920469  0.93553695  1
  Se  Se187  1  0.25794860  0.25212290  0.30618616  1
  Se  Se188  1  0.24579224  0.24827432  0.80622465  1
  Se  Se189  1  0.25676360  0.58428182  0.30210415  1
  Se  Se190  1  0.25298911  0.57571775  0.80721396  1
  Se  Se191  1  0.24804393  0.91867463  0.30509784  1
  Se  Se192  1  0.25787070  0.92397446  0.80256369  1
  Se  Se193  1  0.58526824  0.25517989  0.30230547  1
  Se  Se194  1  0.57374769  0.25204327  0.80609292  1
  Se  Se195  1  0.58759965  0.58440313  0.29776733  1
  Se  Se196  1  0.58603171  0.58876437  0.80370707  1
  Se  Se197  1  0.56585785  0.91093961  0.31823286  1
  Se  Se198  1  0.58390767  0.92055399  0.80042653  1
  Se  Se199  1  0.91815484  0.24696014  0.29561596  1
  Se  Se200  1  0.91328150  0.25586461  0.81926485  1
  Se  Se201  1  0.90759345  0.56779839  0.31240322  1
  Se  Se202  1  0.91237474  0.57129336  0.81029275  1
  Se  Se203  1  0.90537996  0.90843016  0.31281264  1
  Se  Se204  1  0.92082114  0.92219311  0.80213948  1
  Se  Se205  1  0.09088123  0.08962922  0.31406321  1
  Se  Se206  1  0.08876042  0.08702586  0.79858795  1
  Se  Se207  1  0.08748228  0.41266765  0.29809725  1
  Se  Se208  1  0.08937955  0.41579797  0.80237027  1
  Se  Se209  1  0.09358769  0.74872916  0.30466864  1
  Se  Se210  1  0.09703950  0.75867584  0.81224533  1
  Se  Se211  1  0.41727557  0.08273742  0.30506848  1
  Se  Se212  1  0.41014428  0.08101354  0.80175753  1
  Se  Se213  1  0.42038546  0.41953040  0.30555590  1
  Se  Se214  1  0.42446010  0.42615422  0.80998471  1
  Se  Se215  1  0.41371946  0.74971682  0.29697414  1
  Se  Se216  1  0.41750450  0.74559783  0.81893720  1
  Se  Se217  1  0.74939618  0.09180542  0.30577241  1
  Se  Se218  1  0.74052204  0.08158828  0.80196127  1
  Se  Se219  1  0.74660985  0.41220778  0.29927323  1
  Se  Se220  1  0.73773034  0.41404946  0.80796032  1
  Se  Se221  1  0.73957975  0.74419689  0.29908961  1
  Se  Se222  1  0.75387652  0.74908083  0.80450244  1
  Se  Se223  1  0.25344949  0.08250711  0.20188741  1
  Se  Se224  1  0.26154622  0.08643983  0.68963298  1
  Se  Se225  1  0.25782283  0.41474787  0.19660847  1
  Se  Se226  1  0.25271294  0.42608247  0.68367872  1
  Se  Se227  1  0.25728898  0.75054696  0.19359154  1
  Se  Se228  1  0.24362077  0.75776151  0.68968983  1
  Se  Se229  1  0.57405190  0.09404803  0.18689712  1
  Se  Se230  1  0.58796447  0.08191668  0.70414507  1
  Se  Se231  1  0.58559238  0.41514523  0.19544168  1
  Se  Se232  1  0.58499026  0.39153680  0.69273683  1
  Se  Se233  1  0.58543592  0.75376135  0.19539039  1
  Se  Se234  1  0.57720525  0.72841746  0.70371273  1
  Se  Se235  1  0.90406290  0.08050570  0.18685348  1
  Se  Se236  1  0.91937427  0.10496236  0.70141791  1
  Se  Se237  1  0.91703714  0.41152250  0.19308715  1
  Se  Se238  1  0.90491286  0.42610488  0.69061336  1
  Se  Se239  1  0.90973949  0.75182415  0.19429395  1
  Se  Se240  1  0.90761914  0.75877948  0.68585978  1
  Se  Se241  1  0.08389496  0.24576809  0.19938214  1
  Se  Se242  1  0.10339899  0.25289615  0.68192909  1
  Se  Se243  1  0.09455345  0.57475779  0.18497559  1
  Se  Se244  1  0.08646080  0.58507634  0.69767850  1
  Se  Se245  1  0.08657099  0.91146600  0.19064258  1
  Se  Se246  1  0.08340612  0.92879734  0.70199170  1
  Se  Se247  1  0.41496165  0.25491441  0.19801683  1
  Se  Se248  1  0.41611873  0.23455549  0.68397339  1
  Se  Se249  1  0.41732911  0.58610678  0.19633683  1
  Se  Se250  1  0.41827795  0.56203650  0.68437365  1
  Se  Se251  1  0.41739273  0.92307000  0.19349545  1
  Se  Se252  1  0.43868679  0.89356480  0.70411628  1
  Se  Se253  1  0.74272625  0.25162143  0.19074618  1
  Se  Se254  1  0.76449227  0.24000910  0.70898492  1
  Se  Se255  1  0.74924433  0.58387670  0.19540822  1
  Se  Se256  1  0.74151910  0.58608477  0.70431772  1
  Se  Se257  1  0.74816629  0.91460079  0.19308823  1
  Se  Se258  1  0.75442715  0.91707837  0.69638992  1
