# generated using pymatgen
data_In86Cu29Se144
_symmetry_space_group_name_H-M   'P 1'
_cell_length_a   17.56597396
_cell_length_b   17.56891038
_cell_length_c   23.42809085
_cell_angle_alpha   90.01579304
_cell_angle_beta   90.01439619
_cell_angle_gamma   89.99599968
_symmetry_Int_Tables_number   1
_chemical_formula_structural   In86Cu29Se144
_chemical_formula_sum   'In86 Cu29 Se144'
_cell_volume   7230.26025936
_cell_formula_units_Z   1
loop_
 _symmetry_equiv_pos_site_id
 _symmetry_equiv_pos_as_xyz
  1  'x, y, z'
loop_
 _atom_site_type_symbol
 _atom_site_label
 _atom_site_symmetry_multiplicity
 _atom_site_fract_x
 _atom_site_fract_y
 _atom_site_fract_z
 _atom_site_occupancy
  In  In0  1  0.00850064  0.17325048  0.12099582  1
  In  In1  1  0.01189647  0.17734404  0.62399058  1
  In  In2  1  -0.00864969  0.51306896  0.13383531  1
  In  In3  1  -0.00040853  0.50067367  0.62792733  1
  In  In4  1  -0.00459756  0.82865286  0.12169860  1
  In  In5  1  -0.01192736  0.82380275  0.62013972  1
  In  In6  1  0.32541284  0.17846755  0.11903193  1
  In  In7  1  0.30640168  0.18345967  0.65220245  1
  In  In8  1  0.33744272  0.49159369  0.11581870  1
  In  In9  1  0.32433878  0.51394195  0.63335456  1
  In  In10  1  0.32884285  0.82840230  0.11394258  1
  In  In11  1  0.32942098  0.83256021  0.62635685  1
  In  In12  1  0.67078260  0.15160529  0.12376152  1
  In  In13  1  0.67209829  0.15622402  0.62065801  1
  In  In14  1  0.66774270  0.49966264  0.11764215  1
  In  In15  1  0.68322375  0.50188127  0.62334461  1
  In  In16  1  0.66924373  0.83229339  0.11631593  1
  In  In17  1  0.65732594  0.83111215  0.61910655  1
  In  In18  1  0.16957515  -0.00449057  0.38615330  1
  In  In19  1  0.16834378  -0.00478985  0.87606791  1
  In  In20  1  0.15572986  0.34579878  0.38775012  1
  In  In21  1  0.16184600  0.32183289  0.86176295  1
  In  In22  1  0.14580278  0.68465645  0.38690967  1
  In  In23  1  0.17562416  0.67581570  0.86573247  1
  In  In24  1  0.48949337  -0.00452236  0.37730998  1
  In  In25  1  0.48379380  -0.00313834  0.87129208  1
  In  In26  1  0.49391148  0.32867228  0.37207459  1
  In  In27  1  0.50005496  0.33749370  0.87260710  1
  In  In28  1  0.51049508  0.67208514  0.37672120  1
  In  In29  1  0.50276822  0.66698046  0.87365274  1
  In  In30  1  0.84004151  -0.00769834  0.38961217  1
  In  In31  1  0.83369342  0.00113571  0.88013215  1
  In  In32  1  0.84945695  0.32679773  0.37880815  1
  In  In33  1  0.84517785  0.32771832  0.88010972  1
  In  In34  1  0.83754333  0.66252352  0.38190649  1
  In  In35  1  0.83452965  0.66384040  0.87382067  1
  In  In36  1  -0.00429686  0.17411102  0.38065437  1
  In  In37  1  -0.00240158  0.17152772  0.87447773  1
  In  In38  1  0.00022601  0.50191919  0.37747978  1
  In  In39  1  -0.00440345  0.49172317  0.87015998  1
  In  In40  1  0.00207906  0.82274679  0.37905445  1
  In  In41  1  0.00793084  0.82663184  0.87941397  1
  In  In42  1  0.33002867  0.15773665  0.38012854  1
  In  In43  1  0.31789293  0.14595843  0.85192616  1
  In  In44  1  0.32606759  0.48794171  0.37803633  1
  In  In45  1  0.33873035  0.51008581  0.86653134  1
  In  In46  1  0.33100970  0.83718445  0.38618023  1
  In  In47  1  0.33342512  0.83259708  0.87414091  1
  In  In48  1  0.67471360  0.17535727  0.37638272  1
  In  In49  1  0.67421964  0.17528903  0.87542171  1
  In  In50  1  0.67008397  0.51443025  0.37561236  1
  In  In51  1  0.65757170  0.50666762  0.88009075  1
  In  In52  1  0.67360080  0.82835388  0.38966255  1
  In  In53  1  0.67946817  0.82228577  0.88011279  1
  In  In54  1  0.15901164  -0.00142010  0.11546723  1
  In  In55  1  0.17719076  0.00773807  0.62401177  1
  In  In56  1  0.16737378  0.32360919  0.12233425  1
  In  In57  1  0.15730450  0.33431691  0.63106570  1
  In  In58  1  0.15231076  0.67058263  0.12609174  1
  In  In59  1  0.16297455  0.66620823  0.62596229  1
  In  In60  1  0.50983414  -0.00663196  0.12224796  1
  In  In61  1  0.49379446  -0.00888271  0.62668680  1
  In  In62  1  0.49005117  0.33680933  0.11932938  1
  In  In63  1  0.48572171  0.32361480  0.63066499  1
  In  In64  1  0.49577482  0.66422889  0.11452451  1
  In  In65  1  0.48988807  0.68036153  0.63430756  1
  In  In66  1  0.83113608  -0.00499789  0.11745954  1
  In  In67  1  0.82414020  -0.00073835  0.60846041  1
  In  In68  1  0.84489597  0.34555748  0.11860948  1
  In  In69  1  0.84593230  0.34225145  0.61931931  1
  In  In70  1  0.84757700  0.67580694  0.11871640  1
  In  In71  1  0.83342911  0.66576340  0.62879711  1
  In  In72  1  0.67066156  -0.00497986  0.24674699  1
  In  In73  1  0.32956502  0.33254224  0.24621917  1
  In  In74  1  0.66399441  0.33751578  0.75301566  1
  In  In75  1  0.66077288  -0.00429685  0.74081774  1
  In  In76  1  0.32766830  0.66152949  0.24355935  1
  In  In77  1  0.32901946  -0.00026539  0.25730599  1
  In  In78  1  0.49953393  0.16629416  -0.00240787  1
  In  In79  1  0.67096339  0.33404452  0.24625730  1
  In  In80  1  0.00389221  0.00232647  0.74541410  1
  In  In81  1  0.67011435  0.66494607  0.25404121  1
  In  In82  1  0.49932353  0.15718057  0.50697868  1
  In  In83  1  0.16666426  0.50374007  -0.00271386  1
  In  In84  1  0.50034752  0.50269769  0.49641453  1
  In  In85  1  0.00003944  -0.00488830  0.25435072  1
  Cu  Cu86  1  0.83886944  0.16656042  0.25241593  1
  Cu  Cu87  1  0.83705066  0.16849985  0.74614700  1
  Cu  Cu88  1  0.32886680  -0.00042403  -0.00782502  1
  Cu  Cu89  1  0.66809060  -0.00550897  -0.00160146  1
  Cu  Cu90  1  0.16324099  0.49977176  0.74913380  1
  Cu  Cu91  1  0.67463250  0.33415281  -0.00332592  1
  Cu  Cu92  1  0.50442472  0.50557732  0.75166781  1
  Cu  Cu93  1  0.49930872  0.83122839  0.24969851  1
  Cu  Cu94  1  0.32978613  0.66922601  0.50799699  1
  Cu  Cu95  1  0.00235979  0.33442180  0.50304603  1
  Cu  Cu96  1  0.67607486  0.33265966  0.49943035  1
  Cu  Cu97  1  -0.00218672  0.66156118  0.50409196  1
  Cu  Cu98  1  0.84055471  0.50144744  0.25157017  1
  Cu  Cu99  1  0.16671077  0.83087719  0.74969326  1
  Cu  Cu100  1  0.83660528  0.82571424  0.75122539  1
  Cu  Cu101  1  0.00480413  -0.00235167  0.50496133  1
  Cu  Cu102  1  0.33624790  0.67069509  -0.00979675  1
  Cu  Cu103  1  0.66791380  0.66412384  -0.00267620  1
  Cu  Cu104  1  0.00157675  0.33507127  -0.00213092  1
  Cu  Cu105  1  0.50078300  0.82769056  0.75080676  1
  Cu  Cu106  1  -0.00286656  0.66851677  -0.00120075  1
  Cu  Cu107  1  0.15877003  0.50213504  0.25744092  1
  Cu  Cu108  1  0.83635061  0.50229723  0.74985692  1
  Cu  Cu109  1  0.66799841  0.66895491  0.50436752  1
  Cu  Cu110  1  0.00097113  0.00632855  -0.00232000  1
  Cu  Cu111  1  0.33192249  0.00014041  0.50681396  1
  Cu  Cu112  1  0.32286563  0.33184243  0.51030253  1
  Cu  Cu113  1  0.16448187  0.17124536  0.25024907  1
  Cu  Cu114  1  0.33160137  0.33234966  -0.00820037  1
  Se  Se115  1  0.08646202  0.09104497  0.04893055  1
  Se  Se116  1  0.08563420  0.08347713  0.55726384  1
  Se  Se117  1  0.07812700  0.41697267  0.06113307  1
  Se  Se118  1  0.08349266  0.41899151  0.55756040  1
  Se  Se119  1  0.08295338  0.75174171  0.05028723  1
  Se  Se120  1  0.08174794  0.74819434  0.55456145  1
  Se  Se121  1  0.40794170  0.07504174  0.05958213  1
  Se  Se122  1  0.40023300  0.08660526  0.57081420  1
  Se  Se123  1  0.41798957  0.41542638  0.04269759  1
  Se  Se124  1  0.41076200  0.41597403  0.56059672  1
  Se  Se125  1  0.41904239  0.75283563  0.04736403  1
  Se  Se126  1  0.41740105  0.75365162  0.55543188  1
  Se  Se127  1  0.75140811  0.08138946  0.04879354  1
  Se  Se128  1  0.75208010  0.09358036  0.54328634  1
  Se  Se129  1  0.75452855  0.42005668  0.05087854  1
  Se  Se130  1  0.75673407  0.41968292  0.55061764  1
  Se  Se131  1  0.75219156  0.74655527  0.05167628  1
  Se  Se132  1  0.75234590  0.75071135  0.55830073  1
  Se  Se133  1  0.24544564  0.25163434  0.04470391  1
  Se  Se134  1  0.24356678  0.24677983  0.56409305  1
  Se  Se135  1  0.25751602  0.59556986  0.05814251  1
  Se  Se136  1  0.24577740  0.58211158  0.55502500  1
  Se  Se137  1  0.24758825  0.91785919  0.05012712  1
  Se  Se138  1  0.24642338  0.91317769  0.55521502  1
  Se  Se139  1  0.59352026  0.25492249  0.05925246  1
  Se  Se140  1  0.58822102  0.26081832  0.55949020  1
  Se  Se141  1  0.58243303  0.58067324  0.05021281  1
  Se  Se142  1  0.58396606  0.58915256  0.56334803  1
  Se  Se143  1  0.58130035  0.91157358  0.04876033  1
  Se  Se144  1  0.59528541  0.93772123  0.55887517  1
  Se  Se145  1  0.91904310  0.25085441  0.05344351  1
  Se  Se146  1  0.91918931  0.24731385  0.55413748  1
  Se  Se147  1  0.91822137  0.57962856  0.05142604  1
  Se  Se148  1  0.91316194  0.58056219  0.55866834  1
  Se  Se149  1  0.92152450  0.91840256  0.05184009  1
  Se  Se150  1  0.91496141  0.91285090  0.54989618  1
  Se  Se151  1  0.08570245  0.24675015  0.45106624  1
  Se  Se152  1  0.08438862  0.25408611  0.94212365  1
  Se  Se153  1  0.08375267  0.58009219  0.44968647  1
  Se  Se154  1  0.07881046  0.59197827  0.93558746  1
  Se  Se155  1  0.08144741  0.91150723  0.44782872  1
  Se  Se156  1  0.08274212  0.91867086  0.94601720  1
  Se  Se157  1  0.40763381  0.25645832  0.44870571  1
  Se  Se158  1  0.40840503  0.24611403  0.93316483  1
  Se  Se159  1  0.40608998  0.59386533  0.43925230  1
  Se  Se160  1  0.41907449  0.58175394  0.94298612  1
  Se  Se161  1  0.41785489  0.91776148  0.45372386  1
  Se  Se162  1  0.41629250  0.91392653  0.94661194  1
  Se  Se163  1  0.75918389  0.24935150  0.44660493  1
  Se  Se164  1  0.75746663  0.24655630  0.94819032  1
  Se  Se165  1  0.74974716  0.58320251  0.45149473  1
  Se  Se166  1  0.75254743  0.58084887  0.94477654  1
  Se  Se167  1  0.74337348  0.92350630  0.45335602  1
  Se  Se168  1  0.75590852  0.91304364  0.94718798  1
  Se  Se169  1  0.24862711  0.08475600  0.45299235  1
  Se  Se170  1  0.25046740  0.08775514  0.94011344  1
  Se  Se171  1  0.24692047  0.42060525  0.45562705  1
  Se  Se172  1  0.25151162  0.41527887  0.93299797  1
  Se  Se173  1  0.24778848  0.75156439  0.45083401  1
  Se  Se174  1  0.24589876  0.75316752  0.94415464  1
  Se  Se175  1  0.58724191  0.08034369  0.43698502  1
  Se  Se176  1  0.58971266  0.07479175  0.93625514  1
  Se  Se177  1  0.59180069  0.40715208  0.43782693  1
  Se  Se178  1  0.58366669  0.41139565  0.94540211  1
  Se  Se179  1  0.57908949  0.75116796  0.45350307  1
  Se  Se180  1  0.58404402  0.74893388  0.94517733  1
  Se  Se181  1  0.92355123  0.08315693  0.44966326  1
  Se  Se182  1  0.91649941  0.08833053  0.94422377  1
  Se  Se183  1  0.91867129  0.41818349  0.44826147  1
  Se  Se184  1  0.91722950  0.42111553  0.94840248  1
  Se  Se185  1  0.91551982  0.74862553  0.45119499  1
  Se  Se186  1  0.91348078  0.75118001  0.94404218  1
  Se  Se187  1  0.24389093  0.24843081  0.31415018  1
  Se  Se188  1  0.26752760  0.26365997  0.79871627  1
  Se  Se189  1  0.24309663  0.58061208  0.31436583  1
  Se  Se190  1  0.24992214  0.58541686  0.79814614  1
  Se  Se191  1  0.23902378  0.90444550  0.30985387  1
  Se  Se192  1  0.24841550  0.91407164  0.80471455  1
  Se  Se193  1  0.57791735  0.24194608  0.30451729  1
  Se  Se194  1  0.57574495  0.23793521  0.80576824  1
  Se  Se195  1  0.56961605  0.57244696  0.30358572  1
  Se  Se196  1  0.58948734  0.58776391  0.80303001  1
  Se  Se197  1  0.57983611  0.90769931  0.31125952  1
  Se  Se198  1  0.58253348  0.90814965  0.81127502  1
  Se  Se199  1  0.92417877  0.25084620  0.30153168  1
  Se  Se200  1  0.91705427  0.25133554  0.80154234  1
  Se  Se201  1  0.91808507  0.58651625  0.30802666  1
  Se  Se202  1  0.92048683  0.58464173  0.80393033  1
  Se  Se203  1  0.90710853  0.90753178  0.31139388  1
  Se  Se204  1  0.91340078  0.91352004  0.80820738  1
  Se  Se205  1  0.09223520  0.08690132  0.31264123  1
  Se  Se206  1  0.09067826  0.09071187  0.80690756  1
  Se  Se207  1  0.07961061  0.41300260  0.30774249  1
  Se  Se208  1  0.07991806  0.41391966  0.80018498  1
  Se  Se209  1  0.08035161  0.74942660  0.30270201  1
  Se  Se210  1  0.07905754  0.74968170  0.80100143  1
  Se  Se211  1  0.42595910  0.09544443  0.30616001  1
  Se  Se212  1  0.42134959  0.07670648  0.79378936  1
  Se  Se213  1  0.42279711  0.42490331  0.30385585  1
  Se  Se214  1  0.42114398  0.42019135  0.80224132  1
  Se  Se215  1  0.41644043  0.75368937  0.30926001  1
  Se  Se216  1  0.41524894  0.74728700  0.80575880  1
  Se  Se217  1  0.76015727  0.08431760  0.31003302  1
  Se  Se218  1  0.75486698  0.08643939  0.80280818  1
  Se  Se219  1  0.75697106  0.42308707  0.31097257  1
  Se  Se220  1  0.75775322  0.42189265  0.81335928  1
  Se  Se221  1  0.75698557  0.75720134  0.31184834  1
  Se  Se222  1  0.74973907  0.74439966  0.80247013  1
  Se  Se223  1  0.24304705  0.09002712  0.19047145  1
  Se  Se224  1  0.25214700  0.06822981  0.70668857  1
  Se  Se225  1  0.23842811  0.42906392  0.19016338  1
  Se  Se226  1  0.24860433  0.41834062  0.69558389  1
  Se  Se227  1  0.24165604  0.76107995  0.19134572  1
  Se  Se228  1  0.24984538  0.74651253  0.69534042  1
  Se  Se229  1  0.57275542  0.08938319  0.19576459  1
  Se  Se230  1  0.57234506  0.09550531  0.69052820  1
  Se  Se231  1  0.57613192  0.42171381  0.18903294  1
  Se  Se232  1  0.57721049  0.42471458  0.68612731  1
  Se  Se233  1  0.57816350  0.75168149  0.18921111  1
  Se  Se234  1  0.59031994  0.75037596  0.69770093  1
  Se  Se235  1  0.91374340  0.08444987  0.18893329  1
  Se  Se236  1  0.90784058  0.08392277  0.68351373  1
  Se  Se237  1  0.92085432  0.41397292  0.19881734  1
  Se  Se238  1  0.91817141  0.41502064  0.69850527  1
  Se  Se239  1  0.92395850  0.74509605  0.19571446  1
  Se  Se240  1  0.92159097  0.74372560  0.69888865  1
  Se  Se241  1  0.08239115  0.25446058  0.19680120  1
  Se  Se242  1  0.08356940  0.24751189  0.70276606  1
  Se  Se243  1  0.08210783  0.58843017  0.20121997  1
  Se  Se244  1  0.08043725  0.58560073  0.69708863  1
  Se  Se245  1  0.09037741  0.91175520  0.19080778  1
  Se  Se246  1  0.08744341  0.90726678  0.68546433  1
  Se  Se247  1  0.42445312  0.23936202  0.19128225  1
  Se  Se248  1  0.41449064  0.25138550  0.70760685  1
  Se  Se249  1  0.42304565  0.57222110  0.18843132  1
  Se  Se250  1  0.41643076  0.58770635  0.70042176  1
  Se  Se251  1  0.41805133  0.91105754  0.19088371  1
  Se  Se252  1  0.41577974  0.91052335  0.69834721  1
  Se  Se253  1  0.76014733  0.24185064  0.18708949  1
  Se  Se254  1  0.75337207  0.24978426  0.68852367  1
  Se  Se255  1  0.75788929  0.57770363  0.19001696  1
  Se  Se256  1  0.74876342  0.58431014  0.69994728  1
  Se  Se257  1  0.76101388  0.90186306  0.19160129  1
  Se  Se258  1  0.76150709  0.90907567  0.68925353  1
