# generated using pymatgen
data_H8PbC4(N3Cl2)2
_symmetry_space_group_name_H-M   'P 1'
_cell_length_a   16.62911353
_cell_length_b   22.51949204
_cell_length_c   21.59717528
_cell_angle_alpha   89.99927983
_cell_angle_beta   89.99525022
_cell_angle_gamma   89.98418506
_symmetry_Int_Tables_number   1
_chemical_formula_structural   H8PbC4(N3Cl2)2
_chemical_formula_sum   'H192 Pb24 C96 N144 Cl96'
_cell_volume   8087.69236577
_cell_formula_units_Z   24
loop_
 _symmetry_equiv_pos_site_id
 _symmetry_equiv_pos_as_xyz
  1  'x, y, z'
loop_
 _atom_site_type_symbol
 _atom_site_label
 _atom_site_symmetry_multiplicity
 _atom_site_fract_x
 _atom_site_fract_y
 _atom_site_fract_z
 _atom_site_occupancy
  H  H0  1  -0.00769102  0.02757590  0.67666406  1
  H  H1  1  0.00788058  0.36534517  0.68106137  1
  H  H2  1  0.00854953  0.69617755  0.67916696  1
  H  H3  1  0.49665935  0.02910674  0.67582166  1
  H  H4  1  0.51404534  0.36497252  0.67427763  1
  H  H5  1  0.49301654  0.69272665  0.67935977  1
  H  H6  1  0.00139343  0.30292280  0.18147990  1
  H  H7  1  -0.01394188  0.63368526  0.17741739  1
  H  H8  1  -0.01505200  0.96863027  0.17384823  1
  H  H9  1  0.49503686  0.30035109  0.18232890  1
  H  H10  1  0.49366822  0.63368677  0.18172528  1
  H  H11  1  0.51245890  0.97087149  0.17748393  1
  H  H12  1  -0.00807987  0.02689409  0.82490070  1
  H  H13  1  -0.02057022  0.36156742  0.81973594  1
  H  H14  1  -0.00846914  0.69314441  0.81965234  1
  H  H15  1  0.51200434  0.02421192  0.82543122  1
  H  H16  1  0.51377801  0.36679836  0.81921848  1
  H  H17  1  0.51198555  0.69830302  0.82128072  1
  H  H18  1  -0.00569939  0.30315391  0.32181783  1
  H  H19  1  0.00067754  0.63774980  0.32398980  1
  H  H20  1  -0.00177987  0.97390575  0.31903813  1
  H  H21  1  0.50008508  0.30499005  0.31925286  1
  H  H22  1  0.49902369  0.64046271  0.31954884  1
  H  H23  1  0.49450834  0.97182999  0.32227291  1
  H  H24  1  0.25112020  0.19302495  0.67505504  1
  H  H25  1  0.25617268  0.52837970  0.67661442  1
  H  H26  1  0.25611633  0.86583908  0.68387538  1
  H  H27  1  0.75186529  0.19122810  0.67973114  1
  H  H28  1  0.75553669  0.52562955  0.67775998  1
  H  H29  1  0.74342488  0.85768968  0.67551799  1
  H  H30  1  0.26260742  0.13776440  0.17664256  1
  H  H31  1  0.24167813  0.46972105  0.17876467  1
  H  H32  1  0.24128469  0.80348203  0.17750535  1
  H  H33  1  0.74382411  0.13732851  0.17798550  1
  H  H34  1  0.75087529  0.47224553  0.18132079  1
  H  H35  1  0.75475677  0.81517132  0.17500085  1
  H  H36  1  0.26281606  0.19343885  0.82155268  1
  H  H37  1  0.25349773  0.52765631  0.81721865  1
  H  H38  1  0.25880594  0.86318177  0.82036212  1
  H  H39  1  0.74939974  0.19785903  0.81844322  1
  H  H40  1  0.74619162  0.53033054  0.81859692  1
  H  H41  1  0.74650853  0.86418600  0.82292813  1
  H  H42  1  0.24340381  0.13950588  0.32329089  1
  H  H43  1  0.25219708  0.47081719  0.31954847  1
  H  H44  1  0.24141143  0.80094421  0.31607990  1
  H  H45  1  0.76211059  0.13390911  0.32643058  1
  H  H46  1  0.73942933  0.46846842  0.32290805  1
  H  H47  1  0.74761124  0.80840895  0.32759745  1
  H  H48  1  0.13162326  0.04967488  0.62324963  1
  H  H49  1  0.11562290  0.38831664  0.59868265  1
  H  H50  1  0.11364317  0.72441214  0.59535610  1
  H  H51  1  0.63235681  0.05183331  0.61778507  1
  H  H52  1  0.61642901  0.39301132  0.59127690  1
  H  H53  1  0.61959618  0.72032851  0.61206923  1
  H  H54  1  0.39134572  0.27573451  0.09767552  1
  H  H55  1  0.37978126  0.60806521  0.10226233  1
  H  H56  1  0.37694591  0.94905815  0.11807840  1
  H  H57  1  0.88324812  0.27956867  0.10703493  1
  H  H58  1  0.88096585  0.60669645  0.09355199  1
  H  H59  1  0.87945822  0.94109237  0.09035765  1
  H  H60  1  0.36893914  0.04840977  0.87179419  1
  H  H61  1  0.37247853  0.38175426  0.86875833  1
  H  H62  1  0.37133461  0.71826663  0.87465228  1
  H  H63  1  0.87227304  0.05301803  0.89946329  1
  H  H64  1  0.87688780  0.39000214  0.90543870  1
  H  H65  1  0.86975686  0.72024086  0.89322269  1
  H  H66  1  0.13167787  0.28174597  0.37923244  1
  H  H67  1  0.13451964  0.61342981  0.38396750  1
  H  H68  1  0.12701722  0.94767818  0.38584115  1
  H  H69  1  0.63369827  0.28269657  0.38292226  1
  H  H70  1  0.63249500  0.61612726  0.38241123  1
  H  H71  1  0.63086698  0.95032268  0.38057491  1
  H  H72  1  0.36532370  0.22353401  0.59833283  1
  H  H73  1  0.36406315  0.55686703  0.59484757  1
  H  H74  1  0.36764752  0.88954225  0.60380941  1
  H  H75  1  0.86513886  0.21909121  0.60078015  1
  H  H76  1  0.86245273  0.55512823  0.59723709  1
  H  H77  1  0.87037883  0.88889807  0.60936162  1
  H  H78  1  0.13468554  0.11375838  0.10952328  1
  H  H79  1  0.12942926  0.44527157  0.10036297  1
  H  H80  1  0.13272166  0.77711548  0.09596275  1
  H  H81  1  0.63500991  0.10587445  0.09591131  1
  H  H82  1  0.62825410  0.44469665  0.10968969  1
  H  H83  1  0.63078290  0.77889312  0.11045336  1
  H  H84  1  0.12220135  0.21470908  0.87425271  1
  H  H85  1  0.12169581  0.55190239  0.88232878  1
  H  H86  1  0.12337631  0.88274475  0.88028423  1
  H  H87  1  0.61937832  0.21916619  0.88156899  1
  H  H88  1  0.62305494  0.55598379  0.89011018  1
  H  H89  1  0.62309756  0.89167782  0.89197696  1
  H  H90  1  0.35830473  0.10859251  0.40062930  1
  H  H91  1  0.38302701  0.44792104  0.38371400  1
  H  H92  1  0.37897678  0.78220461  0.37510345  1
  H  H93  1  0.86486479  0.10693063  0.41094148  1
  H  H94  1  0.87557787  0.45174525  0.37803414  1
  H  H95  1  0.87948730  0.78135066  0.38820418  1
  H  H96  1  0.38542361  0.27884048  0.39713553  1
  H  H97  1  0.38488426  0.60954495  0.39819155  1
  H  H98  1  0.38450571  0.94231599  0.40442609  1
  H  H99  1  0.88618908  0.27483582  0.40533440  1
  H  H100  1  0.88750275  0.60893781  0.40100553  1
  H  H101  1  0.87899190  0.94729566  0.39502817  1
  H  H102  1  0.12008933  0.05288460  0.89193369  1
  H  H103  1  0.12153875  0.38029324  0.87240371  1
  H  H104  1  0.11814715  0.72113438  0.88468785  1
  H  H105  1  0.61022411  0.05718144  0.91330823  1
  H  H106  1  0.61685769  0.39097255  0.90515926  1
  H  H107  1  0.61635083  0.72895435  0.90501780  1
  H  H108  1  0.13142659  0.28243527  0.11873731  1
  H  H109  1  0.12528852  0.61745619  0.12683462  1
  H  H110  1  0.12389032  0.95155509  0.12329755  1
  H  H111  1  0.63676182  0.28409948  0.13097077  1
  H  H112  1  0.62694258  0.61573377  0.11776239  1
  H  H113  1  0.62462628  0.94020320  0.09941385  1
  H  H114  1  0.38451152  0.06003780  0.59723250  1
  H  H115  1  0.37295477  0.38006109  0.62438210  1
  H  H116  1  0.37066778  0.71903028  0.60747937  1
  H  H117  1  0.88631681  0.05878498  0.59394891  1
  H  H118  1  0.86805486  0.38452269  0.62614025  1
  H  H119  1  0.86825781  0.71635244  0.62530022  1
  H  H120  1  0.11054030  0.11568873  0.38626830  1
  H  H121  1  0.13448376  0.44499879  0.39619907  1
  H  H122  1  0.13221466  0.77487207  0.39777678  1
  H  H123  1  0.62214122  0.11836329  0.37543626  1
  H  H124  1  0.62974017  0.44351683  0.40387109  1
  H  H125  1  0.63180088  0.77781451  0.40189458  1
  H  H126  1  0.36598836  0.22444306  0.90671953  1
  H  H127  1  0.36979898  0.55476585  0.89571348  1
  H  H128  1  0.37190225  0.89006939  0.89696377  1
  H  H129  1  0.86795854  0.21976012  0.89257829  1
  H  H130  1  0.87214956  0.55399101  0.88835459  1
  H  H131  1  0.87229732  0.88737485  0.89328672  1
  H  H132  1  0.38272059  0.10768988  0.10300348  1
  H  H133  1  0.37737526  0.44946367  0.12034016  1
  H  H134  1  0.37942986  0.78270365  0.12096698  1
  H  H135  1  0.88066196  0.11719121  0.11935408  1
  H  H136  1  0.87820285  0.44857919  0.11404445  1
  H  H137  1  0.87873216  0.78467462  0.10747197  1
  H  H138  1  0.11808364  0.22027802  0.61673045  1
  H  H139  1  0.11777161  0.54885160  0.62196771  1
  H  H140  1  0.12009657  0.88449253  0.62688952  1
  H  H141  1  0.61747493  0.21857868  0.61976930  1
  H  H142  1  0.61625348  0.54524317  0.62535369  1
  H  H143  1  0.62212043  0.88883245  0.60270546  1
  H  H144  1  0.68497755  0.76194289  0.00469449  1
  H  H145  1  0.29934907  0.25201165  0.49569131  1
  H  H146  1  0.14429081  0.08571031  0.49334885  1
  H  H147  1  0.54212778  0.41540856  1.00921225  1
  H  H148  1  0.45247258  0.08492891  0.49455418  1
  H  H149  1  0.44676773  0.57872102  0.00124262  1
  H  H150  1  0.04704348  0.41769918  0.49288789  1
  H  H151  1  0.79484851  0.58456048  0.49238115  1
  H  H152  1  0.67404441  0.58736610  0.99723835  1
  H  H153  1  0.84370262  0.74999026  0.49549505  1
  H  H154  1  0.34883187  0.41631710  0.49498260  1
  H  H155  1  0.42285024  0.75115678  0.50066138  1
  H  H156  1  0.45823640  0.91455543  0.50408120  1
  H  H157  1  0.68090465  0.42169819  0.00390068  1
  H  H158  1  0.07236000  0.08186882  0.99750803  1
  H  H159  1  0.10498300  0.58413741  0.49318347  1
  H  H160  1  0.19105643  0.41607126  -0.00711259  1
  H  H161  1  0.64988373  0.24886164  0.99457691  1
  H  H162  1  0.95610313  0.41799610  1.00717892  1
  H  H163  1  0.03943123  0.75512418  0.49353465  1
  H  H164  1  0.92428085  0.72890890  1.00031669  1
  H  H165  1  0.20160903  0.75062290  -0.01031188  1
  H  H166  1  0.79875733  0.24990710  0.49620487  1
  H  H167  1  0.11119103  0.91853829  0.00791967  1
  H  H168  1  0.30372028  0.91595534  0.49641929  1
  H  H169  1  0.83471056  0.41974193  0.00281034  1
  H  H170  1  0.96108139  0.24816034  0.50494254  1
  H  H171  1  0.85701794  0.41943218  0.49306709  1
  H  H172  1  0.35445926  0.75508117  0.01185654  1
  H  H173  1  0.63476048  0.57612050  0.51187850  1
  H  H174  1  0.70880074  0.07843325  -0.00370258  1
  H  H175  1  0.44972627  0.25466410  0.50483142  1
  H  H176  1  0.81511450  0.24894935  1.00184397  1
  H  H177  1  0.81123999  0.78156326  0.00125634  1
  H  H178  1  0.46535495  0.25101807  -0.00776814  1
  H  H179  1  0.54122652  0.75696833  1.00713282  1
  H  H180  1  0.38223615  0.41226685  0.98438548  1
  H  H181  1  0.11090998  0.58475483  1.01202849  1
  H  H182  1  0.52518750  0.08409786  1.00876867  1
  H  H183  1  0.29288901  0.58401043  0.49431185  1
  H  H184  1  0.63279653  0.08628297  0.49163778  1
  H  H185  1  0.32764042  0.08173187  0.00014351  1
  H  H186  1  0.31269146  0.91984518  1.00451179  1
  H  H187  1  0.09767292  0.25316388  1.00526241  1
  H  H188  1  0.20200930  0.74951788  0.50307818  1
  H  H189  1  0.28624956  0.24898110  1.00543340  1
  H  H190  1  0.07637086  0.75032886  0.99638505  1
  H  H191  1  0.14338036  0.91218556  0.51317092  1
  Pb  Pb192  1  0.24542961  0.04734311  0.74717443  1
  Pb  Pb193  1  0.24133678  0.37915033  0.74139746  1
  Pb  Pb194  1  0.24313796  0.71402723  0.74393942  1
  Pb  Pb195  1  0.74528217  0.04666588  0.75613861  1
  Pb  Pb196  1  0.74373404  0.38135069  0.75931365  1
  Pb  Pb197  1  0.74280674  0.71387759  0.75980150  1
  Pb  Pb198  1  0.25713600  0.28638458  0.24737011  1
  Pb  Pb199  1  0.25876966  0.61958038  0.25572630  1
  Pb  Pb200  1  0.25161038  0.94960074  0.25557332  1
  Pb  Pb201  1  0.75809060  0.28364440  0.25441059  1
  Pb  Pb202  1  0.75551990  0.61858359  0.24717297  1
  Pb  Pb203  1  0.75602763  0.95378146  0.24398342  1
  Pb  Pb204  1  -0.00783020  0.21249887  0.74223327  1
  Pb  Pb205  1  -0.00712727  0.54732578  0.74368712  1
  Pb  Pb206  1  -0.00725341  0.88099447  0.75326993  1
  Pb  Pb207  1  0.49249493  0.21500568  0.74971689  1
  Pb  Pb208  1  0.49168973  0.54725377  0.75634085  1
  Pb  Pb209  1  0.49589341  0.88085727  0.74495268  1
  Pb  Pb210  1  0.00429408  0.12012872  0.24968800  1
  Pb  Pb211  1  0.00668717  0.45289010  0.24897361  1
  Pb  Pb212  1  0.00094863  0.78248545  0.24515007  1
  Pb  Pb213  1  0.49851037  0.11593780  0.25202665  1
  Pb  Pb214  1  0.50731290  0.45225366  0.25086416  1
  Pb  Pb215  1  0.50881794  0.78721727  0.25103349  1
  C  C216  1  0.00348022  0.04444629  0.63054419  1
  C  C217  1  -0.00250862  0.37950663  0.63369755  1
  C  C218  1  -0.00360640  0.71173763  0.63249363  1
  C  C219  1  0.50404997  0.04546334  0.62894882  1
  C  C220  1  0.50067609  0.37950969  0.62756620  1
  C  C221  1  0.49437675  0.71002251  0.63252991  1
  C  C222  1  0.00616401  0.28852510  0.13376599  1
  C  C223  1  -0.00153133  0.61910318  0.13058504  1
  C  C224  1  -0.00302514  0.95352754  0.12714282  1
  C  C225  1  0.50775196  0.28689450  0.13511969  1
  C  C226  1  0.49999563  0.61883183  0.13421717  1
  C  C227  1  0.50437571  0.95376185  0.13117315  1
  C  C228  1  -0.00498608  0.04333153  0.87196852  1
  C  C229  1  -0.00717875  0.37700884  0.86623872  1
  C  C230  1  -0.00771565  0.70930044  0.86711428  1
  C  C231  1  0.49715796  0.04211486  0.87066753  1
  C  C232  1  0.50037001  0.38024989  0.86644768  1
  C  C233  1  0.49944849  0.71397189  0.86781318  1
  C  C234  1  0.00401310  0.28769621  0.36880731  1
  C  C235  1  0.00824992  0.62115228  0.37067058  1
  C  C236  1  0.00147275  0.95698914  0.36601954  1
  C  C237  1  0.50670622  0.28978381  0.36662022  1
  C  C238  1  0.50542343  0.62313471  0.36613800  1
  C  C239  1  0.50290854  0.95566836  0.36913032  1
  C  C240  1  0.24506642  0.21068057  0.62870699  1
  C  C241  1  0.24614423  0.54412400  0.62972857  1
  C  C242  1  0.24751538  0.87986165  0.63622224  1
  C  C243  1  0.74464170  0.20856881  0.63319391  1
  C  C244  1  0.74413851  0.54189638  0.63126710  1
  C  C245  1  0.74512477  0.87732610  0.62970907  1
  C  C246  1  0.26055536  0.12060912  0.12975310  1
  C  C247  1  0.24918365  0.45478976  0.13138941  1
  C  C248  1  0.25186444  0.78814338  0.13044366  1
  C  C249  1  0.75297635  0.12093760  0.13128421  1
  C  C250  1  0.75201636  0.45605373  0.13388993  1
  C  C251  1  0.75469944  0.79465956  0.12954171  1
  C  C252  1  0.25058120  0.20957108  0.86790243  1
  C  C253  1  0.24842126  0.54382950  0.86438297  1
  C  C254  1  0.25179217  0.87854845  0.86758976  1
  C  C255  1  0.74529010  0.21276262  0.86620480  1
  C  C256  1  0.74712891  0.54677321  0.86581516  1
  C  C257  1  0.74756225  0.88115383  0.86970776  1
  C  C258  1  0.23705547  0.12211289  0.36983705  1
  C  C259  1  0.25660375  0.45436923  0.36657064  1
  C  C260  1  0.25123620  0.78637927  0.36340431  1
  C  C261  1  0.74862949  0.11964417  0.37323227  1
  C  C262  1  0.74909691  0.45424395  0.37028212  1
  C  C263  1  0.75348987  0.79044939  0.37386220  1
  C  C264  1  0.18530272  0.57195439  0.54340051  1
  C  C265  1  0.76403236  0.57185032  0.53487013  1
  C  C266  1  0.97247943  0.26174480  0.03897784  1
  C  C267  1  0.19013063  0.24480924  0.54180851  1
  C  C268  1  0.43399835  0.40310951  0.95218918  1
  C  C269  1  0.19647149  0.90500105  0.95619499  1
  C  C270  1  0.56111242  0.07439851  0.54135723  1
  C  C271  1  0.72645768  0.42623344  0.46629840  1
  C  C272  1  0.19038294  0.90338094  0.54706229  1
  C  C273  1  0.22511717  0.42718890  0.03429485  1
  C  C274  1  0.69614814  0.23852296  0.95779231  1
  C  C275  1  0.48182717  0.26402088  0.46196508  1
  C  C276  1  0.98086445  0.59004337  0.03394339  1
  C  C277  1  0.05976152  0.92731370  0.04050178  1
  C  C278  1  0.71097052  0.91249620  0.96109428  1
  C  C279  1  0.76751022  0.23879710  0.53899762  1
  C  C280  1  0.05389890  0.26281034  0.04153648  1
  C  C281  1  0.30228021  0.42654049  0.45686871  1
  C  C282  1  0.97931085  0.92382612  0.03084646  1
  C  C283  1  0.51440380  0.40534636  0.96482148  1
  C  C284  1  0.79598825  0.42810718  0.04241371  1
  C  C285  1  0.98030171  0.58851802  0.46549945  1
  C  C286  1  0.46065541  0.73980371  0.54004924  1
  C  C287  1  0.06124688  0.59337124  0.04386909  1
  C  C288  1  0.76400940  0.09039746  0.46984818  1
  C  C289  1  0.01119523  0.74196244  0.53700016  1
  C  C290  1  0.30577225  0.42899429  0.04301148  1
  C  C291  1  0.03724305  0.73676413  0.95866129  1
  C  C292  1  0.23011299  0.76047256  0.03389054  1
  C  C293  1  0.57359681  0.26403936  0.04958615  1
  C  C294  1  0.68388893  0.09433138  0.45947816  1
  C  C295  1  0.93598181  0.40417926  0.54699601  1
  C  C296  1  0.06101504  0.07286803  0.54460074  1
  C  C297  1  0.01620198  0.40640628  0.53573776  1
  C  C298  1  0.27188512  0.90515628  0.53897673  1
  C  C299  1  0.77817611  0.23875385  0.96159831  1
  C  C300  1  0.51467605  0.40912738  0.53199898  1
  C  C301  1  0.49388711  0.26141269  0.03634042  1
  C  C302  1  0.52734624  0.91963451  0.03813761  1
  C  C303  1  0.27724878  0.90790888  0.96408908  1
  C  C304  1  0.80724823  0.42867888  0.45902639  1
  C  C305  1  0.23208427  0.76048574  0.45967558  1
  C  C306  1  0.98152853  0.40619618  0.96233601  1
  C  C307  1  0.51366551  0.74407529  0.96336106  1
  C  C308  1  0.72205159  0.75549986  0.46692060  1
  C  C309  1  0.43587172  0.40482000  0.54298348  1
  C  C310  1  0.68313591  0.56772934  0.54470870  1
  C  C311  1  0.71224298  0.57579020  0.95825681  1
  N  N312  1  0.95750157  0.73470279  0.96090607  1
  N  N313  1  0.31071496  0.76295222  0.45218903  1
  N  N314  1  0.78832490  0.91060739  0.96292714  1
  N  N315  1  0.18928877  0.09406207  0.45790667  1
  N  N316  1  0.27711753  0.57333993  0.95915623  1
  N  N317  1  0.30852070  0.76166078  0.04393614  1
  N  N318  1  0.93314403  0.73846904  0.54660568  1
  N  N319  1  0.71414729  0.75021754  0.04503487  1
  N  N320  1  0.05854992  0.59219556  0.45904574  1
  N  N321  1  0.29166649  0.09003117  0.03837032  1
  N  N322  1  0.95734332  0.07456274  0.96444543  1
  N  N323  1  0.98687404  0.25781799  0.46247761  1
  N  N324  1  0.55418846  0.59666861  0.04391707  1
  N  N325  1  0.20111886  0.57216783  0.95472348  1
  N  N326  1  0.26360169  0.57488910  0.53531567  1
  N  N327  1  0.79162518  0.57496495  0.95831867  1
  N  N328  1  0.05922459  0.40387619  0.95092226  1
  N  N329  1  0.80068607  0.75820567  0.46164869  1
  N  N330  1  0.18608662  0.23729835  0.95192637  1
  N  N331  1  0.21319428  0.09245704  0.03896967  1
  N  N332  1  0.78691092  0.91405731  0.54073785  1
  N  N333  1  0.47925492  0.58926502  0.45956988  1
  N  N334  1  0.47622968  0.59431446  0.03975869  1
  N  N335  1  0.26279844  0.24147818  0.96143462  1
  N  N336  1  0.56194118  0.92705326  0.45551337  1
  N  N337  1  0.22314616  0.42505118  0.46140138  1
  N  N338  1  0.48453727  0.92461533  0.46206900  1
  N  N339  1  0.53990116  0.74047327  0.54104038  1
  N  N340  1  0.55489664  0.59128112  0.45411847  1
  N  N341  1  0.48255154  0.07734451  0.53546218  1
  N  N342  1  0.04576318  0.92502920  0.45609544  1
  N  N343  1  0.50414316  0.07664212  0.96368447  1
  N  N344  1  0.71081599  0.91391427  0.53876057  1
  N  N345  1  0.06418853  0.26090276  0.45540019  1
  N  N346  1  0.03514349  0.07425794  0.96069366  1
  N  N347  1  0.42773658  0.07287236  0.95149068  1
  N  N348  1  0.71649988  0.42559150  0.04234100  1
  N  N349  1  0.96970920  0.92526959  0.45935976  1
  N  N350  1  0.26869264  0.24406773  0.53607113  1
  N  N351  1  0.79672521  0.75790429  0.04068330  1
  N  N352  1  0.26698891  0.09173142  0.46413238  1
  N  N353  1  0.56060428  0.26457083  0.45687731  1
  N  N354  1  0.45002132  0.92279613  0.04255315  1
  N  N355  1  0.73521695  0.09024954  0.03803414  1
  N  N356  1  0.81244799  0.09422825  0.04436827  1
  N  N357  1  0.98453355  0.07668460  0.53402175  1
  N  N358  1  0.43571903  0.74079547  0.95343942  1
  N  N359  1  0.68889012  0.23962282  0.54561532  1
  N  N360  1  0.07524218  0.05388197  0.60372746  1
  N  N361  1  0.05356053  0.39091073  0.59128174  1
  N  N362  1  0.05140394  0.72565706  0.58937192  1
  N  N363  1  0.57481531  0.05606667  0.59973259  1
  N  N364  1  0.55476360  0.39372046  0.58336491  1
  N  N365  1  0.55909382  0.72181730  0.59885852  1
  N  N366  1  0.45366872  0.27594672  0.09111197  1
  N  N367  1  0.44181570  0.60538941  0.09492828  1
  N  N368  1  0.43581368  0.94414264  0.10209312  1
  N  N369  1  0.94397307  0.27732954  0.09449054  1
  N  N370  1  0.94291687  0.60566284  0.08608656  1
  N  N371  1  0.94133542  0.93969800  0.08297537  1
  N  N372  1  0.42431187  0.05363874  0.89266760  1
  N  N373  1  0.42720481  0.38765188  0.89095726  1
  N  N374  1  0.42832592  0.72203642  0.89375050  1
  N  N375  1  0.93271821  0.05602109  0.90854396  1
  N  N376  1  0.93903667  0.38987125  0.91065388  1
  N  N377  1  0.93002046  0.71477934  0.90480811  1
  N  N378  1  0.07431187  0.27814722  0.39646792  1
  N  N379  1  0.07637472  0.61307368  0.40070071  1
  N  N380  1  0.06707449  0.94409346  0.39814533  1
  N  N381  1  0.57446593  0.28090799  0.39761612  1
  N  N382  1  0.57297472  0.61216580  0.39648881  1
  N  N383  1  0.57284612  0.94562732  0.39724508  1
  N  N384  1  0.30368669  0.22128666  0.58896041  1
  N  N385  1  0.30177090  0.55578253  0.58801703  1
  N  N386  1  0.30605863  0.89047341  0.59490946  1
  N  N387  1  0.80340308  0.22033899  0.59252682  1
  N  N388  1  0.80065072  0.55582199  0.58932655  1
  N  N389  1  0.80975638  0.89180197  0.59719030  1
  N  N390  1  0.19484709  0.11011699  0.09640044  1
  N  N391  1  0.19073555  0.44346337  0.09096787  1
  N  N392  1  0.19440936  0.77639194  0.08775850  1
  N  N393  1  0.69715506  0.10735887  0.08997082  1
  N  N394  1  0.68936865  0.44553393  0.09783781  1
  N  N395  1  0.69098407  0.77930053  0.09673551  1
  N  N396  1  0.17894766  0.21945114  0.89314713  1
  N  N397  1  0.18171359  0.55439242  0.89607214  1
  N  N398  1  0.18130337  0.88763709  0.89780361  1
  N  N399  1  0.67756486  0.22249950  0.89811633  1
  N  N400  1  0.68338865  0.55890854  0.90168354  1
  N  N401  1  0.68309448  0.89458601  0.90512814  1
  N  N402  1  0.29626167  0.10860312  0.40899146  1
  N  N403  1  0.32394875  0.44385037  0.39869117  1
  N  N404  1  0.32072917  0.77872586  0.39205224  1
  N  N405  1  0.80300426  0.10583936  0.41818621  1
  N  N406  1  0.81975689  0.44613270  0.39802054  1
  N  N407  1  0.82083390  0.78062194  0.40446978  1
  N  N408  1  0.44697096  0.27873091  0.40674430  1
  N  N409  1  0.44699768  0.60937483  0.40531004  1
  N  N410  1  0.44673995  0.94331314  0.41054664  1
  N  N411  1  0.94859025  0.27615398  0.41116316  1
  N  N412  1  0.94868680  0.60645446  0.41096824  1
  N  N413  1  0.94070474  0.94548554  0.40386391  1
  N  N414  1  0.05993001  0.05366929  0.90549377  1
  N  N415  1  0.06436379  0.38594248  0.89127722  1
  N  N416  1  0.05867164  0.72250898  0.90032071  1
  N  N417  1  0.54756139  0.05534680  0.91594033  1
  N  N418  1  0.55467449  0.39108858  0.91099599  1
  N  N419  1  0.55425402  0.72764477  0.91119733  1
  N  N420  1  0.07364790  0.27956647  0.10172499  1
  N  N421  1  0.07060497  0.61146987  0.10503401  1
  N  N422  1  0.06901539  0.94557407  0.10157809  1
  N  N423  1  0.58158630  0.27915177  0.10938100  1
  N  N424  1  0.56811655  0.61267364  0.10260534  1
  N  N425  1  0.56313027  0.93833054  0.09105997  1
  N  N426  1  0.44634697  0.05692825  0.58871313  1
  N  N427  1  0.42720405  0.38703547  0.60228647  1
  N  N428  1  0.43106948  0.72173631  0.59609401  1
  N  N429  1  0.94873125  0.05827676  0.58872047  1
  N  N430  1  0.92478226  0.38824982  0.60618315  1
  N  N431  1  0.92553228  0.71962986  0.60622745  1
  N  N432  1  0.16988163  0.11311027  0.40108593  1
  N  N433  1  0.19646926  0.44234735  0.40477237  1
  N  N434  1  0.19415731  0.77455665  0.40555722  1
  N  N435  1  0.67593998  0.11252447  0.39803753  1
  N  N436  1  0.69140702  0.44160569  0.41291231  1
  N  N437  1  0.69254716  0.77516607  0.41272734  1
  N  N438  1  0.30366640  0.22177332  0.91165967  1
  N  N439  1  0.30788490  0.55550460  0.90335154  1
  N  N440  1  0.31077340  0.89106411  0.90724429  1
  N  N441  1  0.80739589  0.22291123  0.90437815  1
  N  N442  1  0.81145952  0.55692491  0.90049561  1
  N  N443  1  0.81139295  0.89134203  0.90449446  1
  N  N444  1  0.32185496  0.10864761  0.09275994  1
  N  N445  1  0.32010767  0.44530646  0.10181216  1
  N  N446  1  0.32172259  0.77938774  0.10305525  1
  N  N447  1  0.82305881  0.11249314  0.10280882  1
  N  N448  1  0.81844246  0.44539061  0.09972022  1
  N  N449  1  0.81860454  0.78517367  0.09462058  1
  N  N450  1  0.17534294  0.22469564  0.59926293  1
  N  N451  1  0.17408477  0.55398222  0.60244676  1
  N  N452  1  0.17694779  0.88787194  0.60755399  1
  N  N453  1  0.67630615  0.22080183  0.60413676  1
  N  N454  1  0.67209074  0.54952603  0.60461230  1
  N  N455  1  0.68327344  0.89083143  0.59368013  1
  Cl  Cl456  1  0.26187916  0.06030669  0.61641499  1
  Cl  Cl457  1  0.23930209  0.38274610  0.61151834  1
  Cl  Cl458  1  0.23862826  0.71988511  0.60827140  1
  Cl  Cl459  1  0.76024691  0.05777702  0.62417139  1
  Cl  Cl460  1  0.73993832  0.38957719  0.62826162  1
  Cl  Cl461  1  0.74212825  0.72297165  0.62751546  1
  Cl  Cl462  1  0.26851252  0.27007660  0.10532558  1
  Cl  Cl463  1  0.26056065  0.61689613  0.12492839  1
  Cl  Cl464  1  0.25337398  0.94963875  0.12429391  1
  Cl  Cl465  1  0.76374801  0.28098869  0.12131045  1
  Cl  Cl466  1  0.75556255  0.61046495  0.11456055  1
  Cl  Cl467  1  0.75116841  0.94217193  0.11049005  1
  Cl  Cl468  1  0.24159488  0.05597718  0.88176983  1
  Cl  Cl469  1  0.24574889  0.37899266  0.87267764  1
  Cl  Cl470  1  0.24123160  0.72480648  0.87920913  1
  Cl  Cl471  1  0.73228214  0.05723820  0.89991991  1
  Cl  Cl472  1  0.74511260  0.39493484  0.89967944  1
  Cl  Cl473  1  0.74282379  0.73577765  0.89996491  1
  Cl  Cl474  1  0.26299897  0.27346964  0.38566792  1
  Cl  Cl475  1  0.26363008  0.60670069  0.39653442  1
  Cl  Cl476  1  0.26087439  0.94386841  0.39156571  1
  Cl  Cl477  1  0.76582981  0.27564894  0.38976948  1
  Cl  Cl478  1  0.76274782  0.61684665  0.38263602  1
  Cl  Cl479  1  0.75760665  0.94845323  0.37571447  1
  Cl  Cl480  1  -0.01265233  0.22473186  0.60417597  1
  Cl  Cl481  1  -0.01237899  0.55688501  0.60903637  1
  Cl  Cl482  1  -0.00773527  0.88518751  0.62473503  1
  Cl  Cl483  1  0.48621426  0.22401384  0.61461914  1
  Cl  Cl484  1  0.48264613  0.55448486  0.62560670  1
  Cl  Cl485  1  0.49194365  0.89299408  0.60565441  1
  Cl  Cl486  1  0.01155613  0.11386204  0.11454850  1
  Cl  Cl487  1  0.00166478  0.44528229  0.11363491  1
  Cl  Cl488  1  0.00367639  0.77307267  0.10688241  1
  Cl  Cl489  1  0.51215221  0.10369046  0.10226426  1
  Cl  Cl490  1  0.50685127  0.44580790  0.11531655  1
  Cl  Cl491  1  0.50787363  0.77714481  0.11390135  1
  Cl  Cl492  1  -0.00654976  0.21619561  0.87339794  1
  Cl  Cl493  1  -0.00349861  0.55347927  0.87607299  1
  Cl  Cl494  1  -0.00375620  0.88420638  0.88789933  1
  Cl  Cl495  1  0.48649247  0.22239415  0.88506271  1
  Cl  Cl496  1  0.49273448  0.55777258  0.89433899  1
  Cl  Cl497  1  0.49899000  0.88882828  0.87647189  1
  Cl  Cl498  1  -0.01263099  0.11530147  0.38139151  1
  Cl  Cl499  1  0.01147199  0.44934535  0.38243963  1
  Cl  Cl500  1  0.00767837  0.77283722  0.38258844  1
  Cl  Cl501  1  0.47903031  0.10608283  0.38932656  1
  Cl  Cl502  1  0.50792808  0.44651158  0.38170059  1
  Cl  Cl503  1  0.50700305  0.78076289  0.38261496  1
  Cl  Cl504  1  0.35699007  0.14718683  0.75325122  1
  Cl  Cl505  1  0.35346686  0.47943816  0.74922649  1
  Cl  Cl506  1  0.35645632  0.81394014  0.74841488  1
  Cl  Cl507  1  0.85284457  0.14977883  0.75430710  1
  Cl  Cl508  1  0.85433108  0.48197021  0.74966245  1
  Cl  Cl509  1  0.85614839  0.81359933  0.75589938  1
  Cl  Cl510  1  0.14465921  0.18661225  0.24839532  1
  Cl  Cl511  1  0.14582746  0.52004436  0.25273009  1
  Cl  Cl512  1  0.14725684  0.85428968  0.24746865  1
  Cl  Cl513  1  0.63629410  0.18957406  0.25627172  1
  Cl  Cl514  1  0.64566695  0.51966942  0.25042010  1
  Cl  Cl515  1  0.64740993  0.85106129  0.25098298  1
  Cl  Cl516  1  0.13324191  0.14795459  0.74496184  1
  Cl  Cl517  1  0.13171094  0.48104875  0.74553270  1
  Cl  Cl518  1  0.13137120  0.81440867  0.75247989  1
  Cl  Cl519  1  0.63179162  0.14738124  0.74925801  1
  Cl  Cl520  1  0.63313861  0.48299468  0.75424848  1
  Cl  Cl521  1  0.63584378  0.81681802  0.74986046  1
  Cl  Cl522  1  0.36388571  0.18299062  0.25109143  1
  Cl  Cl523  1  0.36709040  0.51718615  0.24534270  1
  Cl  Cl524  1  0.36795862  0.85127051  0.24755892  1
  Cl  Cl525  1  0.85742603  0.17738525  0.24700761  1
  Cl  Cl526  1  0.86549446  0.51621885  0.25530518  1
  Cl  Cl527  1  0.86461820  0.84933834  0.24869334  1
  Cl  Cl528  1  0.10478259  0.31234245  0.75261777  1
  Cl  Cl529  1  0.10394758  0.64807853  0.75038143  1
  Cl  Cl530  1  0.11136303  0.97757272  0.74627243  1
  Cl  Cl531  1  0.60670109  0.31405883  0.75203457  1
  Cl  Cl532  1  0.60408841  0.64800364  0.74925140  1
  Cl  Cl533  1  0.60479653  0.98316331  0.74516049  1
  Cl  Cl534  1  0.39599675  0.02153752  0.24079032  1
  Cl  Cl535  1  0.39659017  0.35120937  0.24946117  1
  Cl  Cl536  1  0.39629008  0.68666635  0.25571497  1
  Cl  Cl537  1  0.89692622  0.01688983  0.24300972  1
  Cl  Cl538  1  0.89752158  0.35019522  0.25037667  1
  Cl  Cl539  1  0.90247464  0.68445950  0.25004053  1
  Cl  Cl540  1  0.38329327  0.31711009  0.74587262  1
  Cl  Cl541  1  0.38213270  0.64936782  0.75992784  1
  Cl  Cl542  1  0.38389374  0.98141493  0.75299057  1
  Cl  Cl543  1  0.88330926  0.31561783  0.74627736  1
  Cl  Cl544  1  0.88117009  0.64825211  0.74737450  1
  Cl  Cl545  1  0.88975539  0.98608627  0.75522265  1
  Cl  Cl546  1  0.11775546  0.01966351  0.25175804  1
  Cl  Cl547  1  0.11958653  0.35202021  0.25327666  1
  Cl  Cl548  1  0.12139145  0.68619006  0.24733356  1
  Cl  Cl549  1  0.61378819  0.01825032  0.25410768  1
  Cl  Cl550  1  0.62253090  0.35399532  0.24631249  1
  Cl  Cl551  1  0.61684433  0.68383926  0.24360053  1
