# generated using pymatgen
data_H8PbC4(N3Cl2)2
_symmetry_space_group_name_H-M   'P 1'
_cell_length_a   16.62206758
_cell_length_b   22.50548925
_cell_length_c   21.59073300
_cell_angle_alpha   89.99961382
_cell_angle_beta   90.00623149
_cell_angle_gamma   89.99576104
_symmetry_Int_Tables_number   1
_chemical_formula_structural   H8PbC4(N3Cl2)2
_chemical_formula_sum   'H192 Pb24 C96 N144 Cl96'
_cell_volume   8076.82894449
_cell_formula_units_Z   24
loop_
 _symmetry_equiv_pos_site_id
 _symmetry_equiv_pos_as_xyz
  1  'x, y, z'
loop_
 _atom_site_type_symbol
 _atom_site_label
 _atom_site_symmetry_multiplicity
 _atom_site_fract_x
 _atom_site_fract_y
 _atom_site_fract_z
 _atom_site_occupancy
  H  H0  1  -0.00023142  0.02920107  0.68222893  1
  H  H1  1  -0.00337502  0.36461964  0.67735388  1
  H  H2  1  -0.00024534  0.70421553  0.67960798  1
  H  H3  1  0.49781446  0.03202217  0.67481533  1
  H  H4  1  0.49622647  0.36251837  0.67880922  1
  H  H5  1  0.50300072  0.69921032  0.67902660  1
  H  H6  1  0.00181598  0.30319914  0.17889430  1
  H  H7  1  -0.00627918  0.63852631  0.17876765  1
  H  H8  1  -0.00307549  0.96907552  0.18151578  1
  H  H9  1  0.49450744  0.30236574  0.17890533  1
  H  H10  1  0.50212589  0.63652671  0.17901051  1
  H  H11  1  0.50528600  0.96668297  0.18071539  1
  H  H12  1  -0.00551611  0.03161958  0.82033399  1
  H  H13  1  0.00157064  0.36468553  0.81988391  1
  H  H14  1  -0.00741323  0.69799662  0.81966109  1
  H  H15  1  0.50548710  0.03163244  0.81807633  1
  H  H16  1  0.49159411  0.36562329  0.81900744  1
  H  H17  1  0.50803783  0.69858311  0.82039521  1
  H  H18  1  -0.00547538  0.30158661  0.32058108  1
  H  H19  1  -0.00538801  0.63504391  0.32267536  1
  H  H20  1  0.00504845  0.96786905  0.31867158  1
  H  H21  1  0.50222323  0.30444254  0.32218250  1
  H  H22  1  0.49974591  0.63571048  0.31719723  1
  H  H23  1  0.49733564  0.96991093  0.31971239  1
  H  H24  1  0.25296131  0.19974443  0.67923943  1
  H  H25  1  0.25612679  0.53086331  0.67814690  1
  H  H26  1  0.24215484  0.86558585  0.67673784  1
  H  H27  1  0.75514511  0.19840122  0.67788832  1
  H  H28  1  0.75545460  0.53019167  0.68117100  1
  H  H29  1  0.74774242  0.86360051  0.68152650  1
  H  H30  1  0.25134661  0.13426868  0.18427345  1
  H  H31  1  0.25828925  0.46770942  0.18147644  1
  H  H32  1  0.24442850  0.80148439  0.18196956  1
  H  H33  1  0.74548650  0.13514581  0.18181405  1
  H  H34  1  0.74747378  0.46909080  0.17674289  1
  H  H35  1  0.74958482  0.80224390  0.18071690  1
  H  H36  1  0.25368518  0.19695244  0.81818550  1
  H  H37  1  0.24199774  0.53157412  0.81965723  1
  H  H38  1  0.24912575  0.86483444  0.81841398  1
  H  H39  1  0.74904335  0.19869960  0.81869129  1
  H  H40  1  0.75906843  0.53027841  0.82173654  1
  H  H41  1  0.74286517  0.86329779  0.81766649  1
  H  H42  1  0.23876394  0.13515509  0.32123190  1
  H  H43  1  0.25714139  0.46847506  0.32004486  1
  H  H44  1  0.25950967  0.80328499  0.32086801  1
  H  H45  1  0.75922792  0.13388872  0.32223139  1
  H  H46  1  0.75171021  0.46892414  0.32018053  1
  H  H47  1  0.74185489  0.80228635  0.31959850  1
  H  H48  1  0.12385730  0.05382432  0.61090305  1
  H  H49  1  0.12858279  0.38713208  0.61417126  1
  H  H50  1  0.12478953  0.72092740  0.60767888  1
  H  H51  1  0.62524506  0.05250590  0.60898479  1
  H  H52  1  0.62801736  0.38533946  0.61646075  1
  H  H53  1  0.62433834  0.72231822  0.60596162  1
  H  H54  1  0.38332229  0.27559470  0.09872126  1
  H  H55  1  0.37648762  0.61311815  0.10932506  1
  H  H56  1  0.36930240  0.94744332  0.12007624  1
  H  H57  1  0.87802364  0.27914313  0.10771599  1
  H  H58  1  0.88276651  0.60832393  0.09820968  1
  H  H59  1  0.87338059  0.94710747  0.11109465  1
  H  H60  1  0.37108637  0.05192870  0.87809056  1
  H  H61  1  0.38284116  0.39132375  0.90084952  1
  H  H62  1  0.37648823  0.71710880  0.88172294  1
  H  H63  1  0.87249546  0.05510278  0.89269979  1
  H  H64  1  0.87955083  0.38818390  0.89079283  1
  H  H65  1  0.87555993  0.72256896  0.89610428  1
  H  H66  1  0.13377520  0.28201984  0.37609487  1
  H  H67  1  0.13181236  0.61752153  0.38152830  1
  H  H68  1  0.12357680  0.94444365  0.39567163  1
  H  H69  1  0.63201753  0.27812596  0.38837939  1
  H  H70  1  0.63047677  0.61470491  0.38047241  1
  H  H71  1  0.62390604  0.94947806  0.38851985  1
  H  H72  1  0.36471208  0.22219866  0.60030159  1
  H  H73  1  0.36305844  0.55789206  0.59485113  1
  H  H74  1  0.37662793  0.88327766  0.61781412  1
  H  H75  1  0.86048887  0.22734556  0.59434852  1
  H  H76  1  0.86589209  0.55723259  0.59880894  1
  H  H77  1  0.87580806  0.88491263  0.61417921  1
  H  H78  1  0.12818742  0.11273797  0.11071758  1
  H  H79  1  0.11824817  0.45069817  0.12723423  1
  H  H80  1  0.12686752  0.77942953  0.10768357  1
  H  H81  1  0.63199617  0.11125849  0.10202443  1
  H  H82  1  0.62206138  0.44468093  0.10691228  1
  H  H83  1  0.62565541  0.77856505  0.10791319  1
  H  H84  1  0.11971704  0.21717281  0.87763701  1
  H  H85  1  0.12096621  0.55637109  0.89288216  1
  H  H86  1  0.13088450  0.88824314  0.89577941  1
  H  H87  1  0.62100888  0.22169310  0.88853676  1
  H  H88  1  0.62053524  0.55262082  0.87490942  1
  H  H89  1  0.63102396  0.88709570  0.89815253  1
  H  H90  1  0.37756189  0.11615449  0.37827164  1
  H  H91  1  0.37015689  0.44254408  0.40042511  1
  H  H92  1  0.37365176  0.77903094  0.40170494  1
  H  H93  1  0.86947732  0.10732891  0.40412365  1
  H  H94  1  0.86997177  0.44381070  0.39687821  1
  H  H95  1  0.87451252  0.78044790  0.38497659  1
  H  H96  1  0.38376947  0.27801461  0.39752943  1
  H  H97  1  0.38155070  0.61351142  0.39209622  1
  H  H98  1  0.37443457  0.94838140  0.38998228  1
  H  H99  1  0.88727496  0.27568251  0.40392970  1
  H  H100  1  0.88547340  0.60549984  0.40367988  1
  H  H101  1  0.87462988  0.94746770  0.38442127  1
  H  H102  1  0.12155672  0.05238037  0.88575974  1
  H  H103  1  0.12892783  0.38688502  0.88671792  1
  H  H104  1  0.12454913  0.71822100  0.88473602  1
  H  H105  1  0.61974942  0.05731513  0.89709908  1
  H  H106  1  0.62964106  0.38572325  0.87689886  1
  H  H107  1  0.62485905  0.72161696  0.89696422  1
  H  H108  1  0.12730567  0.27889320  0.11004492  1
  H  H109  1  0.13032890  0.61621992  0.12233230  1
  H  H110  1  0.12288255  0.94714154  0.11371510  1
  H  H111  1  0.63018709  0.28417281  0.11913779  1
  H  H112  1  0.62607325  0.61242989  0.10895745  1
  H  H113  1  0.61793224  0.94241847  0.10173003  1
  H  H114  1  0.37677615  0.05323653  0.60296121  1
  H  H115  1  0.37993879  0.38918137  0.60160912  1
  H  H116  1  0.37538374  0.71993989  0.60979807  1
  H  H117  1  0.87396309  0.05337758  0.61362421  1
  H  H118  1  0.87994894  0.39016492  0.60169233  1
  H  H119  1  0.87567108  0.72146191  0.60687665  1
  H  H120  1  0.13183599  0.10785431  0.40637044  1
  H  H121  1  0.12279359  0.44722818  0.38392254  1
  H  H122  1  0.12620909  0.78195159  0.38525587  1
  H  H123  1  0.62240865  0.11462724  0.38000990  1
  H  H124  1  0.62128662  0.44672913  0.38507786  1
  H  H125  1  0.62685177  0.77860610  0.39951279  1
  H  H126  1  0.36781118  0.22120242  0.89572954  1
  H  H127  1  0.36968175  0.55415498  0.88823776  1
  H  H128  1  0.37911339  0.88549907  0.88708879  1
  H  H129  1  0.86928075  0.22196755  0.89429634  1
  H  H130  1  0.86604063  0.56026640  0.90463359  1
  H  H131  1  0.87860211  0.88488128  0.87859867  1
  H  H132  1  0.37645717  0.11237822  0.11098599  1
  H  H133  1  0.36481252  0.44406269  0.09865027  1
  H  H134  1  0.37590071  0.78218458  0.11796318  1
  H  H135  1  0.87999340  0.11465999  0.11930550  1
  H  H136  1  0.87106068  0.44354700  0.10799249  1
  H  H137  1  0.87470002  0.77773668  0.10915340  1
  H  H138  1  0.11687544  0.21970461  0.62149343  1
  H  H139  1  0.11738177  0.55011014  0.62385841  1
  H  H140  1  0.12918019  0.88841134  0.59916797  1
  H  H141  1  0.61463506  0.21519092  0.62395772  1
  H  H142  1  0.61999729  0.55250734  0.62177171  1
  H  H143  1  0.62602244  0.88607039  0.61094217  1
  H  H144  1  0.18000352  0.75194140  -0.00214630  1
  H  H145  1  0.43584489  0.58706583  0.50213378  1
  H  H146  1  0.59727892  0.58756263  0.49316852  1
  H  H147  1  0.95776407  0.24966236  0.50876023  1
  H  H148  1  0.40533549  0.74930375  0.99506320  1
  H  H149  1  0.91812445  0.91777861  0.00109832  1
  H  H150  1  0.11545399  0.25438053  0.48712623  1
  H  H151  1  0.09119836  0.41652187  0.50718252  1
  H  H152  1  0.78641793  0.25345720  0.49440298  1
  H  H153  1  0.58285366  0.58648095  -0.00169576  1
  H  H154  1  0.55486946  0.91238053  -0.00496672  1
  H  H155  1  0.59303332  0.24981841  0.49429568  1
  H  H156  1  0.66902016  0.41499249  0.00243290  1
  H  H157  1  0.69827879  0.91290953  1.00446345  1
  H  H158  1  0.65856721  0.41877938  0.49619523  1
  H  H159  1  0.08140365  0.91844414  0.00257042  1
  H  H160  1  0.60058540  0.24743813  0.01463183  1
  H  H161  1  0.42227693  0.58671681  0.00386040  1
  H  H162  1  0.07236183  0.07095130  0.50336875  1
  H  H163  1  0.55595664  0.08064244  1.00041497  1
  H  H164  1  0.92665179  0.75467563  0.50408211  1
  H  H165  1  0.39954297  0.91675887  0.01325666  1
  H  H166  1  0.79170301  0.58543297  1.00492183  1
  H  H167  1  0.30762756  0.24639753  1.00481634  1
  H  H168  1  0.95144839  0.58790574  -0.00423880  1
  H  H169  1  0.79841314  0.08089347  0.50566740  1
  H  H170  1  0.40070810  0.08175695  0.99054728  1
  H  H171  1  0.92515861  0.41509173  1.00094986  1
  H  H172  1  0.41717498  0.91744332  0.50026885  1
  H  H173  1  0.14590155  0.24543210  0.99110720  1
  H  H174  1  0.20907441  0.08130547  0.50521056  1
  H  H175  1  0.69752906  0.08491038  -0.00440657  1
  H  H176  1  0.67265004  0.91580761  0.50034599  1
  H  H177  1  0.91232175  0.91696194  0.49445502  1
  H  H178  1  0.45335166  0.26119366  -0.00388149  1
  H  H179  1  0.08193699  0.08235760  0.99890202  1
  H  H180  1  0.91988548  0.07891395  0.50155743  1
  H  H181  1  0.29454924  0.41860727  -0.00797955  1
  H  H182  1  0.45325723  0.41849873  1.00570177  1
  H  H183  1  0.09375038  0.41681590  0.99725611  1
  H  H184  1  0.95850176  0.59069805  0.50659477  1
  H  H185  1  0.79406812  0.57969327  0.49742737  1
  H  H186  1  0.92937473  0.24825334  0.00320971  1
  H  H187  1  0.10713790  0.58370477  0.48922369  1
  H  H188  1  0.10700030  0.58451746  0.00993111  1
  H  H189  1  0.07564646  0.75443623  0.50466958  1
  H  H190  1  0.29028541  0.58277218  0.49418557  1
  H  H191  1  0.30166453  0.25163296  0.49239586  1
  Pb  Pb192  1  0.24875166  0.04599005  0.74275759  1
  Pb  Pb193  1  0.24913975  0.37935752  0.75146889  1
  Pb  Pb194  1  0.25016584  0.71232498  0.74850663  1
  Pb  Pb195  1  0.74802386  0.04504540  0.74870298  1
  Pb  Pb196  1  0.74673640  0.38180206  0.74992009  1
  Pb  Pb197  1  0.74869140  0.71223529  0.75041641  1
  Pb  Pb198  1  0.25794441  0.28546239  0.24588297  1
  Pb  Pb199  1  0.25241926  0.62082577  0.25466046  1
  Pb  Pb200  1  0.25041925  0.95396795  0.25275323  1
  Pb  Pb201  1  0.75219276  0.28773448  0.25646635  1
  Pb  Pb202  1  0.75585908  0.61807592  0.25004710  1
  Pb  Pb203  1  0.75366883  0.95266148  0.24729704  1
  Pb  Pb204  1  -0.00614409  0.21456300  0.74930703  1
  Pb  Pb205  1  -0.00276769  0.54941588  0.75422465  1
  Pb  Pb206  1  0.00125088  0.87876520  0.75030221  1
  Pb  Pb207  1  0.49724863  0.21284221  0.75481183  1
  Pb  Pb208  1  0.49248899  0.54706934  0.74781130  1
  Pb  Pb209  1  0.49953340  0.87857411  0.75456366  1
  Pb  Pb210  1  0.00187712  0.12116609  0.25833849  1
  Pb  Pb211  1  0.00277081  0.45123189  0.25444432  1
  Pb  Pb212  1  0.00140253  0.78700149  0.25422484  1
  Pb  Pb213  1  0.50616212  0.11821620  0.23879822  1
  Pb  Pb214  1  0.50079077  0.45430086  0.24733375  1
  Pb  Pb215  1  0.50194562  0.78674934  0.25330821  1
  C  C216  1  -0.00030318  0.04468502  0.63449369  1
  C  C217  1  0.00217818  0.38044604  0.63015348  1
  C  C218  1  0.00009395  0.71684171  0.63103202  1
  C  C219  1  0.49997246  0.04615543  0.62693287  1
  C  C220  1  0.50120985  0.37876518  0.63187323  1
  C  C221  1  0.50065390  0.71402586  0.63148165  1
  C  C222  1  0.00188959  0.28695927  0.13163805  1
  C  C223  1  0.00201384  0.62236571  0.13165308  1
  C  C224  1  -0.00229519  0.95410132  0.13368797  1
  C  C225  1  0.50294462  0.28753804  0.13135033  1
  C  C226  1  0.50122641  0.62084387  0.13136072  1
  C  C227  1  0.49678685  0.95225998  0.13306146  1
  C  C228  1  -0.00328669  0.04660789  0.86796261  1
  C  C229  1  0.00347411  0.38009267  0.86754504  1
  C  C230  1  -0.00215393  0.71312598  0.86700854  1
  C  C231  1  0.49900965  0.04645991  0.86578483  1
  C  C232  1  0.50175329  0.38030044  0.86627569  1
  C  C233  1  0.50237649  0.71308593  0.86801329  1
  C  C234  1  0.00599668  0.28685270  0.36778049  1
  C  C235  1  0.00426157  0.61979284  0.36990440  1
  C  C236  1  0.00105736  0.95284697  0.36629121  1
  C  C237  1  0.50667052  0.28775488  0.36919227  1
  C  C238  1  0.50422908  0.62133704  0.36511489  1
  C  C239  1  0.49816031  0.95538508  0.36755852  1
  C  C240  1  0.24504582  0.21394429  0.63164419  1
  C  C241  1  0.24567830  0.54514500  0.63081695  1
  C  C242  1  0.24953923  0.87951423  0.62897030  1
  C  C243  1  0.74362042  0.21329920  0.63087499  1
  C  C244  1  0.74729982  0.54543046  0.63390635  1
  C  C245  1  0.74941390  0.87860110  0.63392512  1
  C  C246  1  0.25236738  0.12011111  0.13616637  1
  C  C247  1  0.24732793  0.45435551  0.13399028  1
  C  C248  1  0.24873706  0.78777025  0.13406811  1
  C  C249  1  0.75271479  0.12050595  0.13427777  1
  C  C250  1  0.74640982  0.45291942  0.12951494  1
  C  C251  1  0.75006436  0.78657880  0.13317740  1
  C  C252  1  0.24670905  0.21190945  0.86572960  1
  C  C253  1  0.24448905  0.54647034  0.86718742  1
  C  C254  1  0.25326759  0.87908687  0.86639627  1
  C  C255  1  0.74619653  0.21345487  0.86652243  1
  C  C256  1  0.74872518  0.54603823  0.86857360  1
  C  C257  1  0.75109838  0.87848194  0.86491537  1
  C  C258  1  0.24890789  0.12019031  0.36838214  1
  C  C259  1  0.24999923  0.45339490  0.36751974  1
  C  C260  1  0.25298868  0.78878888  0.36854484  1
  C  C261  1  0.75078898  0.11960128  0.36971112  1
  C  C262  1  0.74775186  0.45300312  0.36749143  1
  C  C263  1  0.74793515  0.78754359  0.36725275  1
  C  C264  1  0.71300817  0.90529946  0.53906377  1
  C  C265  1  0.54466470  0.07160789  0.53546616  1
  C  C266  1  0.52317428  0.92472741  0.03728145  1
  C  C267  1  0.54133358  0.92944163  0.46034005  1
  C  C268  1  0.96605066  0.40597718  0.96230547  1
  C  C269  1  0.70285669  0.42773867  0.45878019  1
  C  C270  1  0.95810140  0.92848932  0.03941882  1
  C  C271  1  0.45975906  0.92842235  0.46216879  1
  C  C272  1  0.96969298  0.41113924  0.53545403  1
  C  C273  1  0.27429239  0.23696664  0.96256881  1
  C  C274  1  0.96926863  0.74283873  0.96071087  1
  C  C275  1  0.48318251  0.40730393  0.96234543  1
  C  C276  1  0.53438931  0.74163780  0.53819023  1
  C  C277  1  0.26439762  0.42923943  0.03535872  1
  C  C278  1  0.29900377  0.76325912  0.04307939  1
  C  C279  1  0.44502061  0.07261384  0.95467773  1
  C  C280  1  0.79464160  0.90479501  0.54188574  1
  C  C281  1  0.19247815  0.23602095  0.95609064  1
  C  C282  1  0.18751508  0.23929564  0.54320681  1
  C  C283  1  0.72921790  0.09475743  0.03849783  1
  C  C284  1  0.18428935  0.43196662  0.04706327  1
  C  C285  1  0.54178987  0.59518314  0.03770290  1
  C  C286  1  0.04042463  0.07273254  0.96132173  1
  C  C287  1  0.18348685  0.57027507  0.54389575  1
  C  C288  1  0.55354206  0.59725579  0.45693523  1
  C  C289  1  0.26847268  0.24067288  0.53437031  1
  C  C290  1  0.21025437  0.57339730  0.96129591  1
  C  C291  1  0.04825098  0.40587830  0.96067627  1
  C  C292  1  0.95753195  0.07136360  0.54206776  1
  C  C293  1  0.53344136  0.74059204  0.96312637  1
  C  C294  1  0.04603429  0.25770887  0.03911232  1
  C  C295  1  0.45191526  0.73931996  0.95942315  1
  C  C296  1  0.30370255  0.90440531  0.54030796  1
  C  C297  1  0.72901101  0.90403306  0.96085345  1
  C  C298  1  0.04025503  0.92865962  0.04019429  1
  C  C299  1  0.69140718  0.09291418  0.45785820  1
  C  C300  1  0.46383303  0.07192589  0.53352501  1
  C  C301  1  0.54900195  0.40811888  0.54249495  1
  C  C302  1  0.47150672  0.59675302  0.46111810  1
  C  C303  1  0.95888723  0.07345740  0.96178523  1
  C  C304  1  0.68589844  0.57573880  0.95400309  1
  C  C305  1  0.22325298  0.90637995  0.53401784  1
  C  C306  1  0.21753451  0.76222820  0.03770131  1
  C  C307  1  0.05982198  0.59380518  0.04485816  1
  C  C308  1  0.95646872  0.92732178  0.45746244  1
  C  C309  1  0.78803615  0.42222924  0.03687520  1
  C  C310  1  0.68022441  0.23853869  0.54466202  1
  C  C311  1  0.98674081  0.26023613  0.46479649  1
  N  N312  1  0.76680904  0.57440467  0.54003689  1
  N  N313  1  0.45712342  0.74091549  0.53813887  1
  N  N314  1  0.03729391  0.07236696  0.54230732  1
  N  N315  1  0.71256380  0.75891675  0.03971322  1
  N  N316  1  0.04853066  0.40890272  0.54067972  1
  N  N317  1  0.78875055  0.75872082  0.04006589  1
  N  N318  1  0.06525306  0.26240471  0.45434857  1
  N  N319  1  0.31071045  0.09668079  0.45522192  1
  N  N320  1  0.29821813  0.90404663  0.95887801  1
  N  N321  1  0.56182611  0.40541259  0.95451347  1
  N  N322  1  0.29120807  0.09587658  0.04174689  1
  N  N323  1  0.72026877  0.76179595  0.46345666  1
  N  N324  1  0.96101244  0.73263787  0.53658571  1
  N  N325  1  0.98062521  0.59073962  0.03771028  1
  N  N326  1  0.96678381  0.25800709  0.03934221  1
  N  N327  1  0.22167949  0.90503404  0.96182734  1
  N  N328  1  0.68927381  0.57216602  0.54652438  1
  N  N329  1  0.78220492  0.42640892  0.46316027  1
  N  N330  1  0.79667245  0.76261750  0.45866333  1
  N  N331  1  0.27559114  0.42554232  0.46342288  1
  N  N332  1  0.78033112  0.23886965  0.96158569  1
  N  N333  1  0.06073359  0.59925598  0.45755335  1
  N  N334  1  0.75829299  0.24276519  0.53558058  1
  N  N335  1  0.52439781  0.07518356  0.95992795  1
  N  N336  1  0.46200141  0.59494761  0.03913702  1
  N  N337  1  0.47929861  0.25433199  0.03876397  1
  N  N338  1  0.47221861  0.25798923  0.46277787  1
  N  N339  1  0.26183469  0.57316371  0.53530938  1
  N  N340  1  0.03579782  0.92671576  0.46196495  1
  N  N341  1  0.20309919  0.76322794  0.45941953  1
  N  N342  1  0.80768251  0.90440455  0.95408767  1
  N  N343  1  0.19943765  0.42703427  0.45782431  1
  N  N344  1  0.98341132  0.58684099  0.46292516  1
  N  N345  1  0.47161492  0.40963911  0.53641657  1
  N  N346  1  0.70874438  0.42353038  0.03789259  1
  N  N347  1  0.21452341  0.09579300  0.04163812  1
  N  N348  1  0.44417129  0.92782527  0.04445236  1
  N  N349  1  0.80805483  0.09520663  0.04426411  1
  N  N350  1  0.76981840  0.09136313  0.46494699  1
  N  N351  1  0.76420267  0.57759462  0.96299601  1
  N  N352  1  0.28813565  0.57263811  0.96110609  1
  N  N353  1  0.55752667  0.26619257  0.04311553  1
  N  N354  1  0.23381356  0.09361175  0.46330946  1
  N  N355  1  0.04054267  0.73280860  0.53701028  1
  N  N356  1  0.55023520  0.25773758  0.45790187  1
  N  N357  1  0.70363922  0.23785933  0.95989497  1
  N  N358  1  0.27928230  0.76183107  0.46467117  1
  N  N359  1  0.04682494  0.74102634  0.95856762  1
  N  N360  1  0.06303092  0.05242158  0.59845813  1
  N  N361  1  0.06924144  0.38981526  0.59898940  1
  N  N362  1  0.06423794  0.72547631  0.59588214  1
  N  N363  1  0.56666593  0.05609708  0.59263376  1
  N  N364  1  0.56960694  0.38985606  0.60044832  1
  N  N365  1  0.56406782  0.72542332  0.59425882  1
  N  N366  1  0.44523874  0.27836062  0.09005988  1
  N  N367  1  0.43715665  0.61143606  0.09651612  1
  N  N368  1  0.42816010  0.94412572  0.10355568  1
  N  N369  1  0.93886989  0.27631393  0.09627515  1
  N  N370  1  0.94500115  0.61168907  0.09033192  1
  N  N371  1  0.93312992  0.94424104  0.09782290  1
  N  N372  1  0.42912445  0.05609769  0.89586263  1
  N  N373  1  0.44491437  0.39200733  0.90865415  1
  N  N374  1  0.43421768  0.72209886  0.89904302  1
  N  N375  1  0.93262129  0.05776565  0.90553855  1
  N  N376  1  0.93980452  0.39023098  0.90392127  1
  N  N377  1  0.93666402  0.72585916  0.90600012  1
  N  N378  1  0.07644304  0.27910786  0.39482145  1
  N  N379  1  0.07409091  0.61034542  0.39763001  1
  N  N380  1  0.06168647  0.94215577  0.40456680  1
  N  N381  1  0.57237509  0.27676135  0.40154969  1
  N  N382  1  0.57231769  0.61231032  0.39707356  1
  N  N383  1  0.56430259  0.94551543  0.40308800  1
  N  N384  1  0.30327634  0.22441424  0.59074758  1
  N  N385  1  0.30090563  0.55576779  0.58845563  1
  N  N386  1  0.31957982  0.88817795  0.59867996  1
  N  N387  1  0.79809909  0.22584070  0.58845756  1
  N  N388  1  0.80361744  0.55535090  0.59199181  1
  N  N389  1  0.81620943  0.88886344  0.59941009  1
  N  N390  1  0.18936322  0.11054175  0.09979312  1
  N  N391  1  0.17447901  0.44683845  0.10678556  1
  N  N392  1  0.18738265  0.77766368  0.09570017  1
  N  N393  1  0.69353772  0.10991697  0.09345012  1
  N  N394  1  0.68245089  0.44317346  0.09476272  1
  N  N395  1  0.68691784  0.77588996  0.09736976  1
  N  N396  1  0.17718490  0.22063410  0.89558932  1
  N  N397  1  0.18128424  0.55765106  0.90452889  1
  N  N398  1  0.19268880  0.88965636  0.90480979  1
  N  N399  1  0.68129729  0.22273815  0.90069776  1
  N  N400  1  0.67642473  0.55712987  0.89525591  1
  N  N401  1  0.69272330  0.88883996  0.90637090  1
  N  N402  1  0.31970359  0.11246207  0.39598186  1
  N  N403  1  0.30825875  0.44202053  0.40788105  1
  N  N404  1  0.31164435  0.77783171  0.40869127  1
  N  N405  1  0.80780240  0.10918760  0.41114541  1
  N  N406  1  0.80833160  0.44188899  0.40572501  1
  N  N407  1  0.81483282  0.77822787  0.39891666  1
  N  N408  1  0.44543898  0.27616336  0.40720538  1
  N  N409  1  0.44233320  0.61161650  0.40361339  1
  N  N410  1  0.43427617  0.94484938  0.40321157  1
  N  N411  1  0.94941107  0.27505836  0.41106409  1
  N  N412  1  0.94758777  0.60937132  0.41182332  1
  N  N413  1  0.93386239  0.94322968  0.39901911  1
  N  N414  1  0.06273650  0.05617362  0.90158155  1
  N  N415  1  0.06963995  0.38972970  0.90132393  1
  N  N416  1  0.06464975  0.72248623  0.89860815  1
  N  N417  1  0.55763741  0.05654861  0.90582531  1
  N  N418  1  0.57150371  0.38877060  0.89431613  1
  N  N419  1  0.56387628  0.72489618  0.90803489  1
  N  N420  1  0.06788783  0.27546856  0.09638186  1
  N  N421  1  0.07294240  0.61157683  0.10372499  1
  N  N422  1  0.06328475  0.94440730  0.09911462  1
  N  N423  1  0.57204928  0.27686700  0.10313859  1
  N  N424  1  0.56622656  0.61054286  0.09552919  1
  N  N425  1  0.55618783  0.94057297  0.09208881  1
  N  N426  1  0.43642902  0.05650096  0.58924497  1
  N  N427  1  0.44176033  0.39066892  0.59335082  1
  N  N428  1  0.43577530  0.72365783  0.59763932  1
  N  N429  1  0.93403213  0.05610097  0.59971502  1
  N  N430  1  0.94066389  0.39355302  0.59075931  1
  N  N431  1  0.93641614  0.72519896  0.59525969  1
  N  N432  1  0.19407222  0.10847286  0.41114034  1
  N  N433  1  0.18234146  0.44391256  0.39818129  1
  N  N434  1  0.18566615  0.77965837  0.39966868  1
  N  N435  1  0.67955047  0.11004162  0.39889239  1
  N  N436  1  0.68047388  0.44346335  0.40016055  1
  N  N437  1  0.68880630  0.77720498  0.40707754  1
  N  N438  1  0.30667910  0.22222831  0.90593253  1
  N  N439  1  0.30922535  0.55536557  0.90120890  1
  N  N440  1  0.31898531  0.88790317  0.89970998  1
  N  N441  1  0.80777109  0.22341744  0.90413060  1
  N  N442  1  0.80391168  0.55667543  0.91119228  1
  N  N443  1  0.81972392  0.88833560  0.89419902  1
  N  N444  1  0.31578744  0.11097297  0.10036623  1
  N  N445  1  0.30294294  0.44352301  0.09099530  1
  N  N446  1  0.31730918  0.77851123  0.10142897  1
  N  N447  1  0.82082928  0.11116071  0.10390668  1
  N  N448  1  0.81137099  0.44025878  0.09362154  1
  N  N449  1  0.81366271  0.77586146  0.09791815  1
  N  N450  1  0.17381562  0.22343558  0.60249160  1
  N  N451  1  0.17323100  0.55391841  0.60351447  1
  N  N452  1  0.18997319  0.89133839  0.58807767  1
  N  N453  1  0.67083686  0.22096741  0.60395618  1
  N  N454  1  0.67784432  0.55607192  0.60539556  1
  N  N455  1  0.68613892  0.88905323  0.59765974  1
  Cl  Cl456  1  0.24472654  0.05746808  0.60459581  1
  Cl  Cl457  1  0.25350373  0.38714462  0.62033108  1
  Cl  Cl458  1  0.24757391  0.71349822  0.61690290  1
  Cl  Cl459  1  0.75383951  0.05738490  0.61079905  1
  Cl  Cl460  1  0.75364958  0.38302020  0.61839560  1
  Cl  Cl461  1  0.75257280  0.71815364  0.61790322  1
  Cl  Cl462  1  0.26000968  0.27690991  0.11122359  1
  Cl  Cl463  1  0.25469870  0.61415285  0.12365890  1
  Cl  Cl464  1  0.24704747  0.94699905  0.12116123  1
  Cl  Cl465  1  0.75448308  0.28512958  0.12408553  1
  Cl  Cl466  1  0.75994760  0.60408351  0.10731843  1
  Cl  Cl467  1  0.74081276  0.94554837  0.11259354  1
  Cl  Cl468  1  0.24747227  0.05139094  0.87257998  1
  Cl  Cl469  1  0.25821297  0.38998712  0.88628537  1
  Cl  Cl470  1  0.24824751  0.71564795  0.88031913  1
  Cl  Cl471  1  0.74196972  0.05535862  0.88336645  1
  Cl  Cl472  1  0.75476436  0.39047169  0.88489135  1
  Cl  Cl473  1  0.75096948  0.71454503  0.88202506  1
  Cl  Cl474  1  0.26193729  0.27899883  0.38116544  1
  Cl  Cl475  1  0.25800088  0.60917771  0.39337700  1
  Cl  Cl476  1  0.24701093  0.94985984  0.38526684  1
  Cl  Cl477  1  0.76137823  0.27282897  0.39661364  1
  Cl  Cl478  1  0.76532137  0.60429987  0.39153955  1
  Cl  Cl479  1  0.74860690  0.95260057  0.37998590  1
  Cl  Cl480  1  -0.01652036  0.22337107  0.61144608  1
  Cl  Cl481  1  -0.01357845  0.56167287  0.60650088  1
  Cl  Cl482  1  0.00044615  0.88243739  0.61818275  1
  Cl  Cl483  1  0.48963700  0.21886413  0.62368827  1
  Cl  Cl484  1  0.48757325  0.55641562  0.61409331  1
  Cl  Cl485  1  0.50252560  0.88421692  0.62449079  1
  Cl  Cl486  1  0.00634934  0.11664650  0.12505255  1
  Cl  Cl487  1  -0.00805059  0.44725006  0.12230210  1
  Cl  Cl488  1  -0.00169331  0.77698952  0.12368676  1
  Cl  Cl489  1  0.50603820  0.10957232  0.10012994  1
  Cl  Cl490  1  0.49320388  0.44394720  0.11040884  1
  Cl  Cl491  1  0.50285987  0.78099107  0.11835864  1
  Cl  Cl492  1  -0.00939475  0.22212000  0.88491819  1
  Cl  Cl493  1  -0.00977484  0.56306635  0.89386827  1
  Cl  Cl494  1  0.00731665  0.88786716  0.88526825  1
  Cl  Cl495  1  0.49423280  0.22544173  0.89494149  1
  Cl  Cl496  1  0.49342942  0.55671404  0.88431624  1
  Cl  Cl497  1  0.50509961  0.88910327  0.89144164  1
  Cl  Cl498  1  0.00399880  0.10672967  0.40066699  1
  Cl  Cl499  1  -0.00257230  0.44534017  0.39016156  1
  Cl  Cl500  1  0.00001198  0.77446203  0.39509038  1
  Cl  Cl501  1  0.50011368  0.11710601  0.36914526  1
  Cl  Cl502  1  0.49499010  0.44532171  0.37800895  1
  Cl  Cl503  1  0.50090385  0.77974490  0.38587463  1
  Cl  Cl504  1  0.35941026  0.14670203  0.75374569  1
  Cl  Cl505  1  0.35832507  0.48130860  0.75185771  1
  Cl  Cl506  1  0.36147902  0.81177540  0.74849496  1
  Cl  Cl507  1  0.85919520  0.14573604  0.74771306  1
  Cl  Cl508  1  0.86141193  0.48012552  0.75009855  1
  Cl  Cl509  1  0.86360289  0.81127322  0.75034808  1
  Cl  Cl510  1  0.13799858  0.18971618  0.25463411  1
  Cl  Cl511  1  0.13513113  0.52290585  0.25018438  1
  Cl  Cl512  1  0.13565376  0.85523412  0.25438814  1
  Cl  Cl513  1  0.63882767  0.18757154  0.25146118  1
  Cl  Cl514  1  0.63843922  0.52173143  0.24965264  1
  Cl  Cl515  1  0.63839844  0.85537116  0.25103003  1
  Cl  Cl516  1  0.13573729  0.14623801  0.74530006  1
  Cl  Cl517  1  0.13329346  0.47815530  0.74493701  1
  Cl  Cl518  1  0.13809501  0.81092487  0.74787713  1
  Cl  Cl519  1  0.63543896  0.14557665  0.74813088  1
  Cl  Cl520  1  0.64083420  0.47710656  0.75204992  1
  Cl  Cl521  1  0.63826343  0.81262019  0.75338257  1
  Cl  Cl522  1  0.35930670  0.18873830  0.24979889  1
  Cl  Cl523  1  0.35944679  0.51857541  0.24991199  1
  Cl  Cl524  1  0.36297337  0.85435111  0.24563934  1
  Cl  Cl525  1  0.86299611  0.18623744  0.25032283  1
  Cl  Cl526  1  0.85743719  0.52032128  0.25014912  1
  Cl  Cl527  1  0.86196314  0.85563381  0.25284428  1
  Cl  Cl528  1  0.11194202  0.31109382  0.74795751  1
  Cl  Cl529  1  0.10839205  0.64348103  0.74763761  1
  Cl  Cl530  1  0.10923152  0.98076585  0.74844409  1
  Cl  Cl531  1  0.61308533  0.31115183  0.75268625  1
  Cl  Cl532  1  0.61234148  0.64344448  0.74964278  1
  Cl  Cl533  1  0.60907704  0.98022375  0.74953186  1
  Cl  Cl534  1  0.38585771  0.02267614  0.24385504  1
  Cl  Cl535  1  0.39438831  0.35126253  0.24746190  1
  Cl  Cl536  1  0.38994026  0.68628028  0.24730671  1
  Cl  Cl537  1  0.88823896  0.02248301  0.25029403  1
  Cl  Cl538  1  0.88951556  0.35253823  0.25413300  1
  Cl  Cl539  1  0.89158600  0.68496448  0.25383687  1
  Cl  Cl540  1  0.38974774  0.31497790  0.75307429  1
  Cl  Cl541  1  0.38939436  0.64598454  0.75244682  1
  Cl  Cl542  1  0.38817514  0.97995768  0.75182944  1
  Cl  Cl543  1  0.89269740  0.31333138  0.75030132  1
  Cl  Cl544  1  0.89011459  0.64485026  0.74599984  1
  Cl  Cl545  1  0.88724274  0.97823202  0.75068819  1
  Cl  Cl546  1  0.11011270  0.02032266  0.25156138  1
  Cl  Cl547  1  0.10928849  0.35614272  0.25166080  1
  Cl  Cl548  1  0.11314041  0.68684898  0.25550827  1
  Cl  Cl549  1  0.60647951  0.02181419  0.24826498  1
  Cl  Cl550  1  0.61443949  0.35404636  0.24724078  1
  Cl  Cl551  1  0.61340868  0.68600982  0.25040120  1
