# generated using pymatgen
data_H8PbC4(N3Cl2)2
_symmetry_space_group_name_H-M   'P 1'
_cell_length_a   16.62721264
_cell_length_b   22.51174256
_cell_length_c   21.59183018
_cell_angle_alpha   90.00180967
_cell_angle_beta   89.97991880
_cell_angle_gamma   89.99554294
_symmetry_Int_Tables_number   1
_chemical_formula_structural   H8PbC4(N3Cl2)2
_chemical_formula_sum   'H192 Pb24 C96 N144 Cl96'
_cell_volume   8081.98410623
_cell_formula_units_Z   24
loop_
 _symmetry_equiv_pos_site_id
 _symmetry_equiv_pos_as_xyz
  1  'x, y, z'
loop_
 _atom_site_type_symbol
 _atom_site_label
 _atom_site_symmetry_multiplicity
 _atom_site_fract_x
 _atom_site_fract_y
 _atom_site_fract_z
 _atom_site_occupancy
  H  H0  1  0.00198524  0.03035757  0.68083825  1
  H  H1  1  0.01317401  0.36315031  0.67723890  1
  H  H2  1  -0.00508059  0.69761745  0.67878893  1
  H  H3  1  0.49324995  0.03113638  0.67638350  1
  H  H4  1  0.49092925  0.36637376  0.68048553  1
  H  H5  1  0.49816265  0.69651787  0.67747336  1
  H  H6  1  0.00468184  0.30188395  0.17795521  1
  H  H7  1  -0.00187506  0.63492958  0.18109615  1
  H  H8  1  -0.00118209  0.96967292  0.18253461  1
  H  H9  1  0.48179928  0.30024428  0.17431343  1
  H  H10  1  0.49722539  0.63545364  0.17595976  1
  H  H11  1  0.48873674  0.96957671  0.17542699  1
  H  H12  1  -0.00933039  0.02974802  0.81972236  1
  H  H13  1  0.00423665  0.36186781  0.82371158  1
  H  H14  1  0.00971568  0.70051336  0.82056718  1
  H  H15  1  0.50566540  0.02914848  0.82293094  1
  H  H16  1  0.50631696  0.36106457  0.82273866  1
  H  H17  1  0.48849303  0.69849219  0.81838174  1
  H  H18  1  -0.00225255  0.29996892  0.31945902  1
  H  H19  1  -0.00458440  0.63802363  0.32201619  1
  H  H20  1  -0.01018733  0.97210276  0.32462703  1
  H  H21  1  0.50502125  0.30268816  0.31842533  1
  H  H22  1  0.50342325  0.63908755  0.32279652  1
  H  H23  1  0.50934900  0.97065999  0.32465885  1
  H  H24  1  0.24065792  0.19538792  0.67939226  1
  H  H25  1  0.25729261  0.53285364  0.67945520  1
  H  H26  1  0.24650622  0.86182650  0.67666216  1
  H  H27  1  0.76110925  0.19793148  0.68337951  1
  H  H28  1  0.73948956  0.52866216  0.67463283  1
  H  H29  1  0.75299003  0.86083730  0.67688115  1
  H  H30  1  0.24470880  0.13692808  0.18024727  1
  H  H31  1  0.24393990  0.46775978  0.17906757  1
  H  H32  1  0.25865108  0.80000253  0.18476522  1
  H  H33  1  0.76155540  0.13917750  0.17687183  1
  H  H34  1  0.74874500  0.46758788  0.17765050  1
  H  H35  1  0.73904229  0.80234527  0.17934047  1
  H  H36  1  0.24349595  0.19627191  0.81915384  1
  H  H37  1  0.25891613  0.52789287  0.82063286  1
  H  H38  1  0.24757906  0.86512387  0.81705789  1
  H  H39  1  0.76028422  0.19879429  0.82423293  1
  H  H40  1  0.75033564  0.53038012  0.82019065  1
  H  H41  1  0.74940533  0.86533933  0.82373821  1
  H  H42  1  0.25434105  0.13954009  0.32479980  1
  H  H43  1  0.25211707  0.47321679  0.31944110  1
  H  H44  1  0.25668201  0.80556551  0.31943899  1
  H  H45  1  0.75472217  0.13574582  0.32192281  1
  H  H46  1  0.75383288  0.46890621  0.32171044  1
  H  H47  1  0.74918795  0.80409443  0.32090772  1
  H  H48  1  0.13228652  0.05398545  0.61309433  1
  H  H49  1  0.12043540  0.39126738  0.59318934  1
  H  H50  1  0.12373268  0.71833143  0.61515359  1
  H  H51  1  0.63276992  0.04891948  0.62267665  1
  H  H52  1  0.62706916  0.38513172  0.62205372  1
  H  H53  1  0.62453937  0.72014061  0.60831535  1
  H  H54  1  0.38002954  0.27373502  0.08931254  1
  H  H55  1  0.39193904  0.60455168  0.09254870  1
  H  H56  1  0.38208625  0.94028729  0.09284518  1
  H  H57  1  0.87095762  0.28157733  0.11736514  1
  H  H58  1  0.88833346  0.60865312  0.10070240  1
  H  H59  1  0.87599966  0.94615365  0.11128756  1
  H  H60  1  0.37612394  0.05348864  0.88745978  1
  H  H61  1  0.37172925  0.38475562  0.88296820  1
  H  H62  1  0.37210901  0.71967188  0.89600207  1
  H  H63  1  0.88235496  0.05861402  0.90265430  1
  H  H64  1  0.86755876  0.37896885  0.88348440  1
  H  H65  1  0.87115363  0.71923921  0.87738268  1
  H  H66  1  0.13103976  0.28045441  0.38077898  1
  H  H67  1  0.11459832  0.61095384  0.39632672  1
  H  H68  1  0.13239520  0.95569296  0.37519094  1
  H  H69  1  0.62690674  0.28255088  0.39127463  1
  H  H70  1  0.61628636  0.60958239  0.40151044  1
  H  H71  1  0.62561570  0.94042734  0.39944764  1
  H  H72  1  0.37140125  0.21821658  0.61302031  1
  H  H73  1  0.37934491  0.55699191  0.60599917  1
  H  H74  1  0.36528649  0.88883608  0.60141353  1
  H  H75  1  0.87003549  0.22405964  0.60151937  1
  H  H76  1  0.88238052  0.54893585  0.62726110  1
  H  H77  1  0.86477889  0.88877491  0.59690488  1
  H  H78  1  0.12506416  0.11170236  0.10491167  1
  H  H79  1  0.13816732  0.44054336  0.09642755  1
  H  H80  1  0.12870832  0.77930535  0.12085016  1
  H  H81  1  0.62068322  0.11854651  0.12624163  1
  H  H82  1  0.63731420  0.43999093  0.09825482  1
  H  H83  1  0.63285723  0.77557650  0.09568605  1
  H  H84  1  0.13001295  0.22164161  0.89809508  1
  H  H85  1  0.12058198  0.54857180  0.87706832  1
  H  H86  1  0.12401727  0.88819418  0.88877305  1
  H  H87  1  0.62658388  0.21768506  0.88253682  1
  H  H88  1  0.61474742  0.55141915  0.88020567  1
  H  H89  1  0.62149576  0.88910378  0.89046188  1
  H  H90  1  0.36812648  0.10824143  0.40010550  1
  H  H91  1  0.37598705  0.44822142  0.39067931  1
  H  H92  1  0.37398362  0.77727306  0.39621870  1
  H  H93  1  0.86811134  0.11012054  0.39987350  1
  H  H94  1  0.87474152  0.44222711  0.39388188  1
  H  H95  1  0.87325365  0.77846681  0.39267369  1
  H  H96  1  0.37751854  0.28031678  0.38423962  1
  H  H97  1  0.36922661  0.61592747  0.38152516  1
  H  H98  1  0.37769585  0.94997796  0.38806609  1
  H  H99  1  0.88245401  0.27978446  0.39648730  1
  H  H100  1  0.86699666  0.61176178  0.38892162  1
  H  H101  1  0.88927285  0.93833053  0.41001482  1
  H  H102  1  0.12908527  0.04949054  0.87421756  1
  H  H103  1  0.11391494  0.39197089  0.90334638  1
  H  H104  1  0.11779087  0.72294316  0.90373947  1
  H  H105  1  0.62504612  0.05561135  0.89641552  1
  H  H106  1  0.61943990  0.38712270  0.90246300  1
  H  H107  1  0.62109328  0.72101898  0.88127536  1
  H  H108  1  0.11976103  0.27729750  0.10182681  1
  H  H109  1  0.13470973  0.61517781  0.12599472  1
  H  H110  1  0.12526228  0.94696433  0.11150448  1
  H  H111  1  0.62336960  0.28619129  0.12486689  1
  H  H112  1  0.63742280  0.61360223  0.12415811  1
  H  H113  1  0.62784357  0.94953460  0.12060286  1
  H  H114  1  0.38784117  0.05865068  0.59076071  1
  H  H115  1  0.37934681  0.38856407  0.60113072  1
  H  H116  1  0.37531297  0.72217351  0.60687416  1
  H  H117  1  0.88399882  0.05490865  0.60380581  1
  H  H118  1  0.87481381  0.38599985  0.62110237  1
  H  H119  1  0.87490013  0.72173045  0.60521535  1
  H  H120  1  0.12074867  0.11648766  0.38535741  1
  H  H121  1  0.12666399  0.44343791  0.38530753  1
  H  H122  1  0.12598724  0.78123636  0.38514487  1
  H  H123  1  0.61974483  0.11218876  0.38174082  1
  H  H124  1  0.62604204  0.44770698  0.39070578  1
  H  H125  1  0.62458746  0.77901239  0.39279471  1
  H  H126  1  0.37830432  0.21919259  0.88092627  1
  H  H127  1  0.36583285  0.55718863  0.90526192  1
  H  H128  1  0.37319149  0.88725900  0.88851214  1
  H  H129  1  0.87405397  0.22441703  0.90232446  1
  H  H130  1  0.86284431  0.55451924  0.89980175  1
  H  H131  1  0.87033766  0.89082234  0.89516076  1
  H  H132  1  0.37334328  0.11403967  0.11436975  1
  H  H133  1  0.38363314  0.44862315  0.12773773  1
  H  H134  1  0.37773833  0.78219779  0.10916724  1
  H  H135  1  0.86498330  0.10897687  0.09111309  1
  H  H136  1  0.88411837  0.44596876  0.11786074  1
  H  H137  1  0.87878088  0.78203119  0.12406532  1
  H  H138  1  0.12337696  0.22390312  0.60258976  1
  H  H139  1  0.13105431  0.55591401  0.60933974  1
  H  H140  1  0.11683269  0.88497503  0.61221624  1
  H  H141  1  0.62335529  0.21778432  0.62480786  1
  H  H142  1  0.63981747  0.56009130  0.58813648  1
  H  H143  1  0.61792783  0.88503089  0.61919121  1
  H  H144  1  0.05977444  0.24750381  -0.00731390  1
  H  H145  1  0.94126753  0.25230232  0.50637839  1
  H  H146  1  0.41439424  0.08239859  0.99430112  1
  H  H147  1  0.10782196  0.08037609  0.98706871  1
  H  H148  1  0.95331737  0.08755650  1.00187105  1
  H  H149  1  0.15489191  0.08508672  0.49256493  1
  H  H150  1  0.41599125  0.91628845  0.49420977  1
  H  H151  1  0.04380220  0.41267030  0.49282209  1
  H  H152  1  0.57985714  0.25361080  0.50025197  1
  H  H153  1  0.17434836  0.91782597  0.99697853  1
  H  H154  1  0.90689078  0.58572860  0.49597838  1
  H  H155  1  0.17124466  0.41199173  0.49586727  1
  H  H156  1  0.80551676  0.07998883  0.50696029  1
  H  H157  1  0.95462684  0.58270000  -0.00647519  1
  H  H158  1  0.44364799  0.41328910  0.49158647  1
  H  H159  1  0.57478795  0.08709327  1.00380313  1
  H  H160  1  0.04772260  0.74749619  1.01029342  1
  H  H161  1  0.32245549  0.43023677  0.49805355  1
  H  H162  1  0.11429732  0.58866825  1.01182169  1
  H  H163  1  0.70735908  0.74910424  -0.00840640  1
  H  H164  1  0.72117083  0.58341372  0.48972874  1
  H  H165  1  0.11891434  0.91839894  0.48266929  1
  H  H166  1  0.64943479  0.25201208  0.99562976  1
  H  H167  1  0.36846854  0.41882311  1.01394133  1
  H  H168  1  0.66376730  0.91770096  0.99655359  1
  H  H169  1  0.64092423  0.57640312  0.99101220  1
  H  H170  1  0.08753751  0.74891267  0.50196891  1
  H  H171  1  0.92599053  0.91626248  0.00261232  1
  H  H172  1  0.89458735  0.41451386  0.98869068  1
  H  H173  1  0.43322735  0.74136687  1.00611090  1
  H  H174  1  0.78601767  0.08317177  -0.00716737  1
  H  H175  1  0.64787621  0.08401103  0.49072248  1
  H  H176  1  0.18152070  0.58801449  0.50553732  1
  H  H177  1  0.04233090  0.40843334  1.00676247  1
  H  H178  1  0.46791505  0.57866635  -0.00789574  1
  H  H179  1  0.79802049  0.58240727  1.00680894  1
  H  H180  1  0.79591045  0.91442617  0.49452457  1
  H  H181  1  0.97156162  0.92144322  0.50893318  1
  H  H182  1  0.79918736  0.25429810  0.49759735  1
  H  H183  1  0.32342880  0.76827440  -0.00364576  1
  H  H184  1  0.41569694  0.25036950  0.49547706  1
  H  H185  1  0.19619544  0.24908087  1.00466990  1
  H  H186  1  0.89528786  0.74719430  0.98641753  1
  H  H187  1  0.20866017  0.41473476  -0.00901763  1
  H  H188  1  0.58439948  0.74845493  0.98866065  1
  H  H189  1  0.16486745  0.75736609  0.00599690  1
  H  H190  1  0.54874857  0.58409142  0.50425634  1
  H  H191  1  0.28897150  0.58054804  1.00544342  1
  Pb  Pb192  1  0.25497088  0.04685940  0.74023912  1
  Pb  Pb193  1  0.24301726  0.38472934  0.74512780  1
  Pb  Pb194  1  0.24851849  0.71329555  0.75675078  1
  Pb  Pb195  1  0.74781476  0.04861598  0.75353960  1
  Pb  Pb196  1  0.74792689  0.37905880  0.75755126  1
  Pb  Pb197  1  0.74764172  0.71799198  0.74935977  1
  Pb  Pb198  1  0.25219437  0.28666351  0.24111119  1
  Pb  Pb199  1  0.25805630  0.61684154  0.24762637  1
  Pb  Pb200  1  0.25301937  0.95512963  0.24223864  1
  Pb  Pb201  1  0.75245336  0.28682715  0.25711271  1
  Pb  Pb202  1  0.75377542  0.62015380  0.25061805  1
  Pb  Pb203  1  0.75340670  0.95325693  0.25507156  1
  Pb  Pb204  1  -0.00042215  0.21325216  0.75024411  1
  Pb  Pb205  1  -0.00692494  0.54946586  0.75162242  1
  Pb  Pb206  1  0.00162838  0.88294971  0.74793199  1
  Pb  Pb207  1  0.49534341  0.21601856  0.74730898  1
  Pb  Pb208  1  0.50429413  0.54950874  0.74296854  1
  Pb  Pb209  1  0.49437374  0.88126063  0.74650296  1
  Pb  Pb210  1  0.00029119  0.12077591  0.24349637  1
  Pb  Pb211  1  0.00400430  0.45243742  0.24714702  1
  Pb  Pb212  1  0.00489953  0.78562598  0.25162886  1
  Pb  Pb213  1  0.49957217  0.11975450  0.24951002  1
  Pb  Pb214  1  0.50848497  0.45142344  0.24903165  1
  Pb  Pb215  1  0.50265312  0.78686791  0.24342541  1
  C  C216  1  0.00620133  0.04601201  0.63333660  1
  C  C217  1  0.00329230  0.37883422  0.63029504  1
  C  C218  1  -0.00152649  0.71305184  0.63139950  1
  C  C219  1  0.50453903  0.04585121  0.62947240  1
  C  C220  1  0.49899085  0.38004138  0.63277584  1
  C  C221  1  0.49958745  0.71301542  0.63049874  1
  C  C222  1  -0.00135088  0.28687528  0.13054865  1
  C  C223  1  0.00748790  0.62013246  0.13376058  1
  C  C224  1  0.00030696  0.95415517  0.13496099  1
  C  C225  1  0.49549922  0.28647571  0.12749429  1
  C  C226  1  0.50872841  0.61959314  0.12923151  1
  C  C227  1  0.49991595  0.95325815  0.12916854  1
  C  C228  1  0.00060889  0.04565073  0.86669477  1
  C  C229  1  -0.00507085  0.37713302  0.87104573  1
  C  C230  1  -0.00115275  0.71468221  0.86802425  1
  C  C231  1  0.50190323  0.04548150  0.87027845  1
  C  C232  1  0.49874864  0.37710910  0.86946512  1
  C  C233  1  0.49448043  0.71420152  0.86576873  1
  C  C234  1  0.00350995  0.28634279  0.36731507  1
  C  C235  1  -0.00809044  0.62132064  0.36908512  1
  C  C236  1  0.00413191  0.95573967  0.37078930  1
  C  C237  1  0.50309960  0.28789947  0.36633701  1
  C  C238  1  0.49659709  0.62315213  0.36977234  1
  C  C239  1  0.50392261  0.95395795  0.37151557  1
  C  C240  1  0.24500121  0.21183622  0.63224128  1
  C  C241  1  0.25571280  0.54840190  0.63191953  1
  C  C242  1  0.24298370  0.87815141  0.62963091  1
  C  C243  1  0.75111759  0.21249250  0.63607832  1
  C  C244  1  0.75368422  0.54470217  0.62850241  1
  C  C245  1  0.74538262  0.87660088  0.62990585  1
  C  C246  1  0.24735582  0.12117183  0.13304497  1
  C  C247  1  0.25583835  0.45265774  0.13216723  1
  C  C248  1  0.25490865  0.78692670  0.13644064  1
  C  C249  1  0.74933030  0.12330566  0.13037813  1
  C  C250  1  0.75726747  0.45219402  0.13068870  1
  C  C251  1  0.75067654  0.78727187  0.13238962  1
  C  C252  1  0.25077305  0.21230016  0.86620152  1
  C  C253  1  0.24857479  0.54384596  0.86739475  1
  C  C254  1  0.24837893  0.88005032  0.86484103  1
  C  C255  1  0.75298573  0.21385311  0.87156294  1
  C  C256  1  0.74174381  0.54514329  0.86771599  1
  C  C257  1  0.74668914  0.88153344  0.87092965  1
  C  C258  1  0.24732090  0.12267965  0.37146164  1
  C  C259  1  0.25210288  0.45624545  0.36655793  1
  C  C260  1  0.25234526  0.78853842  0.36632717  1
  C  C261  1  0.74689106  0.11975574  0.36914635  1
  C  C262  1  0.75125346  0.45321236  0.36894755  1
  C  C263  1  0.74908509  0.78755897  0.36808633  1
  C  C264  1  0.47530559  0.40472701  0.53481332  1
  C  C265  1  0.68280531  0.09468828  0.04611689  1
  C  C266  1  0.44032972  0.59337284  0.45773759  1
  C  C267  1  0.52341558  0.40730887  0.96386197  1
  C  C268  1  0.19813384  0.90448157  0.53843164  1
  C  C269  1  0.96470190  0.92681170  0.04202513  1
  C  C270  1  0.20680512  0.76678606  0.04331623  1
  C  C271  1  0.69910094  0.24158342  0.96139305  1
  C  C272  1  0.55577976  0.40408677  0.54421236  1
  C  C273  1  0.06667115  0.59724947  0.04525005  1
  C  C274  1  0.02600284  0.25864087  0.03429073  1
  C  C275  1  0.23836309  0.42574216  0.03448887  1
  C  C276  1  0.27677616  0.08843530  0.46532193  1
  C  C277  1  0.53636904  0.92060950  0.46527229  1
  C  C278  1  0.48298790  0.92072053  0.03436700  1
  C  C279  1  0.78453741  0.91135773  0.96491784  1
  C  C280  1  0.21271171  0.90676128  0.95790382  1
  C  C281  1  0.97546153  0.26161072  0.46448052  1
  C  C282  1  0.05644737  0.26176381  0.45719704  1
  C  C283  1  0.48230930  0.25925073  0.03053582  1
  C  C284  1  0.73488840  0.76009957  0.03599539  1
  C  C285  1  0.56332755  0.07087237  0.54288739  1
  C  C286  1  0.22738986  0.23956318  0.96140827  1
  C  C287  1  0.78025315  0.24343906  0.96659930  1
  C  C288  1  0.76704419  0.57200971  0.96371665  1
  C  C289  1  0.73404445  0.42288656  0.03546652  1
  C  C290  1  0.20938817  0.42487176  0.45719854  1
  C  C291  1  0.68839286  0.90797664  0.54288394  1
  C  C292  1  0.54031681  0.26292079  0.46138758  1
  C  C293  1  0.45824634  0.26153699  0.45899974  1
  C  C294  1  0.46389427  0.73828020  0.96174103  1
  C  C295  1  0.96300830  0.74134109  0.53725262  1
  C  C296  1  0.77362246  0.09107010  0.46446306  1
  C  C297  1  0.46415584  0.74452314  0.53902406  1
  C  C298  1  0.82251262  0.57255395  0.54570032  1
  C  C299  1  0.56129832  0.26368874  0.04250349  1
  C  C300  1  0.29172280  0.09294328  0.04179437  1
  C  C301  1  0.94473982  0.25997869  0.04136880  1
  C  C302  1  0.57216210  0.58988193  0.04447881  1
  C  C303  1  0.01975917  0.73945616  0.96550552  1
  C  C304  1  0.28842097  0.76985820  0.03885273  1
  C  C305  1  0.78487373  0.42354990  0.46172395  1
  C  C306  1  0.98564751  0.59425950  0.03621643  1
  C  C307  1  0.53644177  0.07544350  0.96391881  1
  C  C308  1  0.04460428  0.73968296  0.53884645  1
  C  C309  1  0.06078552  0.07150146  0.95326165  1
  C  C310  1  0.76978451  0.24142616  0.54071939  1
  C  C311  1  0.31905481  0.42781495  0.04592173  1
  N  N312  1  0.48709273  0.07455364  0.53158815  1
  N  N313  1  0.81114584  0.42630203  0.04041763  1
  N  N314  1  0.51885614  0.59204299  0.46344957  1
  N  N315  1  0.05157850  0.07330847  0.54176482  1
  N  N316  1  0.94954261  0.59396746  0.45908923  1
  N  N317  1  0.06902939  0.93367084  0.45442902  1
  N  N318  1  0.99277299  0.91967067  0.46358297  1
  N  N319  1  0.26446223  0.57327997  0.96164970  1
  N  N320  1  0.93946094  0.39763416  0.95904232  1
  N  N321  1  0.68799640  0.57008828  0.95615847  1
  N  N322  1  0.69452323  0.09132033  0.45680863  1
  N  N323  1  0.94148355  0.73898120  0.95503890  1
  N  N324  1  0.29201115  0.90615980  0.95825620  1
  N  N325  1  0.29133075  0.24122522  0.54168792  1
  N  N326  1  0.69129953  0.23927784  0.54852235  1
  N  N327  1  0.76683773  0.90783335  0.53621199  1
  N  N328  1  0.44634848  0.40655339  0.95837188  1
  N  N329  1  0.70757353  0.42563677  0.46216283  1
  N  N330  1  0.70544902  0.91005617  0.96196004  1
  N  N331  1  0.74509379  0.57631425  0.53346313  1
  N  N332  1  0.81305697  0.76199870  0.04557184  1
  N  N333  1  0.19820198  0.09277006  0.45947534  1
  N  N334  1  0.78710518  0.75785619  0.46078166  1
  N  N335  1  0.54270492  0.74220737  0.95457936  1
  N  N336  1  0.98206160  0.07465250  0.96171105  1
  N  N337  1  0.20584403  0.75839108  0.45665221  1
  N  N338  1  0.49405233  0.58722770  0.03506256  1
  N  N339  1  0.71093183  0.75808914  0.46087849  1
  N  N340  1  0.29586586  0.57404206  0.53804710  1
  N  N341  1  0.02770187  0.59373643  0.46308151  1
  N  N342  1  0.55978157  0.92441914  0.04205656  1
  N  N343  1  0.18765661  0.57010457  0.95314496  1
  N  N344  1  0.21397239  0.09220462  0.03760499  1
  N  N345  1  0.45765732  0.92462737  0.46059948  1
  N  N346  1  0.76059705  0.09145800  0.03567039  1
  N  N347  1  0.21515905  0.24331488  0.53834290  1
  N  N348  1  0.97505339  0.07345027  0.53833359  1
  N  N349  1  0.94206321  0.40647173  0.54459199  1
  N  N350  1  0.27578653  0.90672507  0.53392309  1
  N  N351  1  0.54159639  0.74405214  0.53823486  1
  N  N352  1  0.45676441  0.07493969  0.95992757  1
  N  N353  1  0.21780126  0.57282573  0.54027070  1
  N  N354  1  0.01927733  0.40869660  0.53632970  1
  N  N355  1  0.01658611  0.41115226  0.96337082  1
  N  N356  1  0.28187482  0.75680251  0.46017711  1
  N  N357  1  0.28908799  0.42683243  0.45837508  1
  N  N358  1  0.30608839  0.24014765  0.95514698  1
  N  N359  1  0.04416750  0.92686109  0.04192894  1
  N  N360  1  0.07209272  0.05637855  0.60064927  1
  N  N361  1  0.05836337  0.38896599  0.58721527  1
  N  N362  1  0.06532562  0.72227696  0.59867686  1
  N  N363  1  0.57671886  0.05388701  0.60273654  1
  N  N364  1  0.56971754  0.38938779  0.60315848  1
  N  N365  1  0.56389420  0.72441736  0.59658469  1
  N  N366  1  0.44185817  0.27306975  0.08259237  1
  N  N367  1  0.45440553  0.60848139  0.08627837  1
  N  N368  1  0.44397041  0.93832117  0.08646991  1
  N  N369  1  0.92896969  0.27686596  0.09947345  1
  N  N370  1  0.94998966  0.60860974  0.09189510  1
  N  N371  1  0.93642325  0.94320614  0.09881849  1
  N  N372  1  0.43580220  0.05515960  0.90269894  1
  N  N373  1  0.43036883  0.38770128  0.89869371  1
  N  N374  1  0.43327225  0.72208650  0.90632179  1
  N  N375  1  0.94490370  0.05843688  0.90837134  1
  N  N376  1  0.92549076  0.38623762  0.89929346  1
  N  N377  1  0.92880910  0.72407538  0.89502294  1
  N  N378  1  0.07299253  0.27636359  0.39857211  1
  N  N379  1  0.05334864  0.60994988  0.40671957  1
  N  N380  1  0.07643219  0.94683382  0.39436321  1
  N  N381  1  0.56671376  0.27909614  0.40342073  1
  N  N382  1  0.55467228  0.61239094  0.41002274  1
  N  N383  1  0.56530208  0.93869313  0.41016970  1
  N  N384  1  0.31120136  0.22173668  0.59975646  1
  N  N385  1  0.31893111  0.55787257  0.59529474  1
  N  N386  1  0.30345783  0.88981179  0.59209016  1
  N  N387  1  0.80804666  0.22461854  0.59388844  1
  N  N388  1  0.82787624  0.55452112  0.60507649  1
  N  N389  1  0.80297488  0.88637923  0.58887320  1
  N  N390  1  0.18624814  0.11004843  0.09580826  1
  N  N391  1  0.20015332  0.44132832  0.08875135  1
  N  N392  1  0.18736318  0.77733450  0.10414959  1
  N  N393  1  0.67594091  0.11312667  0.10522463  1
  N  N394  1  0.69898186  0.43862923  0.08954192  1
  N  N395  1  0.69506203  0.77529208  0.08902601  1
  N  N396  1  0.19159520  0.22311902  0.90702022  1
  N  N397  1  0.17794665  0.55385012  0.89420564  1
  N  N398  1  0.18431155  0.89086911  0.90088395  1
  N  N399  1  0.68382406  0.22303785  0.90098926  1
  N  N400  1  0.67295470  0.55248688  0.89724670  1
  N  N401  1  0.68148473  0.89132473  0.90419030  1
  N  N402  1  0.30742917  0.10706282  0.41100558  1
  N  N403  1  0.31509135  0.44948647  0.40320579  1
  N  N404  1  0.31235617  0.77550822  0.40438762  1
  N  N405  1  0.80671365  0.10806710  0.40990173  1
  N  N406  1  0.81453257  0.44026949  0.40577590  1
  N  N407  1  0.81235686  0.77579210  0.40331080  1
  N  N408  1  0.43672564  0.27698525  0.39962077  1
  N  N409  1  0.42628227  0.61166953  0.39958963  1
  N  N410  1  0.43692450  0.94537722  0.40297552  1
  N  N411  1  0.94338302  0.27702666  0.40710416  1
  N  N412  1  0.92658893  0.61158576  0.40248977  1
  N  N413  1  0.95173271  0.94288119  0.41519314  1
  N  N414  1  0.07252289  0.05391133  0.89417135  1
  N  N415  1  0.05202736  0.38807994  0.91239236  1
  N  N416  1  0.05591757  0.72464254  0.91146938  1
  N  N417  1  0.56452347  0.05775707  0.90786275  1
  N  N418  1  0.55778978  0.38974751  0.91023200  1
  N  N419  1  0.56161881  0.72719633  0.89544784  1
  N  N420  1  0.05873107  0.27544519  0.09116993  1
  N  N421  1  0.07880156  0.61300208  0.10572585  1
  N  N422  1  0.06449613  0.94375819  0.10023666  1
  N  N423  1  0.56907414  0.27995339  0.10211789  1
  N  N424  1  0.58169539  0.60884843  0.10345528  1
  N  N425  1  0.57027641  0.94463303  0.10248254  1
  N  N426  1  0.45041430  0.05843945  0.58675481  1
  N  N427  1  0.44051376  0.38980361  0.59155888  1
  N  N428  1  0.43552642  0.72581931  0.59451354  1
  N  N429  1  0.94574133  0.05682880  0.59495497  1
  N  N430  1  0.93278917  0.39016839  0.60367967  1
  N  N431  1  0.93535437  0.72544082  0.59310953  1
  N  N432  1  0.17933513  0.11462361  0.40187126  1
  N  N433  1  0.18635471  0.44151231  0.39993868  1
  N  N434  1  0.18600102  0.77773222  0.39838525  1
  N  N435  1  0.67851878  0.10981531  0.39841064  1
  N  N436  1  0.68635037  0.44410592  0.40294414  1
  N  N437  1  0.68564665  0.77645204  0.40346419  1
  N  N438  1  0.31886305  0.22329395  0.89587062  1
  N  N439  1  0.30316392  0.55483473  0.91051117  1
  N  N440  1  0.31231321  0.88963408  0.90007150  1
  N  N441  1  0.81299153  0.22667952  0.91254252  1
  N  N442  1  0.80099366  0.55705244  0.90880048  1
  N  N443  1  0.81025990  0.89405405  0.90835362  1
  N  N444  1  0.31404472  0.11034731  0.09951546  1
  N  N445  1  0.32832019  0.44411040  0.10644139  1
  N  N446  1  0.31731189  0.78160331  0.09726737  1
  N  N447  1  0.80249797  0.11157240  0.08664828  1
  N  N448  1  0.82598038  0.44472165  0.10110952  1
  N  N449  1  0.82124535  0.77885117  0.10574484  1
  N  N450  1  0.18493021  0.22510477  0.59427548  1
  N  N451  1  0.19171153  0.55902785  0.59741479  1
  N  N452  1  0.17551079  0.88779899  0.59675261  1
  N  N453  1  0.68147208  0.22142672  0.60801462  1
  N  N454  1  0.70199775  0.55617734  0.58377052  1
  N  N455  1  0.67502154  0.88947512  0.60118221  1
  Cl  Cl456  1  0.25903970  0.05685965  0.60397839  1
  Cl  Cl457  1  0.24699086  0.39741505  0.60274640  1
  Cl  Cl458  1  0.25166638  0.71720516  0.62621672  1
  Cl  Cl459  1  0.76170441  0.05143723  0.61695684  1
  Cl  Cl460  1  0.75164187  0.38473071  0.62764384  1
  Cl  Cl461  1  0.74890529  0.71311343  0.62120112  1
  Cl  Cl462  1  0.24734644  0.27471592  0.10674175  1
  Cl  Cl463  1  0.27221231  0.60196497  0.10323208  1
  Cl  Cl464  1  0.25375038  0.94664489  0.11017733  1
  Cl  Cl465  1  0.75007619  0.28388727  0.12660069  1
  Cl  Cl466  1  0.76577073  0.60900142  0.11551015  1
  Cl  Cl467  1  0.75271915  0.94971890  0.12121309  1
  Cl  Cl468  1  0.25484062  0.05201055  0.87178061  1
  Cl  Cl469  1  0.23417916  0.39139282  0.88072156  1
  Cl  Cl470  1  0.24505606  0.72131071  0.89281376  1
  Cl  Cl471  1  0.75878275  0.05843110  0.89747297  1
  Cl  Cl472  1  0.74267926  0.38769376  0.89267036  1
  Cl  Cl473  1  0.74443639  0.71992586  0.88732970  1
  Cl  Cl474  1  0.25459480  0.28577725  0.37164708  1
  Cl  Cl475  1  0.23764354  0.60815024  0.38177562  1
  Cl  Cl476  1  0.25580704  0.95572735  0.37628022  1
  Cl  Cl477  1  0.75632207  0.27885962  0.39171338  1
  Cl  Cl478  1  0.73937739  0.60333921  0.39337736  1
  Cl  Cl479  1  0.76657989  0.93869093  0.39836093  1
  Cl  Cl480  1  -0.00431606  0.22435095  0.61493475  1
  Cl  Cl481  1  0.00920358  0.55401687  0.61891579  1
  Cl  Cl482  1  -0.01265051  0.89609908  0.60515091  1
  Cl  Cl483  1  0.49490041  0.22096126  0.61462335  1
  Cl  Cl484  1  0.51513980  0.56155479  0.60461211  1
  Cl  Cl485  1  0.48806509  0.88968082  0.61085471  1
  Cl  Cl486  1  -0.01047365  0.10817472  0.09984416  1
  Cl  Cl487  1  0.01549469  0.43595927  0.10783850  1
  Cl  Cl488  1  0.00519250  0.77556856  0.11644415  1
  Cl  Cl489  1  0.49455217  0.11047745  0.11364319  1
  Cl  Cl490  1  0.51527218  0.44729286  0.11749763  1
  Cl  Cl491  1  0.50749444  0.77379133  0.10557302  1
  Cl  Cl492  1  0.00351003  0.22137514  0.88531304  1
  Cl  Cl493  1  -0.01331567  0.54974654  0.88647689  1
  Cl  Cl494  1  -0.00438878  0.88616446  0.88048735  1
  Cl  Cl495  1  0.50179355  0.21438446  0.87650459  1
  Cl  Cl496  1  0.48454877  0.55902265  0.89750934  1
  Cl  Cl497  1  0.49822263  0.88692486  0.88018510  1
  Cl  Cl498  1  -0.00679412  0.11346127  0.37524943  1
  Cl  Cl499  1  0.00317565  0.44116407  0.38528556  1
  Cl  Cl500  1  0.00012897  0.78075298  0.38485623  1
  Cl  Cl501  1  0.49484965  0.10913473  0.37711284  1
  Cl  Cl502  1  0.49853654  0.44864556  0.38494995  1
  Cl  Cl503  1  0.49924647  0.78128431  0.37657661  1
  Cl  Cl504  1  0.36067538  0.14682643  0.75014960  1
  Cl  Cl505  1  0.35642569  0.48220673  0.75164041  1
  Cl  Cl506  1  0.35727998  0.81617639  0.75402077  1
  Cl  Cl507  1  0.85964627  0.14871797  0.75469695  1
  Cl  Cl508  1  0.85835232  0.48040828  0.74627349  1
  Cl  Cl509  1  0.85614848  0.81061240  0.75268441  1
  Cl  Cl510  1  0.13961561  0.18590544  0.25107112  1
  Cl  Cl511  1  0.14019172  0.51991311  0.24116646  1
  Cl  Cl512  1  0.13859845  0.85552668  0.25044255  1
  Cl  Cl513  1  0.63806234  0.18688705  0.25073778  1
  Cl  Cl514  1  0.64501153  0.51818706  0.24795814  1
  Cl  Cl515  1  0.64107511  0.85340276  0.24858166  1
  Cl  Cl516  1  0.13956786  0.14608186  0.74851123  1
  Cl  Cl517  1  0.13981523  0.47992280  0.75151566  1
  Cl  Cl518  1  0.13527349  0.81358157  0.74666068  1
  Cl  Cl519  1  0.63588951  0.14423995  0.74671705  1
  Cl  Cl520  1  0.63511478  0.48048610  0.75359075  1
  Cl  Cl521  1  0.63937657  0.81069376  0.75061855  1
  Cl  Cl522  1  0.36035781  0.18436741  0.25177474  1
  Cl  Cl523  1  0.35931271  0.52082052  0.25055310  1
  Cl  Cl524  1  0.36088244  0.85158745  0.24824025  1
  Cl  Cl525  1  0.85806573  0.18370397  0.24881357  1
  Cl  Cl526  1  0.86695587  0.52000152  0.25140545  1
  Cl  Cl527  1  0.86357873  0.85222712  0.24502604  1
  Cl  Cl528  1  0.10718348  0.31703131  0.75066291  1
  Cl  Cl529  1  0.10948892  0.64713334  0.75490793  1
  Cl  Cl530  1  0.10639195  0.97830006  0.75100569  1
  Cl  Cl531  1  0.61109688  0.31265626  0.74585859  1
  Cl  Cl532  1  0.60566624  0.64258891  0.76076951  1
  Cl  Cl533  1  0.61492083  0.97775346  0.74837772  1
  Cl  Cl534  1  0.39476665  0.01628746  0.24784979  1
  Cl  Cl535  1  0.38898377  0.35532193  0.24446982  1
  Cl  Cl536  1  0.39340680  0.68395791  0.24774773  1
  Cl  Cl537  1  0.89204877  0.01798250  0.25250995  1
  Cl  Cl538  1  0.88974215  0.35355105  0.24374122  1
  Cl  Cl539  1  0.89034176  0.68668809  0.25089149  1
  Cl  Cl540  1  0.39095885  0.31432834  0.75532965  1
  Cl  Cl541  1  0.38805996  0.64724442  0.75080921  1
  Cl  Cl542  1  0.39455373  0.98364478  0.74962170  1
  Cl  Cl543  1  0.88585337  0.31342360  0.75488418  1
  Cl  Cl544  1  0.89052462  0.64623373  0.75241671  1
  Cl  Cl545  1  0.88577571  0.98082788  0.75303402  1
  Cl  Cl546  1  0.11177430  0.01988616  0.25073344  1
  Cl  Cl547  1  0.11222349  0.35100190  0.25439517  1
  Cl  Cl548  1  0.10927331  0.68584202  0.24677210  1
  Cl  Cl549  1  0.61580733  0.02066923  0.24831259  1
  Cl  Cl550  1  0.60848105  0.35164876  0.24992722  1
  Cl  Cl551  1  0.61539874  0.68576154  0.24478673  1
