# generated using pymatgen
data_H8PbC4(N3Cl2)2
_symmetry_space_group_name_H-M   'P 1'
_cell_length_a   16.63348809
_cell_length_b   22.53312063
_cell_length_c   21.60442374
_cell_angle_alpha   90.00337415
_cell_angle_beta   90.00538300
_cell_angle_gamma   89.99458715
_symmetry_Int_Tables_number   1
_chemical_formula_structural   H8PbC4(N3Cl2)2
_chemical_formula_sum   'H192 Pb24 C96 N144 Cl96'
_cell_volume   8097.43285218
_cell_formula_units_Z   24
loop_
 _symmetry_equiv_pos_site_id
 _symmetry_equiv_pos_as_xyz
  1  'x, y, z'
loop_
 _atom_site_type_symbol
 _atom_site_label
 _atom_site_symmetry_multiplicity
 _atom_site_fract_x
 _atom_site_fract_y
 _atom_site_fract_z
 _atom_site_occupancy
  H  H0  1  -0.00578461  0.02370603  0.67422708  1
  H  H1  1  -0.00401725  0.36019700  0.67596250  1
  H  H2  1  -0.01288490  0.68917060  0.67891987  1
  H  H3  1  0.50299123  0.02120827  0.67275737  1
  H  H4  1  0.49333008  0.36283425  0.68226123  1
  H  H5  1  0.50001699  0.69346367  0.67754792  1
  H  H6  1  0.00041735  0.30881522  0.17649184  1
  H  H7  1  0.00999181  0.63483346  0.18258205  1
  H  H8  1  -0.00129863  0.97727269  0.17002877  1
  H  H9  1  0.50680297  0.30935097  0.17385458  1
  H  H10  1  0.49560118  0.63919546  0.17459601  1
  H  H11  1  0.50487724  0.97556538  0.18159690  1
  H  H12  1  0.00907620  0.02504779  0.82515961  1
  H  H13  1  0.00736026  0.35985499  0.82343690  1
  H  H14  1  0.00947546  0.69689237  0.82051957  1
  H  H15  1  0.49755713  0.03212530  0.81388716  1
  H  H16  1  0.48946838  0.37161737  0.84785050  1
  H  H17  1  0.48464748  0.69259185  0.82147728  1
  H  H18  1  -0.01029638  0.31351134  0.32557245  1
  H  H19  1  -0.00330384  0.63822059  0.32096800  1
  H  H20  1  0.00667606  0.97224028  0.32525118  1
  H  H21  1  0.52444989  0.29695889  0.33998688  1
  H  H22  1  0.48761098  0.64135748  0.32069430  1
  H  H23  1  0.48252059  0.98163164  0.32610070  1
  H  H24  1  0.24474840  0.19372337  0.68124488  1
  H  H25  1  0.24375607  0.53104065  0.68168772  1
  H  H26  1  0.26334584  0.85893768  0.67453526  1
  H  H27  1  0.72069294  0.19864060  0.65706315  1
  H  H28  1  0.76015840  0.52667695  0.67759699  1
  H  H29  1  0.75541783  0.86341153  0.68176844  1
  H  H30  1  0.23250721  0.13654045  0.17573617  1
  H  H31  1  0.25974926  0.46308888  0.15331790  1
  H  H32  1  0.23733336  0.80686630  0.17814959  1
  H  H33  1  0.74595247  0.13262180  0.17360969  1
  H  H34  1  0.74882684  0.47674218  0.17284876  1
  H  H35  1  0.74460425  0.80207991  0.17915368  1
  H  H36  1  0.24591886  0.19050721  0.83057187  1
  H  H37  1  0.23638532  0.52145163  0.82734062  1
  H  H38  1  0.26527630  0.86479420  0.82286180  1
  H  H39  1  0.74233494  0.19462969  0.82243704  1
  H  H40  1  0.74932508  0.52366977  0.81971577  1
  H  H41  1  0.72616306  0.86257557  0.81913538  1
  H  H42  1  0.24242593  0.14234651  0.32474067  1
  H  H43  1  0.25506729  0.47651583  0.32232405  1
  H  H44  1  0.25966307  0.80156575  0.32209754  1
  H  H45  1  0.75864783  0.14119801  0.32618322  1
  H  H46  1  0.74874413  0.47340518  0.32201348  1
  H  H47  1  0.74795453  0.80413276  0.32065021  1
  H  H48  1  0.13180173  0.05240962  0.62404633  1
  H  H49  1  0.13025920  0.38359199  0.61468458  1
  H  H50  1  0.12487214  0.71631550  0.62388952  1
  H  H51  1  0.62790377  0.05595359  0.60715124  1
  H  H52  1  0.63260359  0.38141854  0.62982008  1
  H  H53  1  0.63394735  0.71808724  0.61646172  1
  H  H54  1  0.36470567  0.28969560  0.12521330  1
  H  H55  1  0.36520203  0.60879401  0.11204192  1
  H  H56  1  0.37700155  0.95025889  0.11410371  1
  H  H57  1  0.86658601  0.27765852  0.11981271  1
  H  H58  1  0.86891139  0.61883522  0.13267486  1
  H  H59  1  0.87757451  0.94592165  0.10104721  1
  H  H60  1  0.36986249  0.05608563  0.88455260  1
  H  H61  1  0.34786441  0.38679018  0.89616463  1
  H  H62  1  0.36851172  0.72211936  0.89731564  1
  H  H63  1  0.87014818  0.04845377  0.87771769  1
  H  H64  1  0.86864727  0.38538855  0.87979717  1
  H  H65  1  0.86900446  0.71479546  0.87053410  1
  H  H66  1  0.12993307  0.28452020  0.37359481  1
  H  H67  1  0.13033428  0.61687584  0.37769899  1
  H  H68  1  0.13182248  0.94428412  0.39320609  1
  H  H69  1  0.65910689  0.27556816  0.39707540  1
  H  H70  1  0.62439231  0.61620500  0.37827282  1
  H  H71  1  0.62557213  0.95437953  0.37071057  1
  H  H72  1  0.36420680  0.21690865  0.60858926  1
  H  H73  1  0.36062570  0.55731451  0.60398434  1
  H  H74  1  0.35967801  0.89626534  0.58732547  1
  H  H75  1  0.83017600  0.23163555  0.57890069  1
  H  H76  1  0.86736730  0.55599316  0.59722259  1
  H  H77  1  0.86902302  0.88779893  0.60384686  1
  H  H78  1  0.12711875  0.10503311  0.09465238  1
  H  H79  1  0.15791944  0.43285705  0.06893557  1
  H  H80  1  0.13491010  0.77426790  0.09281966  1
  H  H81  1  0.63837569  0.11110286  0.08887842  1
  H  H82  1  0.63487882  0.44301253  0.09730555  1
  H  H83  1  0.63298954  0.77660646  0.10085040  1
  H  H84  1  0.13776230  0.22779084  0.90837060  1
  H  H85  1  0.13952608  0.55908411  0.91260440  1
  H  H86  1  0.12150829  0.88439372  0.87159491  1
  H  H87  1  0.64116166  0.22750172  0.90833684  1
  H  H88  1  0.63114985  0.55186501  0.89603333  1
  H  H89  1  0.62684848  0.88927911  0.90633130  1
  H  H90  1  0.36999298  0.11524851  0.39244541  1
  H  H91  1  0.36133701  0.44305543  0.40281637  1
  H  H92  1  0.36710212  0.77475649  0.40279316  1
  H  H93  1  0.86414593  0.10738630  0.40854887  1
  H  H94  1  0.86657670  0.44568828  0.39780178  1
  H  H95  1  0.85807736  0.77603239  0.40225178  1
  H  H96  1  0.41190018  0.26943661  0.41711668  1
  H  H97  1  0.37765206  0.61030656  0.39957002  1
  H  H98  1  0.38533562  0.94392099  0.41267861  1
  H  H99  1  0.88827159  0.27800435  0.40915897  1
  H  H100  1  0.88326434  0.61104168  0.39850215  1
  H  H101  1  0.88340800  0.94419260  0.39368566  1
  H  H102  1  0.11533305  0.06185809  0.90590019  1
  H  H103  1  0.11433789  0.39189403  0.90599049  1
  H  H104  1  0.11356071  0.72347258  0.90475345  1
  H  H105  1  0.61819113  0.05617084  0.88911480  1
  H  H106  1  0.59066619  0.40173360  0.93281292  1
  H  H107  1  0.61681091  0.71706948  0.88437240  1
  H  H108  1  0.11336412  0.27722182  0.10023025  1
  H  H109  1  0.11288123  0.60510436  0.09871188  1
  H  H110  1  0.12577580  0.94838059  0.10459906  1
  H  H111  1  0.60749069  0.27438029  0.08903926  1
  H  H112  1  0.61267263  0.60787082  0.09960106  1
  H  H113  1  0.62610326  0.94758351  0.11128074  1
  H  H114  1  0.37956987  0.05554837  0.60736582  1
  H  H115  1  0.38683098  0.38751332  0.59902869  1
  H  H116  1  0.38712651  0.72684774  0.60077209  1
  H  H117  1  0.88667749  0.05908511  0.59397253  1
  H  H118  1  0.88325012  0.39225690  0.59763885  1
  H  H119  1  0.87866682  0.72060030  0.59858094  1
  H  H120  1  0.12188419  0.11001358  0.39696230  1
  H  H121  1  0.11542436  0.45161372  0.37462319  1
  H  H122  1  0.12131559  0.78388671  0.37562046  1
  H  H123  1  0.61916682  0.11495438  0.37668842  1
  H  H124  1  0.61818894  0.44835318  0.38525489  1
  H  H125  1  0.61142804  0.78473030  0.37800940  1
  H  H126  1  0.38271368  0.21577604  0.88541566  1
  H  H127  1  0.38137531  0.54113895  0.87243191  1
  H  H128  1  0.36447601  0.89480842  0.90985411  1
  H  H129  1  0.88329597  0.22074797  0.87152493  1
  H  H130  1  0.87879210  0.55258128  0.88426894  1
  H  H131  1  0.86880617  0.88167763  0.86458476  1
  H  H132  1  0.37064927  0.12160364  0.12444050  1
  H  H133  1  0.40073403  0.44679081  0.10465022  1
  H  H134  1  0.37774279  0.78263904  0.12787751  1
  H  H135  1  0.88390139  0.11036435  0.11913928  1
  H  H136  1  0.88231085  0.44823489  0.11180849  1
  H  H137  1  0.88075537  0.78355830  0.12088234  1
  H  H138  1  0.11668845  0.21609886  0.61822683  1
  H  H139  1  0.11218840  0.55276471  0.61823351  1
  H  H140  1  0.11943274  0.88385484  0.63007320  1
  H  H141  1  0.58357108  0.21666604  0.60308649  1
  H  H142  1  0.62181640  0.54714356  0.62524476  1
  H  H143  1  0.62182473  0.88651008  0.62422843  1
  H  H144  1  0.21657516  0.74630230  -0.00428899  1
  H  H145  1  0.42370157  0.93164061  0.00563512  1
  H  H146  1  0.69626412  0.74364043  -0.00556386  1
  H  H147  1  0.22318896  0.58208198  1.01044383  1
  H  H148  1  0.84510540  0.41981038  0.00577621  1
  H  H149  1  0.03977747  0.57821313  -0.00496025  1
  H  H150  1  0.63951422  0.57821133  0.51156505  1
  H  H151  1  0.64851813  0.91484950  0.51011127  1
  H  H152  1  0.88106846  0.58967866  1.01821008  1
  H  H153  1  0.52864462  0.25251657  -0.01031164  1
  H  H154  1  0.21280084  0.24954883  1.01061270  1
  H  H155  1  0.80970698  0.91567499  0.49646950  1
  H  H156  1  0.46986973  0.23691572  0.52330812  1
  H  H157  1  0.89600189  0.25424015  0.01000071  1
  H  H158  1  0.87932839  0.74516458  0.98597679  1
  H  H159  1  0.61728523  0.41034594  0.51519749  1
  H  H160  1  0.94914291  0.75290033  0.49611275  1
  H  H161  1  0.47175898  0.91759144  0.50824116  1
  H  H162  1  0.27253378  0.92093152  0.49228555  1
  H  H163  1  0.42861012  0.75386407  1.00183081  1
  H  H164  1  0.76669817  0.26213135  0.47355416  1
  H  H165  1  0.28318938  0.92542768  1.00900284  1
  H  H166  1  0.40218125  0.57972690  0.00465840  1
  H  H167  1  0.08576907  0.91586969  0.49880511  1
  H  H168  1  0.86364149  0.90760882  0.97979339  1
  H  H169  1  0.15219991  0.24398247  0.50405348  1
  H  H170  1  0.29919522  0.74257099  0.50761479  1
  H  H171  1  0.10612991  0.58487014  0.49205172  1
  H  H172  1  0.86280444  0.08845013  0.00755949  1
  H  H173  1  0.35552262  0.08544286  1.01030468  1
  H  H174  1  0.71277838  0.07181282  -0.00465455  1
  H  H175  1  0.45608821  0.41531772  0.49447116  1
  H  H176  1  0.96109829  0.08867078  0.49485281  1
  H  H177  1  0.96842626  0.24940522  0.50704723  1
  H  H178  1  0.08236027  0.91801171  -0.00113503  1
  H  H179  1  0.04986724  0.24596424  -0.00605570  1
  H  H180  1  0.72225066  0.25273898  1.00574322  1
  H  H181  1  0.79857856  0.58427172  0.49141830  1
  H  H182  1  0.13969471  0.75056674  0.48853115  1
  H  H183  1  0.57542574  0.91382473  0.00310089  1
  H  H184  1  0.78746360  0.08053150  0.50775517  1
  H  H185  1  0.13698168  0.42168132  0.48297455  1
  H  H186  1  0.35970188  0.25377082  0.99365677  1
  H  H187  1  0.44635364  0.57878311  0.50362942  1
  H  H188  1  0.04097800  0.75101783  1.00839087  1
  H  H189  1  0.60239881  0.74980694  0.50961232  1
  H  H190  1  0.70549221  0.91238917  1.00962031  1
  H  H191  1  0.29050359  0.40895597  0.50513933  1
  Pb  Pb192  1  0.24792321  0.04875047  0.75974671  1
  Pb  Pb193  1  0.25628731  0.38160617  0.74500599  1
  Pb  Pb194  1  0.25035981  0.71627309  0.75546704  1
  Pb  Pb195  1  0.75534593  0.05239582  0.74553370  1
  Pb  Pb196  1  0.74972548  0.38200330  0.75569132  1
  Pb  Pb197  1  0.74695521  0.71529167  0.74548871  1
  Pb  Pb198  1  0.25174477  0.28477187  0.25230766  1
  Pb  Pb199  1  0.25221166  0.61360993  0.24428591  1
  Pb  Pb200  1  0.25523148  0.94946205  0.25512992  1
  Pb  Pb201  1  0.75115764  0.28277791  0.23931895  1
  Pb  Pb202  1  0.74789542  0.61735591  0.25126584  1
  Pb  Pb203  1  0.75300834  0.95242340  0.24834897  1
  Pb  Pb204  1  0.00211186  0.21814241  0.74146399  1
  Pb  Pb205  1  0.00129415  0.54978506  0.75320828  1
  Pb  Pb206  1  -0.00349084  0.88119659  0.74491566  1
  Pb  Pb207  1  0.50362094  0.21578095  0.76389063  1
  Pb  Pb208  1  0.50050236  0.54753786  0.74673885  1
  Pb  Pb209  1  0.49824568  0.88452268  0.76272297  1
  Pb  Pb210  1  0.00303190  0.11669425  0.25718327  1
  Pb  Pb211  1  0.00077536  0.45135764  0.24275537  1
  Pb  Pb212  1  -0.00073969  0.78426798  0.25192194  1
  Pb  Pb213  1  0.50254199  0.12011150  0.24159285  1
  Pb  Pb214  1  0.50101551  0.44774637  0.25500102  1
  Pb  Pb215  1  0.50274215  0.78371883  0.25015320  1
  C  C216  1  0.00401573  0.04323457  0.62911922  1
  C  C217  1  0.00325968  0.37766046  0.62944218  1
  C  C218  1  -0.00268313  0.70800399  0.63332156  1
  C  C219  1  0.50387296  0.04297318  0.62826367  1
  C  C220  1  0.50490295  0.37705863  0.63498471  1
  C  C221  1  0.50749017  0.71163506  0.63141481  1
  C  C222  1  -0.00772520  0.29071267  0.13028771  1
  C  C223  1  -0.00345527  0.62023677  0.13572187  1
  C  C224  1  0.00132727  0.95843715  0.12390158  1
  C  C225  1  0.49293458  0.29301967  0.12776746  1
  C  C226  1  0.49044118  0.62058625  0.12845504  1
  C  C227  1  0.50179117  0.95942765  0.13423767  1
  C  C228  1  -0.00185399  0.04444999  0.87016606  1
  C  C229  1  -0.00342675  0.37807240  0.86924993  1
  C  C230  1  -0.00339152  0.71172674  0.86736919  1
  C  C231  1  0.49493251  0.04721564  0.86165610  1
  C  C232  1  0.47527113  0.38648529  0.89432563  1
  C  C233  1  0.49007663  0.70996790  0.86804468  1
  C  C234  1  0.00258223  0.29384770  0.37021896  1
  C  C235  1  0.00426459  0.62256851  0.36798773  1
  C  C236  1  0.00793341  0.95465308  0.37185648  1
  C  C237  1  0.53212170  0.28112784  0.38725547  1
  C  C238  1  0.49688471  0.62374079  0.36693799  1
  C  C239  1  0.49765556  0.96168058  0.37027298  1
  C  C240  1  0.24102643  0.20878612  0.63375201  1
  C  C241  1  0.23909626  0.54593956  0.63423277  1
  C  C242  1  0.24733997  0.87772147  0.62996088  1
  C  C243  1  0.71108376  0.21487421  0.61021341  1
  C  C244  1  0.74918930  0.54270781  0.63087406  1
  C  C245  1  0.74820208  0.87867667  0.63438669  1
  C  C246  1  0.24457862  0.12062646  0.12936478  1
  C  C247  1  0.27353294  0.44815867  0.10684638  1
  C  C248  1  0.24967694  0.78871617  0.13265204  1
  C  C249  1  0.75634143  0.11784973  0.12630210  1
  C  C250  1  0.75593575  0.45748287  0.12717653  1
  C  C251  1  0.75256262  0.78694857  0.13186427  1
  C  C252  1  0.25579775  0.21036948  0.87587015  1
  C  C253  1  0.25229939  0.53911659  0.87249517  1
  C  C254  1  0.24997520  0.88017791  0.86906923  1
  C  C255  1  0.75562857  0.21189926  0.86820805  1
  C  C256  1  0.75317142  0.54139371  0.86631492  1
  C  C257  1  0.74136129  0.87701875  0.86566721  1
  C  C258  1  0.24461330  0.12393607  0.37109133  1
  C  C259  1  0.24320241  0.45846322  0.36810509  1
  C  C260  1  0.24868292  0.78629481  0.36910017  1
  C  C261  1  0.74755464  0.12278233  0.37166256  1
  C  C262  1  0.74453328  0.45656787  0.36876387  1
  C  C263  1  0.73917751  0.78879549  0.36761869  1
  C  C264  1  0.58747321  0.25368138  0.47704420  1
  C  C265  1  0.26222519  0.42354045  0.46227063  1
  C  C266  1  0.73404136  0.24746972  0.51453503  1
  C  C267  1  0.65160440  0.24173839  0.52180819  1
  C  C268  1  0.50479546  0.25069220  0.48322175  1
  C  C269  1  0.56732680  0.40144277  0.54795606  1
  C  C270  1  0.25810192  0.91114139  0.96481050  1
  C  C271  1  0.32301943  0.56781140  0.95390130  1
  C  C272  1  0.77552684  0.90532504  0.53805715  1
  C  C273  1  0.01145160  0.59154258  0.03838621  1
  C  C274  1  0.94080931  0.07626683  0.95486754  1
  C  C275  1  0.48646594  0.40377716  0.53740317  1
  C  C276  1  0.68783918  0.56919702  0.54438221  1
  C  C277  1  0.73111176  0.90218099  0.96463193  1
  C  C278  1  0.42609798  0.26660695  0.04360495  1
  C  C279  1  0.01202872  0.73926474  0.96481533  1
  C  C280  1  0.18782623  0.75932974  0.45559397  1
  C  C281  1  0.46327726  0.74150736  0.96126863  1
  C  C282  1  0.25724863  0.41740025  0.00918178  1
  C  C283  1  0.33992780  0.42256928  0.02063950  1
  C  C284  1  0.76888062  0.57196729  0.53432407  1
  C  C285  1  0.69382137  0.90517531  0.54506307  1
  C  C286  1  0.46703999  0.08319438  0.54073444  1
  C  C287  1  0.97731994  0.59213677  0.46262984  1
  C  C288  1  0.30663647  0.09371653  0.04269966  1
  C  C289  1  0.69871522  0.42610157  0.45814055  1
  C  C290  1  0.06574680  0.07989873  0.54644231  1
  C  C291  1  0.72945597  0.75690707  0.03555124  1
  C  C292  1  0.40807921  0.41220907  0.98011668  1
  C  C293  1  0.96732459  0.92066508  0.46326978  1
  C  C294  1  0.93142206  0.73628093  0.95320917  1
  C  C295  1  0.96255773  0.92390044  0.03203684  1
  C  C296  1  0.68487071  0.76291322  0.45560739  1
  C  C297  1  0.01880273  0.25790526  0.03651367  1
  C  C298  1  0.47652432  0.59159511  0.46092751  1
  C  C299  1  0.97872300  0.74042161  0.53923075  1
  C  C300  1  0.49070749  0.41732219  0.99200110  1
  C  C301  1  0.68413594  0.08785878  0.45458877  1
  C  C302  1  0.53945933  0.92775898  0.04246852  1
  C  C303  1  0.81086369  0.89954542  0.95008928  1
  C  C304  1  0.27636665  0.23516062  0.53928330  1
  C  C305  1  0.22604118  0.08859429  0.03369204  1
  C  C306  1  0.05846682  0.59435789  0.45739860  1
  C  C307  1  0.26896340  0.75586173  0.46521695  1
  C  C308  1  0.19493232  0.23482071  0.54111200  1
  C  C309  1  0.93097885  0.59690511  0.05003314  1
  C  C310  1  0.81016122  0.76051751  0.04361683  1
  C  C311  1  0.19175071  0.57206791  0.54388523  1
  N  N312  1  0.44525827  0.58776530  0.04138167  1
  N  N313  1  0.45327420  0.07348046  0.95445456  1
  N  N314  1  0.98777123  0.08055838  0.53725443  1
  N  N315  1  0.77593279  0.42459242  0.46346635  1
  N  N316  1  0.72557250  0.42314752  0.03433602  1
  N  N317  1  0.26892657  0.57398938  0.53779770  1
  N  N318  1  0.28650355  0.09087179  0.46148400  1
  N  N319  1  0.56716373  0.92808622  0.44939543  1
  N  N320  1  0.82115065  0.24363503  0.95008036  1
  N  N321  1  0.99122870  0.25688850  0.46196938  1
  N  N322  1  0.50373502  0.26107534  0.03329928  1
  N  N323  1  0.52956447  0.07412563  0.95610652  1
  N  N324  1  0.79867453  0.57449890  0.95541024  1
  N  N325  1  0.17632062  0.90964458  0.55065429  1
  N  N326  1  0.73813420  0.09798500  0.02917601  1
  N  N327  1  0.05705842  0.73965388  0.54791553  1
  N  N328  1  0.54436157  0.08377573  0.53963740  1
  N  N329  1  0.18397639  0.42634186  0.45140986  1
  N  N330  1  0.05472692  0.40971049  0.54208079  1
  N  N331  1  0.76185998  0.08725395  0.46459146  1
  N  N332  1  0.74466531  0.24636062  0.96094909  1
  N  N333  1  0.72275165  0.57459507  0.95923490  1
  N  N334  1  0.81501421  0.08891260  0.04213095  1
  N  N335  1  0.54225086  0.73965379  0.95763078  1
  N  N336  1  0.01728865  0.08191412  0.96455149  1
  N  N337  1  0.52293904  0.58724512  0.03591943  1
  N  N338  1  0.31300702  0.24173765  0.95943132  1
  N  N339  1  0.49135919  0.92479688  0.46224114  1
  N  N340  1  0.93984204  0.40985217  0.95506373  1
  N  N341  1  0.97874460  0.41286095  0.53645155  1
  N  N342  1  0.01573364  0.41171558  0.96383588  1
  N  N343  1  0.80319311  0.42557505  0.04080808  1
  N  N344  1  0.23561756  0.25074377  0.96569268  1
  N  N345  1  0.45977149  0.92963756  0.04397345  1
  N  N346  1  0.47924574  0.74515882  0.53800815  1
  N  N347  1  0.25223203  0.91373865  0.53761181  1
  N  N348  1  0.06764092  0.25835763  0.45058343  1
  N  N349  1  0.04624948  0.92260490  0.46226367  1
  N  N350  1  0.31585022  0.75779668  0.05027869  1
  N  N351  1  0.55505311  0.59247819  0.45315991  1
  N  N352  1  0.93987093  0.25812778  0.04438380  1
  N  N353  1  0.04163957  0.92596442  0.03422492  1
  N  N354  1  0.76171077  0.75970592  0.46466948  1
  N  N355  1  0.24596558  0.57429306  0.96612119  1
  N  N356  1  0.23900738  0.75418612  0.04000711  1
  N  N357  1  0.55689482  0.74182916  0.54469971  1
  N  N358  1  0.21056246  0.08871993  0.46265225  1
  N  N359  1  0.18076371  0.90666732  0.95253242  1
  N  N360  1  0.07598638  0.05783408  0.60365728  1
  N  N361  1  0.07144719  0.38786906  0.59964372  1
  N  N362  1  0.06712211  0.71965654  0.60663937  1
  N  N363  1  0.56770547  0.05794705  0.59536734  1
  N  N364  1  0.57701327  0.38487548  0.60870223  1
  N  N365  1  0.57513697  0.72051961  0.60084923  1
  N  N366  1  0.41904465  0.28507273  0.10295295  1
  N  N367  1  0.42402271  0.60947464  0.09693443  1
  N  N368  1  0.43678695  0.95276642  0.09970584  1
  N  N369  1  0.92348747  0.28128311  0.10125430  1
  N  N370  1  0.92339374  0.61443049  0.11040703  1
  N  N371  1  0.93748006  0.94317199  0.08803804  1
  N  N372  1  0.43043837  0.05632998  0.89624796  1
  N  N373  1  0.40241405  0.39306417  0.91842945  1
  N  N374  1  0.42959136  0.72392814  0.90648658  1
  N  N375  1  0.92640635  0.05404804  0.89699851  1
  N  N376  1  0.92687726  0.38940868  0.89633479  1
  N  N377  1  0.92383716  0.71960075  0.89242129  1
  N  N378  1  0.07419115  0.27965853  0.39302765  1
  N  N379  1  0.07369143  0.61318370  0.39708644  1
  N  N380  1  0.07207869  0.94472611  0.40629546  1
  N  N381  1  0.60189273  0.27271250  0.41629197  1
  N  N382  1  0.56616537  0.61243349  0.39456367  1
  N  N383  1  0.57060936  0.94869541  0.39134852  1
  N  N384  1  0.30362610  0.21964126  0.59504245  1
  N  N385  1  0.29858028  0.55693091  0.59556806  1
  N  N386  1  0.29671307  0.89178093  0.58433024  1
  N  N387  1  0.76839004  0.23069064  0.56955902  1
  N  N388  1  0.80566990  0.55538039  0.58847963  1
  N  N389  1  0.80771844  0.88882178  0.59393877  1
  N  N390  1  0.18882434  0.10479190  0.08598130  1
  N  N391  1  0.21927538  0.43289285  0.06146814  1
  N  N392  1  0.19741314  0.77535568  0.08876722  1
  N  N393  1  0.70085180  0.10577108  0.08419372  1
  N  N394  1  0.69679074  0.44207599  0.08884993  1
  N  N395  1  0.69449238  0.77398940  0.09174047  1
  N  N396  1  0.19965237  0.22379881  0.91714795  1
  N  N397  1  0.20160133  0.55354676  0.91697104  1
  N  N398  1  0.17756142  0.88739760  0.89281758  1
  N  N399  1  0.70346959  0.22398176  0.91265388  1
  N  N400  1  0.69295650  0.55357190  0.90436792  1
  N  N401  1  0.68878551  0.88811534  0.91151231  1
  N  N402  1  0.30929978  0.11313339  0.40502743  1
  N  N403  1  0.29928562  0.44272221  0.41032204  1
  N  N404  1  0.30535456  0.77280249  0.41103799  1
  N  N405  1  0.80205519  0.11088553  0.41452776  1
  N  N406  1  0.80462007  0.44453810  0.40658602  1
  N  N407  1  0.79548558  0.77633946  0.40857382  1
  N  N408  1  0.47286314  0.26818318  0.42738994  1
  N  N409  1  0.43943893  0.61061136  0.40833554  1
  N  N410  1  0.44764737  0.94777109  0.41566705  1
  N  N411  1  0.95044314  0.28091340  0.41438699  1
  N  N412  1  0.94467165  0.60926497  0.40890696  1
  N  N413  1  0.94339045  0.94029633  0.40729828  1
  N  N414  1  0.05280448  0.06170995  0.91061374  1
  N  N415  1  0.05184187  0.39198937  0.91105537  1
  N  N416  1  0.05136107  0.72397426  0.91103597  1
  N  N417  1  0.55668980  0.05819687  0.89870872  1
  N  N418  1  0.52922261  0.40148775  0.94010133  1
  N  N419  1  0.55707568  0.71973628  0.89946804  1
  N  N420  1  0.05152642  0.27693873  0.09015693  1
  N  N421  1  0.05083166  0.60652719  0.09212742  1
  N  N422  1  0.06607406  0.94854752  0.09034113  1
  N  N423  1  0.54548320  0.28021495  0.08403154  1
  N  N424  1  0.55075809  0.60694614  0.09040369  1
  N  N425  1  0.56563991  0.94472669  0.09876585  1
  N  N426  1  0.43947365  0.05910841  0.59416439  1
  N  N427  1  0.44877917  0.38835030  0.59193408  1
  N  N428  1  0.44894828  0.72720317  0.59253675  1
  N  N429  1  0.94866616  0.05578251  0.58717095  1
  N  N430  1  0.94546326  0.39300706  0.59037320  1
  N  N431  1  0.94069599  0.72148790  0.59140539  1
  N  N432  1  0.18285091  0.10880443  0.40650276  1
  N  N433  1  0.17252901  0.44976751  0.39424491  1
  N  N434  1  0.17678446  0.77792319  0.39587011  1
  N  N435  1  0.67499287  0.10929406  0.39694025  1
  N  N436  1  0.67669521  0.44470109  0.40061383  1
  N  N437  1  0.66858105  0.78015964  0.39639797  1
  N  N438  1  0.32582867  0.22303646  0.90190512  1
  N  N439  1  0.32729229  0.54773236  0.89505559  1
  N  N440  1  0.30206079  0.89469330  0.91409171  1
  N  N441  1  0.82766531  0.22361712  0.89185013  1
  N  N442  1  0.81925652  0.55453913  0.89775184  1
  N  N443  1  0.81531358  0.88427645  0.88859610  1
  N  N444  1  0.31650746  0.11336658  0.10324095  1
  N  N445  1  0.34611938  0.44172056  0.08226770  1
  N  N446  1  0.32163246  0.77723154  0.10873963  1
  N  N447  1  0.82697644  0.11014203  0.09923604  1
  N  N448  1  0.82333286  0.44795221  0.09632562  1
  N  N449  1  0.82398948  0.77830948  0.10214194  1
  N  N450  1  0.17407694  0.21863847  0.60122512  1
  N  N451  1  0.17086807  0.55547384  0.60218214  1
  N  N452  1  0.17400493  0.88929412  0.60887417  1
  N  N453  1  0.64005489  0.22111637  0.58231687  1
  N  N454  1  0.67718119  0.55142840  0.60439088  1
  N  N455  1  0.67835514  0.88883521  0.60507085  1
  Cl  Cl456  1  0.25823171  0.05300183  0.62976206  1
  Cl  Cl457  1  0.26123805  0.38742058  0.60983632  1
  Cl  Cl458  1  0.26372774  0.72514354  0.62236059  1
  Cl  Cl459  1  0.76382958  0.06660025  0.60520889  1
  Cl  Cl460  1  0.76410478  0.38793343  0.62388329  1
  Cl  Cl461  1  0.75682482  0.72209441  0.61498821  1
  Cl  Cl462  1  0.23123366  0.26956365  0.10648432  1
  Cl  Cl463  1  0.23603497  0.60136333  0.10226122  1
  Cl  Cl464  1  0.25138512  0.94124164  0.11861802  1
  Cl  Cl465  1  0.72968324  0.26768217  0.09943762  1
  Cl  Cl466  1  0.73250662  0.60846948  0.12151555  1
  Cl  Cl467  1  0.75036683  0.94819500  0.11293801  1
  Cl  Cl468  1  0.24210526  0.06120756  0.89609134  1
  Cl  Cl469  1  0.22697882  0.38572398  0.87877845  1
  Cl  Cl470  1  0.23741602  0.72507602  0.89913975  1
  Cl  Cl471  1  0.73974851  0.05554885  0.88531365  1
  Cl  Cl472  1  0.73536144  0.38907934  0.88612490  1
  Cl  Cl473  1  0.73845433  0.72216052  0.87688522  1
  Cl  Cl474  1  0.27841378  0.27958704  0.37990392  1
  Cl  Cl475  1  0.25975007  0.60765129  0.37170093  1
  Cl  Cl476  1  0.26467143  0.93657761  0.39883042  1
  Cl  Cl477  1  0.77767219  0.27612592  0.37248813  1
  Cl  Cl478  1  0.75878507  0.61163277  0.38453759  1
  Cl  Cl479  1  0.76146149  0.95015803  0.38040268  1
  Cl  Cl480  1  -0.04428396  0.22951605  0.59847199  1
  Cl  Cl481  1  -0.01192997  0.55892753  0.62121291  1
  Cl  Cl482  1  -0.00938006  0.89283600  0.61147469  1
  Cl  Cl483  1  0.47409161  0.21418685  0.63375437  1
  Cl  Cl484  1  0.48340775  0.55913075  0.61285617  1
  Cl  Cl485  1  0.47666137  0.90059851  0.60016484  1
  Cl  Cl486  1  0.00755557  0.10872678  0.12541405  1
  Cl  Cl487  1  0.01131131  0.44123077  0.11621923  1
  Cl  Cl488  1  0.01578509  0.78114750  0.11678523  1
  Cl  Cl489  1  0.51943564  0.11743839  0.11133558  1
  Cl  Cl490  1  0.52204714  0.44325169  0.11955127  1
  Cl  Cl491  1  0.50824804  0.78392798  0.11729883  1
  Cl  Cl492  1  0.02067334  0.22924747  0.88005237  1
  Cl  Cl493  1  0.01640425  0.56067732  0.88810272  1
  Cl  Cl494  1  -0.00124154  0.89431035  0.87592436  1
  Cl  Cl495  1  0.52079927  0.23233434  0.89979811  1
  Cl  Cl496  1  0.50908212  0.54978003  0.87917388  1
  Cl  Cl497  1  0.49252246  0.89484803  0.89977286  1
  Cl  Cl498  1  -0.01219729  0.10579352  0.39863866  1
  Cl  Cl499  1  -0.01113720  0.44550958  0.37823952  1
  Cl  Cl500  1  -0.01924556  0.77729270  0.38659560  1
  Cl  Cl501  1  0.49088310  0.11360241  0.37496632  1
  Cl  Cl502  1  0.48557831  0.44210976  0.38747858  1
  Cl  Cl503  1  0.48723822  0.78090855  0.38221405  1
  Cl  Cl504  1  0.36154618  0.14870090  0.76929215  1
  Cl  Cl505  1  0.35840385  0.47971738  0.75540309  1
  Cl  Cl506  1  0.36135789  0.81758326  0.75222365  1
  Cl  Cl507  1  0.86474229  0.14071520  0.76422300  1
  Cl  Cl508  1  0.86422192  0.48123023  0.75732653  1
  Cl  Cl509  1  0.85678005  0.81616542  0.75428280  1
  Cl  Cl510  1  0.13938760  0.18400787  0.25614390  1
  Cl  Cl511  1  0.13886843  0.51530372  0.25111104  1
  Cl  Cl512  1  0.13102772  0.85717190  0.26739864  1
  Cl  Cl513  1  0.64225583  0.18254512  0.26042011  1
  Cl  Cl514  1  0.63500813  0.51681669  0.25974360  1
  Cl  Cl515  1  0.63703665  0.85378808  0.25516626  1
  Cl  Cl516  1  0.13641865  0.14916486  0.74571597  1
  Cl  Cl517  1  0.13868424  0.48030742  0.74750124  1
  Cl  Cl518  1  0.13625172  0.81601635  0.74837702  1
  Cl  Cl519  1  0.64228799  0.15236037  0.74257384  1
  Cl  Cl520  1  0.63676297  0.48069077  0.73756401  1
  Cl  Cl521  1  0.62905262  0.81417601  0.73752318  1
  Cl  Cl522  1  0.36460413  0.18738781  0.23269485  1
  Cl  Cl523  1  0.35790164  0.52006157  0.23028512  1
  Cl  Cl524  1  0.35180269  0.85105645  0.24650753  1
  Cl  Cl525  1  0.85890713  0.18882095  0.23282962  1
  Cl  Cl526  1  0.85765168  0.51914616  0.24122813  1
  Cl  Cl527  1  0.85979046  0.84946977  0.24233436  1
  Cl  Cl528  1  0.10842561  0.31087302  0.73423449  1
  Cl  Cl529  1  0.11267122  0.65096778  0.74259707  1
  Cl  Cl530  1  0.10861173  0.98122979  0.74339683  1
  Cl  Cl531  1  0.61645018  0.31308734  0.74512512  1
  Cl  Cl532  1  0.60919780  0.64839493  0.74420634  1
  Cl  Cl533  1  0.60957862  0.97949302  0.74179911  1
  Cl  Cl534  1  0.38917749  0.01827525  0.24417240  1
  Cl  Cl535  1  0.37452910  0.35889971  0.23031065  1
  Cl  Cl536  1  0.38388448  0.68717569  0.23615936  1
  Cl  Cl537  1  0.89243172  0.01628369  0.24496935  1
  Cl  Cl538  1  0.88344865  0.35291850  0.23802646  1
  Cl  Cl539  1  0.88359760  0.68602464  0.24240222  1
  Cl  Cl540  1  0.39519051  0.31963309  0.76767176  1
  Cl  Cl541  1  0.38596006  0.64688257  0.75454255  1
  Cl  Cl542  1  0.38774216  0.98201099  0.75330595  1
  Cl  Cl543  1  0.88418870  0.31083576  0.76425144  1
  Cl  Cl544  1  0.88578300  0.64905011  0.75569238  1
  Cl  Cl545  1  0.88238436  0.97999207  0.75541845  1
  Cl  Cl546  1  0.10834548  0.02118390  0.25594608  1
  Cl  Cl547  1  0.10961131  0.34973750  0.25831895  1
  Cl  Cl548  1  0.10902510  0.68396746  0.25423609  1
  Cl  Cl549  1  0.61262233  0.01870530  0.25459945  1
  Cl  Cl550  1  0.59875624  0.34643806  0.25793282  1
  Cl  Cl551  1  0.60364919  0.68525550  0.25919797  1
