# generated using pymatgen
data_H8PbC4(N3Cl2)2
_symmetry_space_group_name_H-M   'P 1'
_cell_length_a   16.63592051
_cell_length_b   22.53032836
_cell_length_c   21.60010429
_cell_angle_alpha   89.99973923
_cell_angle_beta   90.01608204
_cell_angle_gamma   89.97639577
_symmetry_Int_Tables_number   1
_chemical_formula_structural   H8PbC4(N3Cl2)2
_chemical_formula_sum   'H192 Pb24 C96 N144 Cl96'
_cell_volume   8095.99351994
_cell_formula_units_Z   24
loop_
 _symmetry_equiv_pos_site_id
 _symmetry_equiv_pos_as_xyz
  1  'x, y, z'
loop_
 _atom_site_type_symbol
 _atom_site_label
 _atom_site_symmetry_multiplicity
 _atom_site_fract_x
 _atom_site_fract_y
 _atom_site_fract_z
 _atom_site_occupancy
  H  H0  1  0.00051411  0.03205386  0.67444521  1
  H  H1  1  0.00043624  0.36035412  0.67322349  1
  H  H2  1  0.00237996  0.69397728  0.68012546  1
  H  H3  1  0.50257488  0.02492114  0.67699780  1
  H  H4  1  0.50888522  0.36308504  0.67847714  1
  H  H5  1  0.49762559  0.68917470  0.67252357  1
  H  H6  1  0.01676724  0.30265890  0.18190031  1
  H  H7  1  -0.00418250  0.63511554  0.17497077  1
  H  H8  1  -0.00218832  0.97604023  0.17458413  1
  H  H9  1  0.49383281  0.29963437  0.17473442  1
  H  H10  1  0.51108942  0.65380195  0.17432014  1
  H  H11  1  0.49812528  0.97690170  0.17659681  1
  H  H12  1  0.00026433  0.02269038  0.82813601  1
  H  H13  1  0.00670929  0.36544466  0.82337885  1
  H  H14  1  0.01537652  0.68836440  0.82351757  1
  H  H15  1  0.50442355  0.02832846  0.82369923  1
  H  H16  1  0.51013755  0.36745103  0.81777581  1
  H  H17  1  0.48136834  0.70001094  0.82751947  1
  H  H18  1  -0.00980395  0.30770851  0.32436643  1
  H  H19  1  -0.01130072  0.63383121  0.31814692  1
  H  H20  1  0.00205545  0.96686266  0.32053136  1
  H  H21  1  0.50269802  0.30943132  0.32306311  1
  H  H22  1  0.50806840  0.64339348  0.32891568  1
  H  H23  1  0.49894391  0.96906565  0.31706579  1
  H  H24  1  0.25374605  0.19810473  0.68030381  1
  H  H25  1  0.23201197  0.52198944  0.66782210  1
  H  H26  1  0.25570516  0.86237621  0.67507788  1
  H  H27  1  0.75516343  0.19629631  0.67884170  1
  H  H28  1  0.76347208  0.52610698  0.68007375  1
  H  H29  1  0.76032894  0.86422756  0.68400230  1
  H  H30  1  0.24343577  0.13377642  0.18210795  1
  H  H31  1  0.25025521  0.47231196  0.17820154  1
  H  H32  1  0.24188375  0.80050053  0.18052100  1
  H  H33  1  0.75021098  0.13857971  0.17405084  1
  H  H34  1  0.74945185  0.47207303  0.17590396  1
  H  H35  1  0.75298740  0.80786706  0.17501644  1
  H  H36  1  0.23124082  0.19561381  0.81673082  1
  H  H37  1  0.26760850  0.52698195  0.82889215  1
  H  H38  1  0.25013095  0.86079345  0.82244789  1
  H  H39  1  0.75988587  0.18979674  0.82861776  1
  H  H40  1  0.72897289  0.52622687  0.82605883  1
  H  H41  1  0.75316042  0.86133793  0.82581744  1
  H  H42  1  0.24193006  0.14408042  0.31775083  1
  H  H43  1  0.24999975  0.47394428  0.31778328  1
  H  H44  1  0.23272006  0.80964825  0.32697155  1
  H  H45  1  0.75433136  0.13838985  0.32400550  1
  H  H46  1  0.73916268  0.46819754  0.32690873  1
  H  H47  1  0.76624477  0.80491010  0.32267171  1
  H  H48  1  0.10908244  0.05829084  0.59371915  1
  H  H49  1  0.11074780  0.39154590  0.59565150  1
  H  H50  1  0.12628634  0.71972487  0.61114730  1
  H  H51  1  0.61345510  0.05818916  0.59801521  1
  H  H52  1  0.61673222  0.39215303  0.59796699  1
  H  H53  1  0.62776670  0.71841432  0.60854194  1
  H  H54  1  0.38786495  0.27483428  0.09135425  1
  H  H55  1  0.38320980  0.61722893  0.11421325  1
  H  H56  1  0.37258242  0.94561397  0.11151946  1
  H  H57  1  0.88562527  0.27630400  0.11871474  1
  H  H58  1  0.88369729  0.60752344  0.09460645  1
  H  H59  1  0.87615143  0.94638540  0.10351980  1
  H  H60  1  0.37590454  0.05014538  0.88707388  1
  H  H61  1  0.37106412  0.38338363  0.87065835  1
  H  H62  1  0.37813464  0.73257643  0.91069321  1
  H  H63  1  0.87381576  0.05345669  0.89391514  1
  H  H64  1  0.86616716  0.38483016  0.87471072  1
  H  H65  1  0.87544570  0.71351201  0.87227669  1
  H  H66  1  0.12643236  0.28751684  0.37825568  1
  H  H67  1  0.12782681  0.61969110  0.37568317  1
  H  H68  1  0.13537987  0.94707514  0.38219077  1
  H  H69  1  0.63280407  0.28474383  0.38903301  1
  H  H70  1  0.62555692  0.60753155  0.39918528  1
  H  H71  1  0.63329784  0.94971996  0.37592286  1
  H  H72  1  0.36399684  0.22588444  0.59837928  1
  H  H73  1  0.37474782  0.54722274  0.62249326  1
  H  H74  1  0.36138245  0.89154418  0.59081501  1
  H  H75  1  0.86615357  0.22745635  0.59919727  1
  H  H76  1  0.86607776  0.55170814  0.59407717  1
  H  H77  1  0.86710729  0.89147396  0.60139785  1
  H  H78  1  0.12922357  0.10851977  0.10135078  1
  H  H79  1  0.13561115  0.44106961  0.10240681  1
  H  H80  1  0.13081440  0.77745608  0.10113653  1
  H  H81  1  0.62617802  0.10768481  0.10728319  1
  H  H82  1  0.63695160  0.43807733  0.10066002  1
  H  H83  1  0.62465237  0.78164985  0.10832694  1
  H  H84  1  0.11948577  0.21829947  0.89750441  1
  H  H85  1  0.12141563  0.54375820  0.87360729  1
  H  H86  1  0.12977321  0.89062380  0.89474532  1
  H  H87  1  0.61831459  0.21392645  0.87651661  1
  H  H88  1  0.63021707  0.56188453  0.91220331  1
  H  H89  1  0.62291074  0.88844029  0.88994976  1
  H  H90  1  0.37992186  0.11943811  0.37357340  1
  H  H91  1  0.38071034  0.44886726  0.38404661  1
  H  H92  1  0.37138554  0.77893082  0.37552291  1
  H  H93  1  0.89091075  0.11952404  0.38023652  1
  H  H94  1  0.88048855  0.44987021  0.37395571  1
  H  H95  1  0.86735558  0.77299466  0.40754434  1
  H  H96  1  0.38446947  0.27934165  0.39660128  1
  H  H97  1  0.37763512  0.61666839  0.39142805  1
  H  H98  1  0.38556989  0.94145433  0.39386140  1
  H  H99  1  0.88058124  0.27955385  0.40437235  1
  H  H100  1  0.88339817  0.60285895  0.40279506  1
  H  H101  1  0.88706874  0.94458115  0.39681765  1
  H  H102  1  0.12290997  0.05608133  0.89532437  1
  H  H103  1  0.11105128  0.39502404  0.90781264  1
  H  H104  1  0.12001662  0.72529624  0.90504709  1
  H  H105  1  0.62470660  0.05344923  0.89677699  1
  H  H106  1  0.61656357  0.39216188  0.90135950  1
  H  H107  1  0.62236954  0.71690725  0.88061127  1
  H  H108  1  0.13442285  0.27880313  0.10609680  1
  H  H109  1  0.13043917  0.61354149  0.11587157  1
  H  H110  1  0.12423437  0.94693312  0.10696251  1
  H  H111  1  0.63301626  0.28068568  0.12318346  1
  H  H112  1  0.63084557  0.61276242  0.10833137  1
  H  H113  1  0.62101224  0.94816495  0.10589939  1
  H  H114  1  0.36665701  0.05119233  0.62249338  1
  H  H115  1  0.37129182  0.38016512  0.62508647  1
  H  H116  1  0.38019461  0.72337818  0.59955597  1
  H  H117  1  0.86221739  0.05218879  0.62074700  1
  H  H118  1  0.86402162  0.38046221  0.61828031  1
  H  H119  1  0.87682821  0.72055657  0.61106400  1
  H  H120  1  0.13375086  0.11258784  0.39777283  1
  H  H121  1  0.13239539  0.44572525  0.39447605  1
  H  H122  1  0.12741052  0.77536220  0.40829369  1
  H  H123  1  0.64323060  0.11173939  0.40333883  1
  H  H124  1  0.63741904  0.43974932  0.41170842  1
  H  H125  1  0.62374100  0.78184512  0.37203276  1
  H  H126  1  0.36713286  0.21800175  0.87557951  1
  H  H127  1  0.36119409  0.56744641  0.91581868  1
  H  H128  1  0.37765052  0.88675178  0.88993623  1
  H  H129  1  0.86203954  0.22364998  0.91293235  1
  H  H130  1  0.87143654  0.55025275  0.87121878  1
  H  H131  1  0.87057152  0.89162323  0.90034994  1
  H  H132  1  0.37674551  0.11037278  0.11938805  1
  H  H133  1  0.38353727  0.44660711  0.11717242  1
  H  H134  1  0.37815737  0.78297995  0.12239148  1
  H  H135  1  0.87484866  0.11056117  0.10479664  1
  H  H136  1  0.88364978  0.44995306  0.11556000  1
  H  H137  1  0.87233856  0.77628090  0.10298252  1
  H  H138  1  0.11720159  0.22074927  0.62312914  1
  H  H139  1  0.13253210  0.55739756  0.58255139  1
  H  H140  1  0.11674989  0.88532540  0.62039456  1
  H  H141  1  0.61974518  0.22130839  0.61830898  1
  H  H142  1  0.62196818  0.54391362  0.63146998  1
  H  H143  1  0.62120899  0.88372845  0.62727787  1
  H  H144  1  0.87938321  0.41040139  0.49432204  1
  H  H145  1  0.33368961  0.91297791  0.99492751  1
  H  H146  1  0.04019775  0.08966593  0.48832666  1
  H  H147  1  0.33614310  0.23608741  0.98602502  1
  H  H148  1  0.92463609  0.25394811  0.00990583  1
  H  H149  1  0.43569661  0.59300967  0.00820851  1
  H  H150  1  0.66792269  0.75220801  0.00393784  1
  H  H151  1  0.60644942  0.92004207  0.48916358  1
  H  H152  1  0.87322606  0.08699534  0.49766687  1
  H  H153  1  0.18606673  0.23419997  1.00698327  1
  H  H154  1  0.10656535  0.25576236  0.49347283  1
  H  H155  1  0.92608072  0.74282717  0.50387369  1
  H  H156  1  0.03510850  0.42197616  1.00646977  1
  H  H157  1  0.45920593  0.24788048  -0.01399669  1
  H  H158  1  0.58637323  0.74979961  0.50375954  1
  H  H159  1  0.89163524  0.75107155  0.98316172  1
  H  H160  1  0.66614067  0.92005396  0.99487233  1
  H  H161  1  0.79226072  0.57855103  0.49134064  1
  H  H162  1  0.94634058  0.91888550  0.50740673  1
  H  H163  1  0.56575088  0.59234714  0.00405375  1
  H  H164  1  0.78827224  0.74362500  0.50821408  1
  H  H165  1  0.96159565  0.57269456  0.49979597  1
  H  H166  1  0.63171094  0.57052212  0.51629677  1
  H  H167  1  0.12878501  0.58028493  0.98275800  1
  H  H168  1  0.38996033  0.41326351  0.51089491  1
  H  H169  1  0.41601694  0.58218816  0.49659437  1
  H  H170  1  0.61997300  0.25241991  1.00765934  1
  H  H171  1  0.07614556  0.25389112  -0.00345028  1
  H  H172  1  0.20461596  0.08055860  0.50082572  1
  H  H173  1  0.27342065  0.58396228  1.01204959  1
  H  H174  1  0.78110072  0.24721117  1.01260623  1
  H  H175  1  0.04409297  0.74806899  1.00471585  1
  H  H176  1  0.71341441  0.58552359  1.00929593  1
  H  H177  1  0.59049726  0.25638819  0.49398273  1
  H  H178  1  0.07854502  0.75357102  0.50194801  1
  H  H179  1  0.20396047  0.74600264  0.50716393  1
  H  H180  1  0.79436751  0.92240421  0.49838836  1
  H  H181  1  0.38747573  0.40952929  -0.01431825  1
  H  H182  1  0.44639786  0.91191209  0.50141629  1
  H  H183  1  0.85380122  0.41968487  0.00648327  1
  H  H184  1  0.54678531  0.41724864  1.00656875  1
  H  H185  1  0.19572471  0.75343046  -0.00820053  1
  H  H186  1  0.39150776  0.08755961  0.51161322  1
  H  H187  1  0.54489794  0.08433140  0.49679722  1
  H  H188  1  0.41267050  0.08199660  0.99997028  1
  H  H189  1  0.70851057  0.08344175  0.51021345  1
  H  H190  1  0.07400788  0.91949688  0.00180204  1
  H  H191  1  0.28403372  0.91645016  0.49120525  1
  Pb  Pb192  1  0.24126607  0.04873840  0.74491733  1
  Pb  Pb193  1  0.23854634  0.38335634  0.75336756  1
  Pb  Pb194  1  0.23928026  0.71788128  0.75051660  1
  Pb  Pb195  1  0.73777744  0.05074019  0.75130910  1
  Pb  Pb196  1  0.73925825  0.38387860  0.75559455  1
  Pb  Pb197  1  0.74439911  0.71391635  0.74857575  1
  Pb  Pb198  1  0.26322845  0.28524204  0.24018062  1
  Pb  Pb199  1  0.25888403  0.61946127  0.24473627  1
  Pb  Pb200  1  0.25734043  0.94918649  0.25113965  1
  Pb  Pb201  1  0.75918849  0.28377188  0.24910406  1
  Pb  Pb202  1  0.76044117  0.61441840  0.25078464  1
  Pb  Pb203  1  0.75853635  0.95157493  0.24854378  1
  Pb  Pb204  1  -0.00984067  0.21669585  0.75985581  1
  Pb  Pb205  1  -0.00582311  0.54652689  0.73306406  1
  Pb  Pb206  1  -0.01155677  0.88503866  0.75341930  1
  Pb  Pb207  1  0.48930873  0.21624314  0.74299172  1
  Pb  Pb208  1  0.48940312  0.55273369  0.76655984  1
  Pb  Pb209  1  0.49123173  0.88126667  0.74639955  1
  Pb  Pb210  1  0.00960212  0.11770513  0.24548569  1
  Pb  Pb211  1  0.01286639  0.45015108  0.24247012  1
  Pb  Pb212  1  0.00408677  0.78296580  0.25240383  1
  Pb  Pb213  1  0.50990593  0.11727893  0.25857749  1
  Pb  Pb214  1  0.51034253  0.45092373  0.25344373  1
  Pb  Pb215  1  0.50834701  0.78584496  0.24895777  1
  C  C216  1  -0.00949402  0.04741661  0.62743356  1
  C  C217  1  -0.00868973  0.37720063  0.62668785  1
  C  C218  1  0.00110738  0.71002852  0.63267230  1
  C  C219  1  0.49437984  0.04342172  0.63087713  1
  C  C220  1  0.49798826  0.37816350  0.63162719  1
  C  C221  1  0.50231029  0.70877121  0.62683537  1
  C  C222  1  0.01154062  0.28737293  0.13434167  1
  C  C223  1  0.00327316  0.61957706  0.12801098  1
  C  C224  1  -0.00013406  0.95788765  0.12820047  1
  C  C225  1  0.50555008  0.28516062  0.12760316  1
  C  C226  1  0.50824417  0.63042956  0.13046032  1
  C  C227  1  0.49746828  0.95799204  0.13070565  1
  C  C228  1  -0.00125736  0.04346168  0.87316178  1
  C  C229  1  -0.00530508  0.38083849  0.87005832  1
  C  C230  1  0.00369324  0.70766959  0.86878995  1
  C  C231  1  0.50105221  0.04379929  0.87105510  1
  C  C232  1  0.49861401  0.38135739  0.86515451  1
  C  C233  1  0.49433671  0.71673872  0.87332775  1
  C  C234  1  -0.00008443  0.29181798  0.37111923  1
  C  C235  1  -0.00030415  0.61868493  0.36505084  1
  C  C236  1  0.00812659  0.95312146  0.36840544  1
  C  C237  1  0.50712265  0.29253264  0.36990338  1
  C  C238  1  0.50324714  0.62339340  0.37439681  1
  C  C239  1  0.50634604  0.95396697  0.36449349  1
  C  C240  1  0.24518138  0.21393864  0.63357778  1
  C  C241  1  0.24676941  0.54120249  0.62346972  1
  C  C242  1  0.24477030  0.87847070  0.62845560  1
  C  C243  1  0.74696145  0.21344671  0.63222963  1
  C  C244  1  0.74984918  0.54072429  0.63323533  1
  C  C245  1  0.74901626  0.87958775  0.63709557  1
  C  C246  1  0.24975710  0.11849338  0.13473123  1
  C  C247  1  0.25682811  0.45386477  0.13240353  1
  C  C248  1  0.25024033  0.78732050  0.13277649  1
  C  C249  1  0.75063819  0.11964540  0.12813095  1
  C  C250  1  0.75732894  0.45475237  0.12958084  1
  C  C251  1  0.74966073  0.78949477  0.12868892  1
  C  C252  1  0.23988171  0.21026485  0.86421014  1
  C  C253  1  0.24999244  0.54462016  0.87382265  1
  C  C254  1  0.25273929  0.87822573  0.86922502  1
  C  C255  1  0.74693075  0.20726691  0.87442940  1
  C  C256  1  0.74313193  0.54379310  0.87134643  1
  C  C257  1  0.74852645  0.87902953  0.87225254  1
  C  C258  1  0.25248089  0.12567892  0.36349389  1
  C  C259  1  0.25441114  0.45733079  0.36482222  1
  C  C260  1  0.24373920  0.79027841  0.37196093  1
  C  C261  1  0.76307424  0.12342091  0.37142625  1
  C  C262  1  0.75302719  0.45241331  0.37312748  1
  C  C263  1  0.75185252  0.78784659  0.36840839  1
  C  C264  1  0.73940197  0.42116744  0.46868606  1
  C  C265  1  0.01014137  0.07682067  0.53101530  1
  C  C266  1  0.30670247  0.75211402  0.45350372  1
  C  C267  1  0.05777182  0.26464719  0.45963074  1
  C  C268  1  0.04391353  0.25990029  0.03977856  1
  C  C269  1  0.92950713  0.07406771  0.54099222  1
  C  C270  1  0.43617899  0.40280823  0.95267085  1
  C  C271  1  0.68338805  0.56336018  0.54746799  1
  C  C272  1  0.93410371  0.40333483  0.53867568  1
  C  C273  1  0.45679872  0.92447647  0.04055574  1
  C  C274  1  0.04160732  0.74120077  0.54142630  1
  C  C275  1  0.23015221  0.41854449  0.04016059  1
  C  C276  1  0.76384091  0.56714303  0.53509485  1
  C  C277  1  0.56097521  0.92870673  0.45401495  1
  C  C278  1  0.93004317  0.40892876  0.95452382  1
  C  C279  1  0.23412657  0.09355722  0.45779172  1
  C  C280  1  0.45526003  0.07162262  0.96327073  1
  C  C281  1  0.82153091  0.09810655  0.45959716  1
  C  C282  1  0.71320165  0.08451189  0.03861729  1
  C  C283  1  0.81910910  0.42470598  0.45695932  1
  C  C284  1  0.06157945  0.93002987  0.45899228  1
  C  C285  1  0.76213652  0.75669763  0.46390142  1
  C  C286  1  0.30826327  0.76498621  0.04379743  1
  C  C287  1  0.48056548  0.75042435  0.96799889  1
  C  C288  1  0.97698030  0.26189130  0.46664378  1
  C  C289  1  0.68067594  0.23886690  0.95689288  1
  C  C290  1  0.22741910  0.76306702  0.03473626  1
  C  C291  1  0.98040021  0.92867265  0.46563281  1
  C  C292  1  0.74017265  0.09530573  0.46777819  1
  C  C293  1  0.51909819  0.40920278  0.53607962  1
  C  C294  1  0.05457696  0.59399262  0.03870278  1
  C  C295  1  0.23750008  0.57924734  0.53026021  1
  C  C296  1  0.47932518  0.92502443  0.46011417  1
  C  C297  1  0.76566554  0.90915341  0.54167975  1
  C  C298  1  0.48808918  0.25873916  0.02977881  1
  C  C299  1  0.21441849  0.23213297  0.96168934  1
  C  C300  1  0.53758345  0.58595289  0.46607522  1
  C  C301  1  0.03371267  0.08382660  0.96079655  1
  C  C302  1  0.53693449  0.07225710  0.96501066  1
  C  C303  1  0.81249178  0.57737777  0.95204198  1
  C  C304  1  0.56890282  0.26105408  0.04080200  1
  C  C305  1  0.51688305  0.40647861  0.96322790  1
  C  C306  1  0.94004461  0.74108044  0.95096488  1
  C  C307  1  0.01477100  0.40772901  0.53208597  1
  C  C308  1  0.19143913  0.24188658  0.54607926  1
  C  C309  1  0.43702270  0.07723681  0.54626256  1
  C  C310  1  0.72993060  0.41944841  0.03579493  1
  C  C311  1  0.43839072  0.40488156  0.54386845  1
  N  N312  1  0.30727879  0.42124329  0.04376886  1
  N  N313  1  0.77028379  0.24607786  0.53772324  1
  N  N314  1  0.46209484  0.58234083  0.05013879  1
  N  N315  1  0.22438074  0.42524493  0.45827214  1
  N  N316  1  0.68748057  0.90632579  0.55047187  1
  N  N317  1  0.96485665  0.25780610  0.04550612  1
  N  N318  1  0.53462013  0.92527527  0.03759204  1
  N  N319  1  0.54398647  0.58160137  0.04743486  1
  N  N320  1  0.18018798  0.56733582  0.95474228  1
  N  N321  1  0.70546044  0.91110582  0.95966937  1
  N  N322  1  0.26791902  0.24401724  0.53671759  1
  N  N323  1  0.79040366  0.08548268  0.03643570  1
  N  N324  1  0.96193523  0.74166379  0.54237075  1
  N  N325  1  0.29349875  0.90725875  0.95876918  1
  N  N326  1  0.69444652  0.24419349  0.54422338  1
  N  N327  1  0.22918778  0.75334160  0.46438309  1
  N  N328  1  0.00797207  0.41276468  0.96446288  1
  N  N329  1  0.22389809  0.09089997  0.03895756  1
  N  N330  1  0.73558141  0.57875740  0.96520293  1
  N  N331  1  0.29975084  0.09179709  0.04459115  1
  N  N332  1  0.78325224  0.91161838  0.96491507  1
  N  N333  1  0.03781147  0.92543464  0.03952356  1
  N  N334  1  0.68448403  0.75953435  0.45214340  1
  N  N335  1  0.47211879  0.26124834  0.46284938  1
  N  N336  1  0.55007314  0.26331927  0.45849001  1
  N  N337  1  0.01848937  0.74495420  0.96146591  1
  N  N338  1  0.55701172  0.74541181  0.95946308  1
  N  N339  1  0.31246609  0.09578473  0.44960699  1
  N  N340  1  0.97759246  0.59153136  0.03094634  1
  N  N341  1  0.70808399  0.75819851  0.04001180  1
  N  N342  1  0.75830508  0.24201257  0.96800935  1
  N  N343  1  0.95991944  0.92486752  0.03706919  1
  N  N344  1  0.78642096  0.75771335  0.03620818  1
  N  N345  1  0.54607537  0.74236929  0.53971349  1
  N  N346  1  0.06255645  0.59490632  0.45129604  1
  N  N347  1  0.21509537  0.90781854  0.96221016  1
  N  N348  1  0.98573069  0.58923728  0.45904713  1
  N  N349  1  0.80793611  0.42556310  0.04148667  1
  N  N350  1  0.18231837  0.90694362  0.54339264  1
  N  N351  1  0.95634362  0.08327044  0.96152204  1
  N  N352  1  0.46805999  0.74464545  0.53549475  1
  N  N353  1  0.51592529  0.07935444  0.53879188  1
  N  N354  1  0.31339704  0.57514086  0.54147834  1
  N  N355  1  0.45856720  0.58964144  0.46250702  1
  N  N356  1  0.25500327  0.58331358  0.96575019  1
  N  N357  1  0.25946924  0.90960616  0.53485631  1
  N  N358  1  0.30026443  0.42619003  0.45444507  1
  N  N359  1  0.29291219  0.23520895  0.95246831  1
  N  N360  1  0.04719423  0.06000009  0.58582417  1
  N  N361  1  0.04927882  0.39208924  0.58560608  1
  N  N362  1  0.06621844  0.72292208  0.59775876  1
  N  N363  1  0.55120382  0.05548851  0.58994401  1
  N  N364  1  0.55497226  0.39317145  0.58894087  1
  N  N365  1  0.56825363  0.71886565  0.59438056  1
  N  N366  1  0.44978033  0.27384168  0.08431558  1
  N  N367  1  0.44253040  0.61640072  0.09933035  1
  N  N368  1  0.43208361  0.94358000  0.09713308  1
  N  N369  1  0.94484440  0.27793684  0.10274571  1
  N  N370  1  0.94570623  0.60785644  0.08780773  1
  N  N371  1  0.93676308  0.94378513  0.09313706  1
  N  N372  1  0.43429034  0.05392756  0.90357095  1
  N  N373  1  0.42628720  0.38754113  0.89182687  1
  N  N374  1  0.43982403  0.73312755  0.91665702  1
  N  N375  1  0.93433625  0.05759532  0.90580876  1
  N  N376  1  0.92157398  0.39043662  0.89552678  1
  N  N377  1  0.93100334  0.72010600  0.89291911  1
  N  N378  1  0.07058628  0.28306082  0.39870080  1
  N  N379  1  0.07072122  0.61333447  0.39284709  1
  N  N380  1  0.07768658  0.94458072  0.40003069  1
  N  N381  1  0.57290582  0.28365391  0.40290109  1
  N  N382  1  0.56530035  0.60616921  0.41116139  1
  N  N383  1  0.57616608  0.94645971  0.39455284  1
  N  N384  1  0.30171570  0.22609092  0.59264151  1
  N  N385  1  0.31904063  0.55110521  0.60085519  1
  N  N386  1  0.29894604  0.88972243  0.58519162  1
  N  N387  1  0.80425969  0.22686890  0.59185283  1
  N  N388  1  0.80391083  0.55308753  0.58897371  1
  N  N389  1  0.80489589  0.89279628  0.59451348  1
  N  N390  1  0.19135482  0.10748071  0.09454438  1
  N  N391  1  0.19686989  0.43836488  0.09351661  1
  N  N392  1  0.19210324  0.77699901  0.09146007  1
  N  N393  1  0.68578332  0.10508725  0.09375428  1
  N  N394  1  0.69812117  0.43729835  0.09023191  1
  N  N395  1  0.68479190  0.77955282  0.09511967  1
  N  N396  1  0.18078228  0.21886663  0.90646855  1
  N  N397  1  0.17620167  0.55170765  0.89528103  1
  N  N398  1  0.19074491  0.89130254  0.90564900  1
  N  N399  1  0.67335391  0.21939978  0.89807731  1
  N  N400  1  0.69149176  0.55555383  0.91636046  1
  N  N401  1  0.68252740  0.88963104  0.90439328  1
  N  N402  1  0.32237989  0.11550265  0.39059367  1
  N  N403  1  0.32058656  0.44606134  0.39677972  1
  N  N404  1  0.31568298  0.77450514  0.39622776  1
  N  N405  1  0.83414513  0.11530396  0.39964650  1
  N  N406  1  0.82631959  0.44379050  0.39680846  1
  N  N407  1  0.80497998  0.77381863  0.41286010  1
  N  N408  1  0.44584090  0.27864039  0.40697520  1
  N  N409  1  0.43709993  0.61357759  0.40625645  1
  N  N410  1  0.44676996  0.94101404  0.40413052  1
  N  N411  1  0.94210361  0.27809886  0.41342832  1
  N  N412  1  0.94568236  0.60262611  0.40686942  1
  N  N413  1  0.94807209  0.94310467  0.40802524  1
  N  N414  1  0.06269712  0.06013185  0.90755736  1
  N  N415  1  0.04841440  0.39295028  0.91313196  1
  N  N416  1  0.05794221  0.72075997  0.91160178  1
  N  N417  1  0.56417786  0.05576849  0.90932155  1
  N  N418  1  0.55443531  0.39315005  0.90819872  1
  N  N419  1  0.56547962  0.72469988  0.89888010  1
  N  N420  1  0.07350558  0.27673168  0.09527388  1
  N  N421  1  0.07307610  0.61052648  0.09807636  1
  N  N422  1  0.06402965  0.94718837  0.09397147  1
  N  N423  1  0.57783834  0.27716587  0.10180603  1
  N  N424  1  0.57017466  0.61388806  0.09620542  1
  N  N425  1  0.55988841  0.94657573  0.09495644  1
  N  N426  1  0.42346260  0.05659316  0.60391045  1
  N  N427  1  0.42674564  0.38572619  0.60446596  1
  N  N428  1  0.44137880  0.72489196  0.59037953  1
  N  N429  1  0.91838830  0.05624128  0.60046241  1
  N  N430  1  0.92058009  0.38508838  0.59836137  1
  N  N431  1  0.93714067  0.71895540  0.59761617  1
  N  N432  1  0.19602043  0.11128190  0.40515006  1
  N  N433  1  0.19424940  0.44475555  0.40294602  1
  N  N434  1  0.18902746  0.77921379  0.41495957  1
  N  N435  1  0.70503859  0.11116951  0.41228195  1
  N  N436  1  0.69946972  0.43823314  0.41793429  1
  N  N437  1  0.67997442  0.77880374  0.39247299  1
  N  N438  1  0.30861683  0.21950714  0.89296749  1
  N  N439  1  0.29967584  0.55997874  0.91931748  1
  N  N440  1  0.31759297  0.88730667  0.90337078  1
  N  N441  1  0.80000371  0.21870210  0.91835754  1
  N  N442  1  0.81730050  0.55646021  0.89388487  1
  N  N443  1  0.80965573  0.89268287  0.90958110  1
  N  N444  1  0.31733491  0.10900817  0.10388898  1
  N  N445  1  0.32438591  0.44334025  0.10213749  1
  N  N446  1  0.32128003  0.77928486  0.10307225  1
  N  N447  1  0.81410909  0.10750262  0.09360439  1
  N  N448  1  0.82544939  0.44845631  0.09907829  1
  N  N449  1  0.81151886  0.77504933  0.09253139  1
  N  N450  1  0.17461035  0.22392796  0.60483906  1
  N  N451  1  0.19438404  0.55899136  0.57924440  1
  N  N452  1  0.17381236  0.88951746  0.60232638  1
  N  N453  1  0.67866391  0.22401749  0.60294558  1
  N  N454  1  0.67664217  0.54735196  0.60865915  1
  N  N455  1  0.67867259  0.88827391  0.61002720  1
  Cl  Cl456  1  0.23426379  0.05641780  0.60860167  1
  Cl  Cl457  1  0.23363358  0.39040233  0.62421548  1
  Cl  Cl458  1  0.25112415  0.72387048  0.60904197  1
  Cl  Cl459  1  0.73242489  0.05823141  0.61611118  1
  Cl  Cl460  1  0.73656963  0.38903049  0.62502269  1
  Cl  Cl461  1  0.75297907  0.72416115  0.61222747  1
  Cl  Cl462  1  0.26172476  0.27436640  0.10235068  1
  Cl  Cl463  1  0.26132255  0.60340791  0.10550876  1
  Cl  Cl464  1  0.24808148  0.94029381  0.11812536  1
  Cl  Cl465  1  0.76508894  0.26854062  0.10819562  1
  Cl  Cl466  1  0.75342434  0.60457986  0.10554560  1
  Cl  Cl467  1  0.74614605  0.94281030  0.11476289  1
  Cl  Cl468  1  0.24596593  0.05157609  0.87531033  1
  Cl  Cl469  1  0.23201997  0.39268994  0.88866465  1
  Cl  Cl470  1  0.24462375  0.72649421  0.88729769  1
  Cl  Cl471  1  0.74828464  0.05370462  0.88184317  1
  Cl  Cl472  1  0.73913712  0.39085042  0.89128512  1
  Cl  Cl473  1  0.74735029  0.71436995  0.88042041  1
  Cl  Cl474  1  0.26274934  0.27899400  0.37017480  1
  Cl  Cl475  1  0.25560312  0.62059525  0.37653722  1
  Cl  Cl476  1  0.26287229  0.93630487  0.39167171  1
  Cl  Cl477  1  0.75606266  0.28043226  0.38014655  1
  Cl  Cl478  1  0.75821485  0.60680926  0.38604761  1
  Cl  Cl479  1  0.76389760  0.94103362  0.38330105  1
  Cl  Cl480  1  -0.01143801  0.22804379  0.62789608  1
  Cl  Cl481  1  -0.00651375  0.55486661  0.59510913  1
  Cl  Cl482  1  -0.01221451  0.88559416  0.61868302  1
  Cl  Cl483  1  0.49196323  0.22442398  0.61053951  1
  Cl  Cl484  1  0.49658856  0.55424841  0.63534143  1
  Cl  Cl485  1  0.48223212  0.89201903  0.61116073  1
  Cl  Cl486  1  0.00496411  0.11111455  0.11322105  1
  Cl  Cl487  1  0.01287174  0.44153899  0.10339636  1
  Cl  Cl488  1  0.00309242  0.77271612  0.11040393  1
  Cl  Cl489  1  0.50064200  0.10629619  0.12708287  1
  Cl  Cl490  1  0.51317005  0.44172353  0.11869397  1
  Cl  Cl491  1  0.50513667  0.77937494  0.11573403  1
  Cl  Cl492  1  -0.01257352  0.22944934  0.90025348  1
  Cl  Cl493  1  -0.00169874  0.54768118  0.86451815  1
  Cl  Cl494  1  0.00464448  0.89268896  0.88883789  1
  Cl  Cl495  1  0.49053924  0.22005282  0.87703055  1
  Cl  Cl496  1  0.49186319  0.57429597  0.90827655  1
  Cl  Cl497  1  0.49968374  0.88962699  0.87887120  1
  Cl  Cl498  1  0.01658649  0.11471022  0.37983832  1
  Cl  Cl499  1  0.01193881  0.44791229  0.37350065  1
  Cl  Cl500  1  -0.00525817  0.76877400  0.39684044  1
  Cl  Cl501  1  0.51955112  0.10950351  0.39583740  1
  Cl  Cl502  1  0.51061722  0.44500736  0.38833251  1
  Cl  Cl503  1  0.49702391  0.77201442  0.37842346  1
  Cl  Cl504  1  0.35337886  0.14941067  0.74750181  1
  Cl  Cl505  1  0.35762632  0.48098631  0.75533051  1
  Cl  Cl506  1  0.35303549  0.81716875  0.75046887  1
  Cl  Cl507  1  0.85503043  0.14790094  0.74935508  1
  Cl  Cl508  1  0.85514794  0.48127513  0.75522786  1
  Cl  Cl509  1  0.85395455  0.81544339  0.75963319  1
  Cl  Cl510  1  0.14379189  0.18896231  0.24336303  1
  Cl  Cl511  1  0.14760715  0.51870447  0.24379777  1
  Cl  Cl512  1  0.13931202  0.85205491  0.25209146  1
  Cl  Cl513  1  0.64591218  0.18454099  0.24741087  1
  Cl  Cl514  1  0.64443283  0.51901368  0.24325442  1
  Cl  Cl515  1  0.64370918  0.85246772  0.25771569  1
  Cl  Cl516  1  0.12874100  0.15011726  0.74789596  1
  Cl  Cl517  1  0.13843610  0.48928179  0.74894066  1
  Cl  Cl518  1  0.13539962  0.81314620  0.74370940  1
  Cl  Cl519  1  0.63111656  0.14905986  0.75725733  1
  Cl  Cl520  1  0.62950370  0.48363221  0.75480040  1
  Cl  Cl521  1  0.63069279  0.81358592  0.74247425  1
  Cl  Cl522  1  0.37064015  0.18409426  0.25075052  1
  Cl  Cl523  1  0.37291007  0.52000522  0.24466465  1
  Cl  Cl524  1  0.36458581  0.84945379  0.24994823  1
  Cl  Cl525  1  0.86909292  0.18230267  0.24751864  1
  Cl  Cl526  1  0.86329589  0.51852956  0.25316226  1
  Cl  Cl527  1  0.86389622  0.84625733  0.24328202  1
  Cl  Cl528  1  0.09906524  0.31886355  0.75261612  1
  Cl  Cl529  1  0.10603807  0.64779399  0.74727488  1
  Cl  Cl530  1  0.10499813  0.98162764  0.74620976  1
  Cl  Cl531  1  0.60417920  0.31428570  0.75019531  1
  Cl  Cl532  1  0.60871692  0.64804090  0.75735650  1
  Cl  Cl533  1  0.60436280  0.98091615  0.74894335  1
  Cl  Cl534  1  0.39113985  0.02041345  0.25651756  1
  Cl  Cl535  1  0.40129570  0.34906176  0.24805029  1
  Cl  Cl536  1  0.39182871  0.68836969  0.24014834  1
  Cl  Cl537  1  0.89959888  0.01591796  0.25011671  1
  Cl  Cl538  1  0.89201444  0.35497792  0.24143077  1
  Cl  Cl539  1  0.89549334  0.68165883  0.24322601  1
  Cl  Cl540  1  0.37879541  0.31642760  0.75456394  1
  Cl  Cl541  1  0.39122553  0.65204531  0.74879668  1
  Cl  Cl542  1  0.38282368  0.98430132  0.74817748  1
  Cl  Cl543  1  0.87621841  0.31625357  0.75784970  1
  Cl  Cl544  1  0.88607863  0.64932108  0.74791935  1
  Cl  Cl545  1  0.88645074  0.98172140  0.74685224  1
  Cl  Cl546  1  0.12112073  0.01706256  0.25228221  1
  Cl  Cl547  1  0.11326277  0.35201348  0.25200393  1
  Cl  Cl548  1  0.11721715  0.68333558  0.24609796  1
  Cl  Cl549  1  0.61728246  0.01540574  0.25296662  1
  Cl  Cl550  1  0.62279164  0.35052491  0.24144642  1
  Cl  Cl551  1  0.61320052  0.68535623  0.25486531  1
