# generated using pymatgen
data_H8PbC4(N3Cl2)2
_symmetry_space_group_name_H-M   'P 1'
_cell_length_a   16.63170371
_cell_length_b   22.52262616
_cell_length_c   21.59686808
_cell_angle_alpha   89.99814604
_cell_angle_beta   89.97751931
_cell_angle_gamma   90.00283790
_symmetry_Int_Tables_number   1
_chemical_formula_structural   H8PbC4(N3Cl2)2
_chemical_formula_sum   'H192 Pb24 C96 N144 Cl96'
_cell_volume   8089.96251462
_cell_formula_units_Z   24
loop_
 _symmetry_equiv_pos_site_id
 _symmetry_equiv_pos_as_xyz
  1  'x, y, z'
loop_
 _atom_site_type_symbol
 _atom_site_label
 _atom_site_symmetry_multiplicity
 _atom_site_fract_x
 _atom_site_fract_y
 _atom_site_fract_z
 _atom_site_occupancy
  H  H0  1  -0.00516073  0.02588667  0.67535612  1
  H  H1  1  0.00114037  0.36545576  0.67361186  1
  H  H2  1  0.00786189  0.69645153  0.67405235  1
  H  H3  1  0.49491332  0.02462733  0.67554063  1
  H  H4  1  0.49218979  0.36372901  0.67965034  1
  H  H5  1  0.49730041  0.69254504  0.68000100  1
  H  H6  1  -0.00047379  0.30968117  0.17849191  1
  H  H7  1  0.00925337  0.63211243  0.17504376  1
  H  H8  1  -0.01522207  0.97348979  0.17752694  1
  H  H9  1  0.50768556  0.30839302  0.17134431  1
  H  H10  1  0.48365570  0.64011997  0.17419934  1
  H  H11  1  0.52116298  0.97215157  0.17865679  1
  H  H12  1  0.00621087  0.03131211  0.81980483  1
  H  H13  1  0.00179069  0.35952859  0.82041307  1
  H  H14  1  0.02221446  0.69410600  0.82005497  1
  H  H15  1  0.50559671  0.03000273  0.82120279  1
  H  H16  1  0.51455116  0.36183289  0.82314297  1
  H  H17  1  0.48640169  0.69724019  0.82123566  1
  H  H18  1  0.01514143  0.30107353  0.32319486  1
  H  H19  1  -0.00237481  0.64119718  0.32242306  1
  H  H20  1  0.00297904  0.97358057  0.32224988  1
  H  H21  1  0.47393224  0.30394703  0.32296857  1
  H  H22  1  0.49819059  0.63688163  0.32732209  1
  H  H23  1  0.49871888  0.96960344  0.31964234  1
  H  H24  1  0.25688497  0.19644712  0.68474941  1
  H  H25  1  0.23488935  0.53305820  0.67405015  1
  H  H26  1  0.24583354  0.85971794  0.68340324  1
  H  H27  1  0.73594245  0.19325469  0.67574477  1
  H  H28  1  0.77013183  0.52876607  0.67367822  1
  H  H29  1  0.75707609  0.86191212  0.68094968  1
  H  H30  1  0.25632803  0.13869857  0.17239269  1
  H  H31  1  0.24556166  0.46962968  0.18068811  1
  H  H32  1  0.25477916  0.80855513  0.18115688  1
  H  H33  1  0.74252613  0.14263597  0.17798124  1
  H  H34  1  0.73783789  0.47220920  0.17666826  1
  H  H35  1  0.74640267  0.80057802  0.17810496  1
  H  H36  1  0.24675388  0.18831473  0.82360641  1
  H  H37  1  0.25555482  0.52223297  0.81967978  1
  H  H38  1  0.25235309  0.86386809  0.82089180  1
  H  H39  1  0.75731614  0.20162551  0.82730269  1
  H  H40  1  0.74267841  0.52892039  0.83229777  1
  H  H41  1  0.74765084  0.86136154  0.81886944  1
  H  H42  1  0.25884743  0.12305538  0.31852895  1
  H  H43  1  0.26259920  0.47399510  0.32467170  1
  H  H44  1  0.26713003  0.80203538  0.31953465  1
  H  H45  1  0.73494605  0.13678401  0.32091565  1
  H  H46  1  0.75016159  0.46881395  0.31895346  1
  H  H47  1  0.72804141  0.80764290  0.33020902  1
  H  H48  1  0.12731961  0.04947459  0.61371657  1
  H  H49  1  0.13123473  0.38985912  0.60981869  1
  H  H50  1  0.12428442  0.72163767  0.59962431  1
  H  H51  1  0.63241110  0.05264038  0.62348170  1
  H  H52  1  0.63152337  0.38447898  0.62759187  1
  H  H53  1  0.62970427  0.71578344  0.61611172  1
  H  H54  1  0.37114654  0.28178051  0.11662592  1
  H  H55  1  0.37969322  0.60417575  0.09184882  1
  H  H56  1  0.37804569  0.95528663  0.13127516  1
  H  H57  1  0.87540425  0.28309173  0.10594522  1
  H  H58  1  0.86689759  0.61744083  0.12578868  1
  H  H59  1  0.88370667  0.94000588  0.09324502  1
  H  H60  1  0.36848969  0.05241653  0.87986028  1
  H  H61  1  0.37676213  0.38094336  0.87546258  1
  H  H62  1  0.37925260  0.72550817  0.90426241  1
  H  H63  1  0.87559195  0.05416423  0.88501297  1
  H  H64  1  0.87228228  0.38344846  0.88673321  1
  H  H65  1  0.87846857  0.71266027  0.86913706  1
  H  H66  1  0.11496702  0.27249591  0.40899620  1
  H  H67  1  0.12631757  0.61341603  0.38838502  1
  H  H68  1  0.12555367  0.94793649  0.39254231  1
  H  H69  1  0.61905467  0.28490065  0.37020240  1
  H  H70  1  0.62417233  0.61270816  0.39480944  1
  H  H71  1  0.62644528  0.94607630  0.38469480  1
  H  H72  1  0.37469076  0.22155449  0.60794345  1
  H  H73  1  0.37638320  0.55229641  0.62317797  1
  H  H74  1  0.37046057  0.88731634  0.61343456  1
  H  H75  1  0.87204475  0.21756689  0.61820194  1
  H  H76  1  0.87039035  0.55979711  0.58805125  1
  H  H77  1  0.87453483  0.88668790  0.60504411  1
  H  H78  1  0.12915153  0.11624807  0.10771600  1
  H  H79  1  0.12961687  0.43916208  0.10585023  1
  H  H80  1  0.12887535  0.78050005  0.11468819  1
  H  H81  1  0.63218834  0.11444003  0.09676980  1
  H  H82  1  0.62736617  0.44501417  0.09731317  1
  H  H83  1  0.62253037  0.77624761  0.10886942  1
  H  H84  1  0.13287542  0.22040363  0.90188590  1
  H  H85  1  0.12937473  0.54964817  0.88731784  1
  H  H86  1  0.12391024  0.88829613  0.88853076  1
  H  H87  1  0.62839068  0.22330024  0.89015016  1
  H  H88  1  0.63619486  0.55675601  0.91477362  1
  H  H89  1  0.62472118  0.87937296  0.89209153  1
  H  H90  1  0.36326613  0.10583796  0.40621917  1
  H  H91  1  0.36010401  0.43933273  0.41136907  1
  H  H92  1  0.36807822  0.77199968  0.40563588  1
  H  H93  1  0.86694898  0.11190212  0.38453876  1
  H  H94  1  0.87120740  0.44549702  0.39163141  1
  H  H95  1  0.87458248  0.78777376  0.37157297  1
  H  H96  1  0.37766217  0.27144141  0.41277755  1
  H  H97  1  0.37535221  0.60893257  0.39725284  1
  H  H98  1  0.37733928  0.94724859  0.39174045  1
  H  H99  1  0.87225837  0.28655877  0.37050855  1
  H  H100  1  0.87820651  0.61308328  0.39821351  1
  H  H101  1  0.87689855  0.94350643  0.38914491  1
  H  H102  1  0.12361647  0.05848509  0.89430343  1
  H  H103  1  0.12104061  0.38957216  0.89253944  1
  H  H104  1  0.11957620  0.72714531  0.90878226  1
  H  H105  1  0.61614715  0.05964732  0.90127417  1
  H  H106  1  0.62222928  0.38908798  0.90525515  1
  H  H107  1  0.62573337  0.71429386  0.87853885  1
  H  H108  1  0.12461995  0.27927673  0.11218728  1
  H  H109  1  0.11167574  0.60465048  0.09034375  1
  H  H110  1  0.12766369  0.95537907  0.12725964  1
  H  H111  1  0.61799468  0.27903915  0.09134056  1
  H  H112  1  0.62415979  0.61677490  0.12416057  1
  H  H113  1  0.62075284  0.94030797  0.09100931  1
  H  H114  1  0.38661951  0.05529668  0.59357523  1
  H  H115  1  0.38640923  0.39570877  0.59633657  1
  H  H116  1  0.38134798  0.72220668  0.60456546  1
  H  H117  1  0.88142025  0.05693318  0.59826130  1
  H  H118  1  0.88263231  0.39272880  0.59952596  1
  H  H119  1  0.87556130  0.71542456  0.61114005  1
  H  H120  1  0.11857103  0.11487342  0.37528162  1
  H  H121  1  0.11849710  0.45677570  0.37342489  1
  H  H122  1  0.12412809  0.78534359  0.37099204  1
  H  H123  1  0.61965248  0.10918739  0.39996245  1
  H  H124  1  0.62298571  0.44594488  0.38802611  1
  H  H125  1  0.63559023  0.76862137  0.41725538  1
  H  H126  1  0.38025667  0.21744760  0.88366780  1
  H  H127  1  0.37917172  0.55126920  0.88871563  1
  H  H128  1  0.37154144  0.89197115  0.89609313  1
  H  H129  1  0.87641204  0.22265608  0.90050043  1
  H  H130  1  0.88089546  0.54792295  0.88346550  1
  H  H131  1  0.87165296  0.89056283  0.88681515  1
  H  H132  1  0.37753977  0.11402029  0.10247258  1
  H  H133  1  0.37790097  0.44751689  0.11711098  1
  H  H134  1  0.37809841  0.78023937  0.11068463  1
  H  H135  1  0.87931369  0.11924860  0.12259666  1
  H  H136  1  0.87351369  0.45206428  0.12167004  1
  H  H137  1  0.87113802  0.77861121  0.11020267  1
  H  H138  1  0.12613292  0.22107330  0.62282732  1
  H  H139  1  0.13246179  0.56308936  0.58895535  1
  H  H140  1  0.12170062  0.88433805  0.61324174  1
  H  H141  1  0.62502074  0.22342956  0.59576763  1
  H  H142  1  0.62755374  0.54978521  0.62543963  1
  H  H143  1  0.62618875  0.88714647  0.61676570  1
  H  H144  1  0.38759992  0.92292492  0.01828318  1
  H  H145  1  0.03515790  0.57661567  -0.01342249  1
  H  H146  1  0.42503450  0.91472195  0.49995175  1
  H  H147  1  0.33032810  0.58357250  0.99760429  1
  H  H148  1  0.96013718  0.91009436  -0.00804082  1
  H  H149  1  0.31414071  0.24008283  0.50301386  1
  H  H150  1  0.86796821  0.58306771  0.00189388  1
  H  H151  1  0.87127713  0.75090367  0.48115888  1
  H  H152  1  0.85523801  0.08852199  0.00990925  1
  H  H153  1  0.82830053  0.74511047  -0.00061913  1
  H  H154  1  0.45822280  0.57541931  -0.00641185  1
  H  H155  1  0.68558561  0.88165333  0.99785070  1
  H  H156  1  0.12884704  0.42240579  0.48159778  1
  H  H157  1  0.07043054  0.75036411  0.49092476  1
  H  H158  1  0.93936299  0.42114027  0.49567471  1
  H  H159  1  0.69195144  0.25485836  0.49287682  1
  H  H160  1  0.58866969  0.91639148  0.49620522  1
  H  H161  1  0.14002562  0.09230767  0.48522840  1
  H  H162  1  0.32479444  0.76174863  0.00313139  1
  H  H163  1  0.54009668  0.92067834  -0.00667991  1
  H  H164  1  0.94741043  0.08179548  0.49561456  1
  H  H165  1  0.44409868  0.75398107  0.49839865  1
  H  H166  1  0.61346259  0.41714548  0.51499877  1
  H  H167  1  0.45386301  0.75218941  1.00830086  1
  H  H168  1  0.81230491  0.93963497  0.97985620  1
  H  H169  1  0.46641769  0.24692037  0.50733560  1
  H  H170  1  0.70200437  0.09288843  -0.00546158  1
  H  H171  1  0.17823660  0.57133191  0.99515721  1
  H  H172  1  0.85116066  0.42034914  1.00722973  1
  H  H173  1  0.03734255  0.24518704  0.51178411  1
  H  H174  1  0.28830290  0.74430600  0.50638950  1
  H  H175  1  0.88052052  0.25516568  0.48443526  1
  H  H176  1  0.16258522  0.25266097  0.51084068  1
  H  H177  1  0.39481493  0.41176910  -0.00937359  1
  H  H178  1  0.17271789  0.74718584  0.00531141  1
  H  H179  1  0.45969211  0.41666319  0.49584710  1
  H  H180  1  0.81626065  0.91858666  0.49924803  1
  H  H181  1  0.27519575  0.42299841  0.50918715  1
  H  H182  1  0.03320230  0.75132888  1.00444562  1
  H  H183  1  0.39907433  0.25006120  0.00847567  1
  H  H184  1  0.46027397  0.08591482  0.49465562  1
  H  H185  1  0.11154495  0.92697852  0.01801839  1
  H  H186  1  0.64093800  0.57978641  0.51565409  1
  H  H187  1  0.07679010  0.24466498  0.00418848  1
  H  H188  1  0.54650818  0.09301689  1.00408918  1
  H  H189  1  0.42455504  0.58257859  0.50236305  1
  H  H190  1  0.16909012  0.91273957  0.50433742  1
  H  H191  1  0.28122208  0.07495943  0.50204274  1
  Pb  Pb192  1  0.25197221  0.04634531  0.73905243  1
  Pb  Pb193  1  0.24704637  0.38477385  0.74447798  1
  Pb  Pb194  1  0.25049023  0.71572582  0.75466489  1
  Pb  Pb195  1  0.74687282  0.05336743  0.75838462  1
  Pb  Pb196  1  0.75303855  0.38205168  0.75269228  1
  Pb  Pb197  1  0.75038422  0.71313066  0.74445391  1
  Pb  Pb198  1  0.25387476  0.28113513  0.26288697  1
  Pb  Pb199  1  0.25288415  0.61495808  0.24054717  1
  Pb  Pb200  1  0.24920126  0.95280906  0.25805259  1
  Pb  Pb201  1  0.75090141  0.28678578  0.24100514  1
  Pb  Pb202  1  0.75027450  0.61901809  0.26248538  1
  Pb  Pb203  1  0.75464218  0.94725394  0.23945903  1
  Pb  Pb204  1  0.00316565  0.21507022  0.75685136  1
  Pb  Pb205  1  -0.00300430  0.54940484  0.74058511  1
  Pb  Pb206  1  -0.00433548  0.88425082  0.75159881  1
  Pb  Pb207  1  0.49756075  0.21804871  0.74348025  1
  Pb  Pb208  1  0.50373178  0.54724950  0.75834827  1
  Pb  Pb209  1  0.50217168  0.88167716  0.75420284  1
  Pb  Pb210  1  -0.00214606  0.11965774  0.25410880  1
  Pb  Pb211  1  -0.00124732  0.45062174  0.25187352  1
  Pb  Pb212  1  0.00408517  0.78295387  0.23761047  1
  Pb  Pb213  1  0.50475214  0.11556037  0.25176769  1
  Pb  Pb214  1  0.50238465  0.44970077  0.25595957  1
  Pb  Pb215  1  0.49928333  0.78345734  0.25918715  1
  C  C216  1  0.00124206  0.04315580  0.62870570  1
  C  C217  1  0.00471987  0.38214848  0.62648202  1
  C  C218  1  0.00306650  0.71131874  0.62645737  1
  C  C219  1  0.50446370  0.04299783  0.62980992  1
  C  C220  1  0.50327009  0.37939830  0.63275613  1
  C  C221  1  0.50295823  0.70985016  0.63333335  1
  C  C222  1  -0.00040648  0.29126468  0.13212506  1
  C  C223  1  -0.00415476  0.61837705  0.12799132  1
  C  C224  1  -0.00058943  0.95745790  0.13134708  1
  C  C225  1  0.49830368  0.29059727  0.12532852  1
  C  C226  1  0.49537717  0.62199767  0.12868990  1
  C  C227  1  0.50674722  0.95690109  0.13209761  1
  C  C228  1  0.00129212  0.04719836  0.86682161  1
  C  C229  1  -0.00191620  0.37658536  0.86709740  1
  C  C230  1  0.00724454  0.71015379  0.86604730  1
  C  C231  1  0.49652638  0.04667461  0.86783161  1
  C  C232  1  0.50351027  0.37722155  0.86990702  1
  C  C233  1  0.49738017  0.71219980  0.86825886  1
  C  C234  1  0.00022022  0.28631944  0.36967215  1
  C  C235  1  0.00066259  0.62347450  0.36906136  1
  C  C236  1  0.00150500  0.95560946  0.36851508  1
  C  C237  1  0.48982602  0.28755161  0.36862943  1
  C  C238  1  0.49882160  0.61948574  0.37412233  1
  C  C239  1  0.50095179  0.95376386  0.36718242  1
  C  C240  1  0.25297823  0.21220136  0.63729266  1
  C  C241  1  0.24827848  0.54910549  0.62807596  1
  C  C242  1  0.24625986  0.87644320  0.63630936  1
  C  C243  1  0.74441217  0.21107289  0.62952916  1
  C  C244  1  0.75537016  0.54502374  0.62781848  1
  C  C245  1  0.75232800  0.87790625  0.63367309  1
  C  C246  1  0.25425697  0.12308983  0.12475292  1
  C  C247  1  0.25133801  0.45304548  0.13396288  1
  C  C248  1  0.25439331  0.79130275  0.13412579  1
  C  C249  1  0.75121749  0.12671257  0.13082683  1
  C  C250  1  0.74718783  0.45657767  0.12975709  1
  C  C251  1  0.74727224  0.78543207  0.13053425  1
  C  C252  1  0.25329125  0.20691995  0.86974207  1
  C  C253  1  0.25433119  0.53988206  0.86654569  1
  C  C254  1  0.24929966  0.88064043  0.86803450  1
  C  C255  1  0.75395818  0.21598778  0.87513370  1
  C  C256  1  0.75383939  0.54465958  0.87893779  1
  C  C257  1  0.74803261  0.87664744  0.86656181  1
  C  C258  1  0.24650135  0.11408496  0.36713087  1
  C  C259  1  0.24661399  0.45746645  0.37040803  1
  C  C260  1  0.25279495  0.78695724  0.36599726  1
  C  C261  1  0.74037855  0.12046064  0.36794816  1
  C  C262  1  0.74753907  0.45418761  0.36650113  1
  C  C263  1  0.74664953  0.78907385  0.37426198  1
  C  C264  1  0.81527185  0.57253549  0.96527976  1
  C  C265  1  0.54623740  0.92654913  0.45935919  1
  C  C266  1  0.02987414  0.41128920  0.95853468  1
  C  C267  1  0.48139634  0.74083559  0.96409835  1
  C  C268  1  0.43802459  0.93031246  0.04959798  1
  C  C269  1  0.56558595  0.40806785  0.54815472  1
  C  C270  1  0.44336656  0.40348520  0.95762775  1
  C  C271  1  0.95150061  0.73661997  0.53608691  1
  C  C272  1  0.73461452  0.57546805  0.97442513  1
  C  C273  1  0.56538329  0.07874579  0.54611934  1
  C  C274  1  0.76854295  0.57812013  0.53122954  1
  C  C275  1  0.21036497  0.09512169  0.03451176  1
  C  C276  1  0.22344288  0.41901433  0.04143377  1
  C  C277  1  0.23601667  0.58123655  0.53282457  1
  C  C278  1  0.26257171  0.75707954  0.46190108  1
  C  C279  1  0.70721984  0.24257378  0.96531354  1
  C  C280  1  0.80391422  0.42961055  0.04081637  1
  C  C281  1  0.51637376  0.07914847  0.96175089  1
  C  C282  1  0.78795157  0.75687684  0.03706989  1
  C  C283  1  0.05382240  0.40937000  0.53536661  1
  C  C284  1  0.93163388  0.26274084  0.45384515  1
  C  C285  1  0.98585297  0.92505740  0.03559467  1
  C  C286  1  0.54333436  0.59070913  0.46650554  1
  C  C287  1  0.78771191  0.24255542  0.96867369  1
  C  C288  1  0.72306628  0.42761605  0.03408994  1
  C  C289  1  0.46410801  0.92594424  0.46135642  1
  C  C290  1  0.20925471  0.90296293  0.54342447  1
  C  C291  1  0.01142771  0.25796972  0.46757101  1
  C  C292  1  0.03134900  0.07854729  0.96010148  1
  C  C293  1  0.52284451  0.25627382  0.03068630  1
  C  C294  1  0.78104004  0.90720441  0.54000637  1
  C  C295  1  0.47677282  0.74161239  0.54015026  1
  C  C296  1  0.29047476  0.09413748  0.03281666  1
  C  C297  1  0.03266320  0.73914302  0.53037580  1
  C  C298  1  0.78244622  0.42710094  0.46030830  1
  C  C299  1  0.52406716  0.40615683  0.96616638  1
  C  C300  1  0.74169638  0.75072175  0.46922121  1
  C  C301  1  0.21139423  0.75943929  0.04382173  1
  C  C302  1  0.72335736  0.24292199  0.53537036  1
  C  C303  1  0.92842712  0.59485713  0.04329770  1
  C  C304  1  0.70649773  0.75702994  0.03803402  1
  C  C305  1  0.80913736  0.09750159  0.04460607  1
  C  C306  1  0.29353405  0.57209200  0.95770354  1
  C  C307  1  0.20367196  0.24193143  0.54822295  1
  C  C308  1  0.03796848  0.92239005  0.45958647  1
  C  C309  1  0.00828597  0.58994838  0.03041807  1
  C  C310  1  0.03793414  0.25810544  0.04211010  1
  C  C311  1  0.56056252  0.58788556  0.04618737  1
  N  N312  1  0.29107509  0.76016537  0.04279231  1
  N  N313  1  0.48554741  0.25458744  0.46213680  1
  N  N314  1  0.51578020  0.92466942  0.03706755  1
  N  N315  1  0.01298061  0.74277684  0.95974076  1
  N  N316  1  0.48706261  0.41193141  0.53868055  1
  N  N317  1  0.17947279  0.43603707  0.45311927  1
  N  N318  1  0.81717215  0.75837468  0.45336389  1
  N  N319  1  0.70188025  0.90770510  0.54359207  1
  N  N320  1  0.96016915  0.92143933  0.46000776  1
  N  N321  1  0.28880954  0.90393496  0.54293265  1
  N  N322  1  0.18534073  0.10704711  0.45531133  1
  N  N323  1  0.30393262  0.23910852  0.95755241  1
  N  N324  1  0.55965395  0.73772897  0.95521684  1
  N  N325  1  0.95874315  0.25883746  0.04022577  1
  N  N326  1  0.25517187  0.42157808  0.46336656  1
  N  N327  1  0.20547390  0.91032681  0.95918248  1
  N  N328  1  0.44469121  0.25811732  0.04001789  1
  N  N329  1  0.46392540  0.58954259  0.46633159  1
  N  N330  1  0.71286980  0.08956834  0.46251091  1
  N  N331  1  0.80179919  0.24198917  0.54289019  1
  N  N332  1  0.78990278  0.90238753  0.95847299  1
  N  N333  1  0.78897015  0.09061528  0.45772672  1
  N  N334  1  0.69162440  0.57311999  0.54453640  1
  N  N335  1  0.22795900  0.24051497  0.96343390  1
  N  N336  1  0.05514282  0.07291649  0.54083465  1
  N  N337  1  0.73011103  0.09529276  0.03696196  1
  N  N338  1  0.31241729  0.57699069  0.54232054  1
  N  N339  1  0.28174067  0.91098877  0.96179288  1
  N  N340  1  0.56149449  0.25903835  0.44902397  1
  N  N341  1  0.95245771  0.40907573  0.95770029  1
  N  N342  1  0.97485829  0.41086184  0.53303379  1
  N  N343  1  0.43775710  0.07633732  0.95481380  1
  N  N344  1  0.28323003  0.24160623  0.54411034  1
  N  N345  1  0.21387834  0.57167335  0.95647986  1
  N  N346  1  0.48288691  0.58498735  0.03620125  1
  N  N347  1  0.26357875  0.10336963  0.46644704  1
  N  N348  1  0.70476172  0.42766337  0.46018665  1
  N  N349  1  0.55579616  0.74020089  0.54429499  1
  N  N350  1  0.30065131  0.42236622  0.04386645  1
  N  N351  1  0.04459521  0.59159364  0.45942339  1
  N  N352  1  0.97724542  0.07654069  0.53708085  1
  N  N353  1  0.93702841  0.73766900  0.94752466  1
  N  N354  1  0.96869764  0.59093919  0.46205045  1
  N  N355  1  0.48740926  0.07827691  0.53701542  1
  N  N356  1  0.18504956  0.76083879  0.45031777  1
  N  N357  1  0.70764613  0.90233800  0.95893493  1
  N  N358  1  0.95398751  0.07660197  0.95836065  1
  N  N359  1  0.06339024  0.93107008  0.04796292  1
  N  N360  1  0.06924857  0.05466575  0.59887970  1
  N  N361  1  0.07285572  0.39236829  0.59365688  1
  N  N362  1  0.06371333  0.72311494  0.58814676  1
  N  N363  1  0.57618273  0.05760104  0.60374813  1
  N  N364  1  0.57576478  0.38939218  0.60691306  1
  N  N365  1  0.57011765  0.72058046  0.60234108  1
  N  N366  1  0.42887753  0.28002511  0.09804601  1
  N  N367  1  0.44133136  0.60830207  0.08599069  1
  N  N368  1  0.43246747  0.94851756  0.10891016  1
  N  N369  1  0.93657491  0.27957258  0.09647307  1
  N  N370  1  0.92185352  0.61212684  0.10328365  1
  N  N371  1  0.94570535  0.94083694  0.08758572  1
  N  N372  1  0.42724458  0.05637476  0.89640658  1
  N  N373  1  0.43215085  0.38571154  0.89657243  1
  N  N374  1  0.44131067  0.72560496  0.91088525  1
  N  N375  1  0.93493781  0.05687550  0.89881675  1
  N  N376  1  0.93237641  0.38687522  0.89965414  1
  N  N377  1  0.93407641  0.71932044  0.88891125  1
  N  N378  1  0.05319087  0.27285866  0.41450836  1
  N  N379  1  0.06622622  0.61172414  0.40175358  1
  N  N380  1  0.06547856  0.94298795  0.40449634  1
  N  N381  1  0.56338295  0.27740428  0.39028777  1
  N  N382  1  0.56484407  0.60818737  0.40892264  1
  N  N383  1  0.56756597  0.94360438  0.40058083  1
  N  N384  1  0.31325307  0.21937472  0.59805362  1
  N  N385  1  0.31984928  0.55688143  0.60318486  1
  N  N386  1  0.30984214  0.88771515  0.60123796  1
  N  N387  1  0.81358411  0.22197608  0.60163007  1
  N  N388  1  0.80839202  0.56076912  0.58271132  1
  N  N389  1  0.81336724  0.88904366  0.59484218  1
  N  N390  1  0.18745552  0.11236272  0.09071263  1
  N  N391  1  0.19081539  0.43780104  0.09548412  1
  N  N392  1  0.18858765  0.77686677  0.10090172  1
  N  N393  1  0.69450062  0.11680791  0.08909562  1
  N  N394  1  0.68878453  0.44357378  0.08758741  1
  N  N395  1  0.68212912  0.77403550  0.09427618  1
  N  N396  1  0.19514728  0.22062292  0.90917350  1
  N  N397  1  0.19000026  0.54861273  0.90129162  1
  N  N398  1  0.18392345  0.89144389  0.90118292  1
  N  N399  1  0.68633091  0.22655780  0.90813790  1
  N  N400  1  0.69778777  0.55851810  0.92210994  1
  N  N401  1  0.68534145  0.87782083  0.90421007  1
  N  N402  1  0.30065524  0.10400991  0.41080742  1
  N  N403  1  0.29767731  0.44431262  0.41561645  1
  N  N404  1  0.30571458  0.77302049  0.41061246  1
  N  N405  1  0.80735267  0.10983256  0.39909228  1
  N  N406  1  0.81058720  0.44317391  0.40383704  1
  N  N407  1  0.82060964  0.78224998  0.39489302  1
  N  N408  1  0.44026573  0.27455494  0.41462163  1
  N  N409  1  0.43613138  0.60802153  0.40949120  1
  N  N410  1  0.43747871  0.94269215  0.40369407  1
  N  N411  1  0.92630721  0.27987657  0.39328913  1
  N  N412  1  0.93975131  0.61052548  0.40630232  1
  N  N413  1  0.93743428  0.94244523  0.40190469  1
  N  N414  1  0.06266820  0.06054833  0.90531092  1
  N  N415  1  0.06023520  0.39167844  0.90404503  1
  N  N416  1  0.05748505  0.72352023  0.91143720  1
  N  N417  1  0.55414079  0.06093222  0.90875516  1
  N  N418  1  0.56026668  0.39043986  0.91333663  1
  N  N419  1  0.56765340  0.71983320  0.89589432  1
  N  N420  1  0.06463122  0.27736243  0.09832347  1
  N  N421  1  0.04963717  0.60509325  0.08421758  1
  N  N422  1  0.07133595  0.95277767  0.10616607  1
  N  N423  1  0.55637502  0.27603181  0.08360601  1
  N  N424  1  0.56833905  0.60998083  0.10370197  1
  N  N425  1  0.55834877  0.94463679  0.08719276  1
  N  N426  1  0.44883062  0.05449256  0.58769362  1
  N  N427  1  0.44848550  0.39090098  0.58993711  1
  N  N428  1  0.44263256  0.72336801  0.59450029  1
  N  N429  1  0.94296503  0.05531917  0.58908331  1
  N  N430  1  0.94408763  0.39318991  0.58902901  1
  N  N431  1  0.93406686  0.72002696  0.59444231  1
  N  N432  1  0.17532677  0.11331388  0.39449871  1
  N  N433  1  0.17373243  0.44927268  0.39310810  1
  N  N434  1  0.18077382  0.77928217  0.39057507  1
  N  N435  1  0.68125872  0.10799658  0.40703091  1
  N  N436  1  0.68280554  0.44488787  0.40064068  1
  N  N437  1  0.69745907  0.76973625  0.42046942  1
  N  N438  1  0.32112701  0.21825661  0.89956296  1
  N  N439  1  0.31886180  0.55423970  0.90131931  1
  N  N440  1  0.31032928  0.89255984  0.90546588  1
  N  N441  1  0.81664849  0.22641718  0.91366780  1
  N  N442  1  0.82570845  0.55341712  0.90491971  1
  N  N443  1  0.81111975  0.89515456  0.89833854  1
  N  N444  1  0.31827305  0.11085357  0.08786884  1
  N  N445  1  0.31840555  0.44369383  0.10267603  1
  N  N446  1  0.31741316  0.78341975  0.09765443  1
  N  N447  1  0.82222168  0.11491957  0.10346245  1
  N  N448  1  0.81747408  0.44775573  0.10159283  1
  N  N449  1  0.81217290  0.77494539  0.09592782  1
  N  N450  1  0.18472783  0.22546966  0.60640255  1
  N  N451  1  0.19437374  0.56437756  0.58389952  1
  N  N452  1  0.18193883  0.88655959  0.60048336  1
  N  N453  1  0.68664108  0.22475157  0.58855226  1
  N  N454  1  0.68312211  0.55182528  0.60384653  1
  N  N455  1  0.68574495  0.88939771  0.60226783  1
  Cl  Cl456  1  0.26184857  0.05404523  0.59868690  1
  Cl  Cl457  1  0.26286081  0.39909179  0.60248165  1
  Cl  Cl458  1  0.25570744  0.72304336  0.61905410  1
  Cl  Cl459  1  0.76257626  0.05570653  0.62724011  1
  Cl  Cl460  1  0.76192565  0.39027974  0.62012175  1
  Cl  Cl461  1  0.75344626  0.71665648  0.60998989  1
  Cl  Cl462  1  0.24742662  0.27847901  0.13120191  1
  Cl  Cl463  1  0.24436013  0.60341415  0.09763681  1
  Cl  Cl464  1  0.25096398  0.94870717  0.12668014  1
  Cl  Cl465  1  0.74515912  0.28053027  0.10599940  1
  Cl  Cl466  1  0.74367704  0.61954246  0.13516665  1
  Cl  Cl467  1  0.74912862  0.93871594  0.09770786  1
  Cl  Cl468  1  0.24420163  0.05371150  0.86992679  1
  Cl  Cl469  1  0.24373905  0.38904026  0.87445841  1
  Cl  Cl470  1  0.25051271  0.72769048  0.90057700  1
  Cl  Cl471  1  0.74087381  0.05723126  0.89843834  1
  Cl  Cl472  1  0.74482700  0.38875736  0.88702996  1
  Cl  Cl473  1  0.75014187  0.71468204  0.87470227  1
  Cl  Cl474  1  0.25361139  0.26958722  0.40598574  1
  Cl  Cl475  1  0.25294595  0.61119634  0.37492944  1
  Cl  Cl476  1  0.24997322  0.95249877  0.39111286  1
  Cl  Cl477  1  0.74358585  0.28667297  0.37348911  1
  Cl  Cl478  1  0.75097258  0.61295957  0.39841146  1
  Cl  Cl479  1  0.75376897  0.94054960  0.37291465  1
  Cl  Cl480  1  0.00078140  0.21865804  0.62155282  1
  Cl  Cl481  1  -0.00000317  0.55356391  0.61003685  1
  Cl  Cl482  1  -0.00263785  0.88647291  0.62139702  1
  Cl  Cl483  1  0.49692284  0.22534459  0.60120682  1
  Cl  Cl484  1  0.50114892  0.55622261  0.62379918  1
  Cl  Cl485  1  0.49732382  0.89097656  0.62179421  1
  Cl  Cl486  1  0.00372061  0.11522609  0.12659624  1
  Cl  Cl487  1  0.00775263  0.44039135  0.12482899  1
  Cl  Cl488  1  0.00695438  0.77676347  0.09906829  1
  Cl  Cl489  1  0.51103650  0.11253139  0.11602812  1
  Cl  Cl490  1  0.50570946  0.44785363  0.12318103  1
  Cl  Cl491  1  0.49725544  0.77476101  0.12136874  1
  Cl  Cl492  1  0.01014903  0.22210077  0.89004706  1
  Cl  Cl493  1  0.01121860  0.55374070  0.87642061  1
  Cl  Cl494  1  -0.00394830  0.88864311  0.88969133  1
  Cl  Cl495  1  0.50301876  0.22405391  0.87579701  1
  Cl  Cl496  1  0.50426836  0.55608666  0.89661117  1
  Cl  Cl497  1  0.50203235  0.89439009  0.89497052  1
  Cl  Cl498  1  -0.00909249  0.10454611  0.39081255  1
  Cl  Cl499  1  -0.00904324  0.44204981  0.39036936  1
  Cl  Cl500  1  -0.00055149  0.78608654  0.36819604  1
  Cl  Cl501  1  0.48608339  0.10685888  0.39834368  1
  Cl  Cl502  1  0.48194690  0.43806438  0.39883278  1
  Cl  Cl503  1  0.49508885  0.76946748  0.39293929  1
  Cl  Cl504  1  0.36432645  0.14726197  0.74680676  1
  Cl  Cl505  1  0.36941364  0.47846099  0.74347189  1
  Cl  Cl506  1  0.36425366  0.81525779  0.75500519  1
  Cl  Cl507  1  0.86657988  0.14875006  0.75545129  1
  Cl  Cl508  1  0.85810723  0.48684641  0.75877325  1
  Cl  Cl509  1  0.86025159  0.81511206  0.75681439  1
  Cl  Cl510  1  0.13405284  0.18541974  0.26126309  1
  Cl  Cl511  1  0.13235117  0.52060428  0.25686060  1
  Cl  Cl512  1  0.13818693  0.85178016  0.24953367  1
  Cl  Cl513  1  0.63693785  0.18641072  0.25003188  1
  Cl  Cl514  1  0.63819526  0.51759156  0.26019869  1
  Cl  Cl515  1  0.63734366  0.85005655  0.24796748  1
  Cl  Cl516  1  0.14119120  0.14767802  0.74189599  1
  Cl  Cl517  1  0.14750221  0.48206860  0.74472035  1
  Cl  Cl518  1  0.14254752  0.81529393  0.75780166  1
  Cl  Cl519  1  0.64742211  0.15072235  0.74978768  1
  Cl  Cl520  1  0.64028700  0.48245728  0.74108187  1
  Cl  Cl521  1  0.64126252  0.81586225  0.74783305  1
  Cl  Cl522  1  0.35315621  0.18185199  0.25214451  1
  Cl  Cl523  1  0.35262937  0.51766929  0.24758602  1
  Cl  Cl524  1  0.36089753  0.85199241  0.25174753  1
  Cl  Cl525  1  0.85818972  0.18599271  0.25381281  1
  Cl  Cl526  1  0.86221053  0.52014123  0.24208188  1
  Cl  Cl527  1  0.85695188  0.85289030  0.24662700  1
  Cl  Cl528  1  0.11254172  0.31677642  0.73792976  1
  Cl  Cl529  1  0.11537736  0.64721282  0.74574244  1
  Cl  Cl530  1  0.11099751  0.98238500  0.74021770  1
  Cl  Cl531  1  0.61182937  0.31743967  0.74425098  1
  Cl  Cl532  1  0.60918562  0.65115188  0.74846701  1
  Cl  Cl533  1  0.61257079  0.98357611  0.74957284  1
  Cl  Cl534  1  0.39057046  0.01634951  0.24976586  1
  Cl  Cl535  1  0.38626388  0.35121198  0.24557204  1
  Cl  Cl536  1  0.38789156  0.68289074  0.24589655  1
  Cl  Cl537  1  0.88675409  0.01868833  0.24738920  1
  Cl  Cl538  1  0.88635838  0.35122246  0.25540154  1
  Cl  Cl539  1  0.88481841  0.68800712  0.24803217  1
  Cl  Cl540  1  0.39183014  0.31162301  0.74929570  1
  Cl  Cl541  1  0.38623502  0.64492198  0.75535157  1
  Cl  Cl542  1  0.39202505  0.98287605  0.75193263  1
  Cl  Cl543  1  0.89298352  0.31682060  0.75098251  1
  Cl  Cl544  1  0.89499417  0.65075534  0.74953357  1
  Cl  Cl545  1  0.89120489  0.97978488  0.76316975  1
  Cl  Cl546  1  0.10991534  0.01908970  0.25274377  1
  Cl  Cl547  1  0.10841195  0.35242059  0.26187156  1
  Cl  Cl548  1  0.10523737  0.68627531  0.24316714  1
  Cl  Cl549  1  0.60962979  0.02076235  0.25461027  1
  Cl  Cl550  1  0.60213419  0.35335679  0.25628086  1
  Cl  Cl551  1  0.60897656  0.68184038  0.25650219  1
