# generated using pymatgen
data_H8PbC4(N3Cl2)2
_symmetry_space_group_name_H-M   'P 1'
_cell_length_a   16.63948619
_cell_length_b   22.53125800
_cell_length_c   21.60476298
_cell_angle_alpha   90.00048681
_cell_angle_beta   90.00073371
_cell_angle_gamma   89.99772792
_symmetry_Int_Tables_number   1
_chemical_formula_structural   H8PbC4(N3Cl2)2
_chemical_formula_sum   'H192 Pb24 C96 N144 Cl96'
_cell_volume   8099.81048825
_cell_formula_units_Z   24
loop_
 _symmetry_equiv_pos_site_id
 _symmetry_equiv_pos_as_xyz
  1  'x, y, z'
loop_
 _atom_site_type_symbol
 _atom_site_label
 _atom_site_symmetry_multiplicity
 _atom_site_fract_x
 _atom_site_fract_y
 _atom_site_fract_z
 _atom_site_occupancy
  H  H0  1  0.00486913  0.02715533  0.67102759  1
  H  H1  1  -0.00382500  0.35901961  0.67464838  1
  H  H2  1  0.01526942  0.69258575  0.67351749  1
  H  H3  1  0.49496675  0.01810157  0.67162261  1
  H  H4  1  0.49899338  0.35812975  0.67483557  1
  H  H5  1  0.48668704  0.70052555  0.68044894  1
  H  H6  1  0.01222127  0.29985921  0.17639895  1
  H  H7  1  0.00027958  0.63489073  0.18761924  1
  H  H8  1  -0.00914736  0.97138323  0.17802610  1
  H  H9  1  0.48588181  0.30421050  0.17636466  1
  H  H10  1  0.50870008  0.64058322  0.18002588  1
  H  H11  1  0.51463184  0.96967764  0.18359877  1
  H  H12  1  0.00534614  0.03081338  0.81945229  1
  H  H13  1  0.01277020  0.35797794  0.82381482  1
  H  H14  1  -0.01590433  0.70216534  0.81861125  1
  H  H15  1  0.51506930  0.03299148  0.82294546  1
  H  H16  1  0.51157307  0.36604420  0.82097292  1
  H  H17  1  0.51884448  0.68986341  0.82039562  1
  H  H18  1  0.00255702  0.31475367  0.32646267  1
  H  H19  1  -0.00625836  0.63854569  0.32782852  1
  H  H20  1  0.00017734  0.97856102  0.32018256  1
  H  H21  1  0.49932752  0.30848023  0.32447987  1
  H  H22  1  0.50358856  0.63915779  0.31483303  1
  H  H23  1  0.50130541  0.97522695  0.32425179  1
  H  H24  1  0.25031558  0.19095848  0.67706045  1
  H  H25  1  0.27446968  0.51616680  0.67107445  1
  H  H26  1  0.26466900  0.86688766  0.67859656  1
  H  H27  1  0.75010157  0.19189885  0.67646100  1
  H  H28  1  0.72376552  0.52210654  0.67196080  1
  H  H29  1  0.74065912  0.85554472  0.67228547  1
  H  H30  1  0.25876122  0.14109313  0.17876485  1
  H  H31  1  0.23606418  0.47318794  0.17764504  1
  H  H32  1  0.25330111  0.80442472  0.17630797  1
  H  H33  1  0.74019526  0.14759002  0.17632640  1
  H  H34  1  0.74972640  0.46845501  0.18005946  1
  H  H35  1  0.74362398  0.80253792  0.18525031  1
  H  H36  1  0.26668467  0.19271504  0.82101915  1
  H  H37  1  0.24183450  0.53211605  0.81825526  1
  H  H38  1  0.26295217  0.85590350  0.82689790  1
  H  H39  1  0.74740058  0.19804685  0.81440222  1
  H  H40  1  0.74086360  0.52294490  0.82304086  1
  H  H41  1  0.72908999  0.86884968  0.81634661  1
  H  H42  1  0.26689991  0.14383660  0.32844243  1
  H  H43  1  0.25387329  0.47134704  0.32401756  1
  H  H44  1  0.25361514  0.81255751  0.32258102  1
  H  H45  1  0.74753543  0.13694673  0.32353951  1
  H  H46  1  0.74805076  0.46771703  0.32931852  1
  H  H47  1  0.74419678  0.81058720  0.32422474  1
  H  H48  1  0.11157439  0.05541532  0.58922121  1
  H  H49  1  0.12387358  0.38829879  0.60843468  1
  H  H50  1  0.12520875  0.72562350  0.59311480  1
  H  H51  1  0.61063639  0.05383345  0.59715382  1
  H  H52  1  0.62262699  0.38649595  0.60442351  1
  H  H53  1  0.62922510  0.71543049  0.63280192  1
  H  H54  1  0.36582206  0.27923792  0.10284374  1
  H  H55  1  0.37097009  0.61749328  0.12316158  1
  H  H56  1  0.38243339  0.94539167  0.12017838  1
  H  H57  1  0.87211587  0.28358125  0.12517612  1
  H  H58  1  0.86840872  0.61367901  0.12664932  1
  H  H59  1  0.88277042  0.94452748  0.09675513  1
  H  H60  1  0.37140266  0.04939875  0.87191712  1
  H  H61  1  0.37739439  0.38111843  0.87844388  1
  H  H62  1  0.37687436  0.71604834  0.86955656  1
  H  H63  1  0.87268378  0.05375968  0.88193524  1
  H  H64  1  0.86774801  0.37997804  0.86666739  1
  H  H65  1  0.88317840  0.72447266  0.90580904  1
  H  H66  1  0.11774594  0.27933042  0.39918354  1
  H  H67  1  0.12326258  0.61433366  0.39071425  1
  H  H68  1  0.12496532  0.94994178  0.39032714  1
  H  H69  1  0.61779130  0.28303902  0.39907498  1
  H  H70  1  0.62648244  0.61311673  0.38439496  1
  H  H71  1  0.62507559  0.94323634  0.39334197  1
  H  H72  1  0.38414721  0.21859315  0.61716887  1
  H  H73  1  0.36464198  0.55890541  0.58314305  1
  H  H74  1  0.37204030  0.89418740  0.59708005  1
  H  H75  1  0.88274476  0.21494324  0.61383551  1
  H  H76  1  0.87101262  0.54389765  0.63193710  1
  H  H77  1  0.86823279  0.88468865  0.60719901  1
  H  H78  1  0.13073633  0.11417069  0.11231732  1
  H  H79  1  0.13635473  0.44001346  0.09059288  1
  H  H80  1  0.12066320  0.78111381  0.11504959  1
  H  H81  1  0.63440922  0.11235694  0.09423793  1
  H  H82  1  0.62938951  0.44314353  0.10519049  1
  H  H83  1  0.62092098  0.77980368  0.11450343  1
  H  H84  1  0.13511021  0.21852473  0.88440608  1
  H  H85  1  0.13510230  0.55630962  0.90156701  1
  H  H86  1  0.12166810  0.88464184  0.87327402  1
  H  H87  1  0.63163925  0.22456170  0.89318223  1
  H  H88  1  0.63400050  0.55696226  0.90387711  1
  H  H89  1  0.61793307  0.89009092  0.89795602  1
  H  H90  1  0.38296646  0.10822694  0.40099759  1
  H  H91  1  0.37367575  0.44136006  0.39584573  1
  H  H92  1  0.36737262  0.78108956  0.39984314  1
  H  H93  1  0.88599514  0.11989283  0.37792530  1
  H  H94  1  0.87567437  0.44607600  0.39342323  1
  H  H95  1  0.87304692  0.77962982  0.38575850  1
  H  H96  1  0.36858014  0.27985514  0.38714883  1
  H  H97  1  0.37699626  0.61470169  0.38210419  1
  H  H98  1  0.37697612  0.94651756  0.39478304  1
  H  H99  1  0.86934733  0.28728544  0.38690139  1
  H  H100  1  0.87515208  0.60932951  0.39877391  1
  H  H101  1  0.87696501  0.94582141  0.38964036  1
  H  H102  1  0.12012011  0.05783926  0.89675043  1
  H  H103  1  0.10838898  0.39254484  0.91260630  1
  H  H104  1  0.12649512  0.71550311  0.86677637  1
  H  H105  1  0.61267120  0.06472833  0.91178993  1
  H  H106  1  0.62318949  0.39034160  0.90037651  1
  H  H107  1  0.62134479  0.72220928  0.90465858  1
  H  H108  1  0.11704705  0.27316932  0.09353882  1
  H  H109  1  0.11654098  0.61262652  0.11090707  1
  H  H110  1  0.12859514  0.94547466  0.12361872  1
  H  H111  1  0.61451338  0.28280900  0.11314001  1
  H  H112  1  0.61770814  0.60740644  0.10093098  1
  H  H113  1  0.63076092  0.94441671  0.10753138  1
  H  H114  1  0.36303824  0.05006111  0.61248059  1
  H  H115  1  0.37402575  0.39171475  0.61026679  1
  H  H116  1  0.38612767  0.72805262  0.59404936  1
  H  H117  1  0.86666808  0.04669131  0.61999928  1
  H  H118  1  0.87564250  0.38886822  0.60088423  1
  H  H119  1  0.87917297  0.71744625  0.61575529  1
  H  H120  1  0.13486168  0.11767741  0.38995515  1
  H  H121  1  0.12498980  0.44517488  0.38878938  1
  H  H122  1  0.12038292  0.78162067  0.37902713  1
  H  H123  1  0.63922970  0.10962139  0.40400180  1
  H  H124  1  0.62729996  0.44425301  0.39986024  1
  H  H125  1  0.62512763  0.77941426  0.39675083  1
  H  H126  1  0.38257911  0.22403449  0.89790717  1
  H  H127  1  0.38081750  0.54852589  0.87105578  1
  H  H128  1  0.36271229  0.88946348  0.91327284  1
  H  H129  1  0.87941649  0.21907170  0.88030127  1
  H  H130  1  0.87835111  0.54832418  0.87787833  1
  H  H131  1  0.86527701  0.88928772  0.87552484  1
  H  H132  1  0.37951493  0.11531420  0.10502206  1
  H  H133  1  0.37814993  0.44808526  0.12948110  1
  H  H134  1  0.36848727  0.77559019  0.09900411  1
  H  H135  1  0.87946878  0.12021401  0.12710688  1
  H  H136  1  0.87763992  0.44415857  0.11379760  1
  H  H137  1  0.87052367  0.78165616  0.11792933  1
  H  H138  1  0.13736348  0.22104343  0.59727815  1
  H  H139  1  0.12778640  0.54110232  0.63247387  1
  H  H140  1  0.12705092  0.88209286  0.62517417  1
  H  H141  1  0.63547813  0.22588680  0.60240255  1
  H  H142  1  0.63449322  0.55715536  0.58054107  1
  H  H143  1  0.61966766  0.89201738  0.60584387  1
  H  H144  1  0.10445907  0.92224468  0.01310295  1
  H  H145  1  0.95986340  0.74896776  1.00954026  1
  H  H146  1  0.05862037  0.58534143  0.00183181  1
  H  H147  1  0.57764481  0.25365978  -0.00074853  1
  H  H148  1  0.70896527  0.08697919  -0.00476172  1
  H  H149  1  0.52714868  0.08967183  1.00735486  1
  H  H150  1  0.22013111  0.41395780  -0.00577781  1
  H  H151  1  0.02183309  0.41574309  1.00843396  1
  H  H152  1  0.86186827  0.08549560  0.01540738  1
  H  H153  1  0.41884114  0.58658391  0.49303638  1
  H  H154  1  0.68386123  0.90906028  1.00650732  1
  H  H155  1  0.08780017  0.58429677  0.50293020  1
  H  H156  1  0.91005756  0.74680692  0.50792899  1
  H  H157  1  0.54745924  0.57554873  -0.00245120  1
  H  H158  1  0.72770484  0.58230349  0.48871687  1
  H  H159  1  0.95331344  0.91960891  -0.01025901  1
  H  H160  1  0.56244188  0.25139109  0.50641977  1
  H  H161  1  0.27166107  0.58438036  0.49085381  1
  H  H162  1  0.90288197  0.25434989  0.49177453  1
  H  H163  1  0.87646931  0.08500229  0.49902578  1
  H  H164  1  0.58005551  0.58563706  0.49485894  1
  H  H165  1  0.83499546  0.90495357  0.98639498  1
  H  H166  1  0.11800661  0.74196362  0.98341887  1
  H  H167  1  0.36359682  0.57971559  -0.01498169  1
  H  H168  1  0.40175463  0.40973653  -0.00551385  1
  H  H169  1  0.92481479  0.57972380  0.50783988  1
  H  H170  1  0.05881606  0.24011874  0.50276015  1
  H  H171  1  0.54288980  0.08376533  0.49553805  1
  H  H172  1  0.20524405  0.58927504  1.00480204  1
  H  H173  1  0.82920248  0.75158369  0.00659369  1
  H  H174  1  0.70940330  0.58025359  1.00460438  1
  H  H175  1  0.27829533  0.91525681  1.00995876  1
  H  H176  1  0.66817008  0.75010972  0.00451600  1
  H  H177  1  0.32461300  0.08578170  -0.00188217  1
  H  H178  1  0.14491735  0.91502388  0.51097751  1
  H  H179  1  0.04644201  0.24381743  -0.01069300  1
  H  H180  1  0.46230809  0.75698082  0.49247547  1
  H  H181  1  0.62046883  0.74514365  0.51855566  1
  H  H182  1  0.29940949  0.75138955  0.50170192  1
  H  H183  1  0.42032809  0.93041194  0.01042307  1
  H  H184  1  0.54150679  0.75360186  1.00486926  1
  H  H185  1  0.88704690  0.25272180  1.01104573  1
  H  H186  1  0.83715862  0.41529501  0.00301525  1
  H  H187  1  0.89810486  0.58854706  0.01292023  1
  H  H188  1  0.82260174  0.91971774  0.50335166  1
  H  H189  1  0.57142103  0.91943502  -0.00192214  1
  H  H190  1  0.40560000  0.25408640  0.49369709  1
  H  H191  1  0.70763354  0.08012540  0.50979617  1
  Pb  Pb192  1  0.24260034  0.04793593  0.74677504  1
  Pb  Pb193  1  0.24260322  0.38524455  0.76023756  1
  Pb  Pb194  1  0.24781075  0.71639803  0.73317672  1
  Pb  Pb195  1  0.74218227  0.05217187  0.75482369  1
  Pb  Pb196  1  0.74893544  0.38100903  0.74455339  1
  Pb  Pb197  1  0.74980870  0.71540659  0.76270041  1
  Pb  Pb198  1  0.24536498  0.28406716  0.24790986  1
  Pb  Pb199  1  0.24803361  0.61816400  0.25381001  1
  Pb  Pb200  1  0.25053834  0.95322270  0.24873609  1
  Pb  Pb201  1  0.74770526  0.28582031  0.25440867  1
  Pb  Pb202  1  0.74502409  0.61337429  0.25042986  1
  Pb  Pb203  1  0.75295479  0.95253933  0.24701910  1
  Pb  Pb204  1  0.00252679  0.21409197  0.74400283  1
  Pb  Pb205  1  0.00067391  0.54815107  0.76300594  1
  Pb  Pb206  1  -0.00568286  0.88352670  0.74882081  1
  Pb  Pb207  1  0.49434551  0.21889817  0.75223619  1
  Pb  Pb208  1  0.50048715  0.54954443  0.73742848  1
  Pb  Pb209  1  0.49333008  0.88370872  0.75858609  1
  Pb  Pb210  1  0.00469695  0.12113100  0.24745003  1
  Pb  Pb211  1  0.00134011  0.44987306  0.23977360  1
  Pb  Pb212  1  -0.00161309  0.78390982  0.25193021  1
  Pb  Pb213  1  0.50218258  0.11890548  0.25215801  1
  Pb  Pb214  1  0.49798248  0.44945615  0.25285153  1
  Pb  Pb215  1  0.49790439  0.78574663  0.24900779  1
  C  C216  1  -0.00617245  0.04291798  0.62444250  1
  C  C217  1  -0.00149593  0.37723649  0.62819801  1
  C  C218  1  0.00634696  0.71061155  0.62744798  1
  C  C219  1  0.49009279  0.03954662  0.62691347  1
  C  C220  1  0.49877012  0.37793908  0.62929654  1
  C  C221  1  0.50139113  0.71473920  0.63371252  1
  C  C222  1  -0.00021284  0.28558961  0.12924329  1
  C  C223  1  -0.00531036  0.62080195  0.13968382  1
  C  C224  1  0.00174625  0.95537379  0.13127474  1
  C  C225  1  0.48935188  0.28901639  0.12892643  1
  C  C226  1  0.49872757  0.62299178  0.13393022  1
  C  C227  1  0.50841728  0.95508080  0.13589197  1
  C  C228  1  -0.00117940  0.04681303  0.86628326  1
  C  C229  1  -0.00357788  0.37447386  0.86930065  1
  C  C230  1  -0.00135195  0.71425354  0.86605570  1
  C  C231  1  0.49985833  0.04811028  0.86914190  1
  C  C232  1  0.50307696  0.37903613  0.86880630  1
  C  C233  1  0.50536714  0.70890184  0.86535554  1
  C  C234  1  -0.00395356  0.29530945  0.37221596  1
  C  C235  1  -0.00225323  0.62152337  0.37473145  1
  C  C236  1  0.00074392  0.95992308  0.36650173  1
  C  C237  1  0.49474933  0.29078638  0.37118298  1
  C  C238  1  0.50222914  0.62329035  0.36226649  1
  C  C239  1  0.50113515  0.95662904  0.37058736  1
  C  C240  1  0.25719163  0.20910581  0.63081218  1
  C  C241  1  0.25608471  0.53744939  0.62828670  1
  C  C242  1  0.25354265  0.88064206  0.63134236  1
  C  C243  1  0.75648194  0.21012975  0.63051417  1
  C  C244  1  0.74267118  0.53973230  0.62748509  1
  C  C245  1  0.74322546  0.87559163  0.62679527  1
  C  C246  1  0.25646116  0.12399732  0.13190442  1
  C  C247  1  0.25010475  0.45528109  0.13231583  1
  C  C248  1  0.24768653  0.78720235  0.12986062  1
  C  C249  1  0.75136811  0.12811870  0.13102860  1
  C  C250  1  0.75251827  0.45239958  0.13280743  1
  C  C251  1  0.74514754  0.78750146  0.13747098  1
  C  C252  1  0.26150937  0.21089129  0.86740356  1
  C  C253  1  0.25321858  0.54597804  0.86563104  1
  C  C254  1  0.24915129  0.87490174  0.87178494  1
  C  C255  1  0.75283935  0.21289321  0.86200419  1
  C  C256  1  0.75100837  0.54136075  0.86874473  1
  C  C257  1  0.73820082  0.88176942  0.86436446  1
  C  C258  1  0.26146022  0.12393251  0.37371262  1
  C  C259  1  0.25059409  0.45327206  0.37024601  1
  C  C260  1  0.24744822  0.79371971  0.36838171  1
  C  C261  1  0.75769242  0.12210708  0.37067156  1
  C  C262  1  0.75053731  0.45279481  0.37707919  1
  C  C263  1  0.74721805  0.79072454  0.36965188  1
  C  C264  1  0.98628841  0.73823075  0.96492951  1
  C  C265  1  0.44780392  0.40203389  0.95940937  1
  C  C266  1  0.92367396  0.40370830  0.94948677  1
  C  C267  1  0.19354285  0.90580277  0.54329344  1
  C  C268  1  0.19229446  0.75728146  0.45396510  1
  C  C269  1  0.52876171  0.40470942  0.96527302  1
  C  C270  1  0.71473062  0.42548398  0.46970773  1
  C  C271  1  0.79238260  0.75607206  0.45805742  1
  C  C272  1  0.04495763  0.59415065  0.46624886  1
  C  C273  1  0.93629309  0.26099567  0.04311258  1
  C  C274  1  0.56948298  0.73805311  0.54923751  1
  C  C275  1  0.48949344  0.74344166  0.53608372  1
  C  C276  1  0.02445137  0.59623151  0.04317635  1
  C  C277  1  0.51625282  0.74155685  0.96011051  1
  C  C278  1  0.53953736  0.92806097  0.04095689  1
  C  C279  1  0.45390852  0.26156464  0.03480531  1
  C  C280  1  0.01289304  0.07396874  0.52923007  1
  C  C281  1  0.70672598  0.76138281  0.04331697  1
  C  C282  1  0.51788556  0.58954854  0.04022102  1
  C  C283  1  0.06647115  0.73459840  0.95170893  1
  C  C284  1  0.45934290  0.59746716  0.45530199  1
  C  C285  1  0.23458557  0.57541192  0.96222042  1
  C  C286  1  0.73798444  0.09282143  0.46714506  1
  C  C287  1  0.81872855  0.09635101  0.45717008  1
  C  C288  1  0.81381583  0.09454143  0.04851078  1
  C  C289  1  0.19925103  0.75708546  0.04123629  1
  C  C290  1  0.96299380  0.59206309  0.46890750  1
  C  C291  1  0.54125339  0.59677217  0.45614193  1
  C  C292  1  0.02540188  0.07778765  0.96021644  1
  C  C293  1  0.02546902  0.25692919  0.46317348  1
  C  C294  1  0.70463457  0.91508534  0.53729378  1
  C  C295  1  0.01709113  0.25685788  0.03212231  1
  C  C296  1  0.46005696  0.41667879  0.54159200  1
  C  C297  1  0.93258584  0.07107109  0.53871170  1
  C  C298  1  0.72970484  0.24703185  0.53869640  1
  C  C299  1  0.79508337  0.42632158  0.46757175  1
  C  C300  1  0.78855487  0.76201335  0.04442046  1
  C  C301  1  0.27421912  0.90933597  0.53495052  1
  C  C302  1  0.98045663  0.92746505  0.03491836  1
  C  C303  1  0.28865928  0.08384475  0.46318366  1
  C  C304  1  0.53537507  0.26271267  0.03642143  1
  C  C305  1  0.79465784  0.42515879  0.04129642  1
  C  C306  1  0.31541677  0.57132158  0.95204361  1
  C  C307  1  0.71318886  0.90382159  0.96183738  1
  C  C308  1  0.94276449  0.59769921  0.04853410  1
  C  C309  1  0.28223334  0.41824662  0.46106929  1
  C  C310  1  0.52765779  0.26129574  0.46499941  1
  C  C311  1  0.28804771  0.09555188  0.03854452  1
  N  N312  1  0.94627318  0.26008139  0.45782918  1
  N  N313  1  0.51478605  0.07752154  0.53764189  1
  N  N314  1  0.80037749  0.23976806  0.95264732  1
  N  N315  1  0.94821200  0.07529117  0.95671788  1
  N  N316  1  0.46022919  0.92852014  0.04641631  1
  N  N317  1  0.96320664  0.92510719  0.45727072  1
  N  N318  1  0.46310453  0.92366577  0.46202265  1
  N  N319  1  0.03946719  0.92629558  0.45748932  1
  N  N320  1  0.31726566  0.42286718  0.05158794  1
  N  N321  1  0.18039043  0.57185519  0.55307626  1
  N  N322  1  0.18192298  0.90876508  0.95210378  1
  N  N323  1  0.53921554  0.92237295  0.46150786  1
  N  N324  1  0.28960497  0.24545327  0.96031782  1
  N  N325  1  0.50605083  0.08060657  0.96275783  1
  N  N326  1  0.81190577  0.57220407  0.95323879  1
  N  N327  1  0.80691913  0.24337428  0.54162980  1
  N  N328  1  0.21364853  0.24374316  0.95612229  1
  N  N329  1  0.79177034  0.90522528  0.95283337  1
  N  N330  1  0.42994269  0.07498369  0.95101765  1
  N  N331  1  0.78334183  0.91120445  0.53850807  1
  N  N332  1  0.25515395  0.57597007  0.53686941  1
  N  N333  1  0.20478409  0.41979860  0.46038855  1
  N  N334  1  0.73542680  0.09151318  0.03843815  1
  N  N335  1  0.27064611  0.75830617  0.46012643  1
  N  N336  1  0.00014616  0.40737754  0.96383547  1
  N  N337  1  0.03168731  0.74402365  0.53336761  1
  N  N338  1  0.44836530  0.25903646  0.45933761  1
  N  N339  1  0.20902366  0.09380675  0.04097195  1
  N  N340  1  0.25822035  0.90996141  0.96440205  1
  N  N341  1  0.73468853  0.57511690  0.96124109  1
  N  N342  1  0.21156834  0.08680183  0.46088423  1
  N  N343  1  0.23274711  0.24399503  0.53753808  1
  N  N344  1  0.43872587  0.74033399  0.94820760  1
  N  N345  1  0.27627646  0.75498834  0.03461647  1
  N  N346  1  0.43705330  0.07694801  0.54201405  1
  N  N347  1  0.72440952  0.24175917  0.95691548  1
  N  N348  1  0.95417445  0.74094699  0.54176209  1
  N  N349  1  0.24117159  0.42070431  0.03957841  1
  N  N350  1  0.81887932  0.57072778  0.55077075  1
  N  N351  1  0.96538901  0.41354296  0.53703247  1
  N  N352  1  0.43957336  0.59246641  0.04790301  1
  N  N353  1  0.04140732  0.41274583  0.53902334  1
  N  N354  1  0.74399452  0.57509941  0.53468226  1
  N  N355  1  0.30871540  0.24325364  0.54415320  1
  N  N356  1  0.05878380  0.92715391  0.04563995  1
  N  N357  1  0.71462387  0.75573561  0.46269992  1
  N  N358  1  0.71555339  0.42429682  0.03841633  1
  N  N359  1  0.53716395  0.41483987  0.53837552  1
  N  N360  1  0.04976977  0.05689031  0.58139209  1
  N  N361  1  0.06368854  0.38958014  0.59531143  1
  N  N362  1  0.06350640  0.72624214  0.58741745  1
  N  N363  1  0.54884949  0.05303817  0.58813128  1
  N  N364  1  0.56167866  0.39028957  0.59427546  1
  N  N365  1  0.57520990  0.72059205  0.60975917  1
  N  N366  1  0.42637488  0.27725727  0.09061708  1
  N  N367  1  0.42907227  0.61322065  0.10634516  1
  N  N368  1  0.44123305  0.94900226  0.10401223  1
  N  N369  1  0.92715969  0.27867187  0.10342171  1
  N  N370  1  0.92580554  0.61298755  0.10855921  1
  N  N371  1  0.94447983  0.94388978  0.08839590  1
  N  N372  1  0.42676391  0.05651238  0.89214868  1
  N  N373  1  0.43309399  0.38613331  0.89810555  1
  N  N374  1  0.43374443  0.72007222  0.88936300  1
  N  N375  1  0.93134988  0.05615054  0.89698145  1
  N  N376  1  0.92114782  0.38476216  0.89048212  1
  N  N377  1  0.94519281  0.72554494  0.91117864  1
  N  N378  1  0.05664700  0.27805393  0.40983419  1
  N  N379  1  0.06505234  0.61219999  0.40742141  1
  N  N380  1  0.06423895  0.94839485  0.40152491  1
  N  N381  1  0.55674892  0.27955320  0.40985161  1
  N  N382  1  0.56657427  0.61272744  0.39799356  1
  N  N383  1  0.56444508  0.94283634  0.40492284  1
  N  N384  1  0.32524622  0.22174443  0.60191394  1
  N  N385  1  0.30275390  0.55388266  0.58173571  1
  N  N386  1  0.31044631  0.89401811  0.58785534  1
  N  N387  1  0.82372500  0.21998947  0.59993338  1
  N  N388  1  0.81722701  0.55063659  0.60903011  1
  N  N389  1  0.80815600  0.88560979  0.59323114  1
  N  N390  1  0.19115166  0.11171099  0.09920062  1
  N  N391  1  0.19885213  0.44306023  0.08721459  1
  N  N392  1  0.17895970  0.77625459  0.09889674  1
  N  N393  1  0.69694731  0.11560279  0.08826093  1
  N  N394  1  0.69112918  0.44119127  0.09552906  1
  N  N395  1  0.68099810  0.77714729  0.10151281  1
  N  N396  1  0.19471396  0.22231438  0.89851757  1
  N  N397  1  0.19715407  0.55950891  0.90798627  1
  N  N398  1  0.17706388  0.88858733  0.89380211  1
  N  N399  1  0.69361617  0.22534792  0.90093759  1
  N  N400  1  0.69621322  0.55340776  0.91120810  1
  N  N401  1  0.67940466  0.89092201  0.90660328  1
  N  N402  1  0.32218252  0.10604236  0.41075684  1
  N  N403  1  0.31304005  0.43840193  0.40691258  1
  N  N404  1  0.30577604  0.78285012  0.40844588  1
  N  N405  1  0.82958653  0.11418886  0.39775133  1
  N  N406  1  0.81754469  0.44259215  0.41104013  1
  N  N407  1  0.81403114  0.77636174  0.40128902  1
  N  N408  1  0.42834828  0.27868122  0.40206808  1
  N  N409  1  0.43646009  0.61392284  0.39668563  1
  N  N410  1  0.43787516  0.94497898  0.40582288  1
  N  N411  1  0.92844439  0.28575057  0.40267921  1
  N  N412  1  0.93527008  0.60902754  0.41160563  1
  N  N413  1  0.93780172  0.94571188  0.40108362  1
  N  N414  1  0.05875601  0.06041875  0.90603270  1
  N  N415  1  0.04595537  0.38621741  0.91553343  1
  N  N416  1  0.07230430  0.71978334  0.89013974  1
  N  N417  1  0.55009837  0.06135662  0.91451372  1
  N  N418  1  0.56181136  0.39099205  0.91074517  1
  N  N419  1  0.55906642  0.72308393  0.90941566  1
  N  N420  1  0.05513046  0.27257408  0.08601361  1
  N  N421  1  0.05542965  0.61050879  0.10025948  1
  N  N422  1  0.07175743  0.94634751  0.10427964  1
  N  N423  1  0.55618355  0.27973220  0.09624929  1
  N  N424  1  0.55568848  0.60828078  0.09271116  1
  N  N425  1  0.56976097  0.94295683  0.09676598  1
  N  N426  1  0.42224448  0.05492925  0.59840373  1
  N  N427  1  0.43363350  0.39453207  0.59634966  1
  N  N428  1  0.44834272  0.72873803  0.58929146  1
  N  N429  1  0.92176591  0.05192444  0.59853697  1
  N  N430  1  0.93714555  0.39140189  0.59203122  1
  N  N431  1  0.93759759  0.71901640  0.59812233  1
  N  N432  1  0.19445177  0.11224475  0.40414475  1
  N  N433  1  0.18493911  0.44198373  0.40254845  1
  N  N434  1  0.17782127  0.77819682  0.39681384  1
  N  N435  1  0.70095106  0.10909465  0.41218018  1
  N  N436  1  0.68680808  0.44147546  0.41442261  1
  N  N437  1  0.68639485  0.77784879  0.40647462  1
  N  N438  1  0.32085095  0.22509083  0.90556974  1
  N  N439  1  0.32551942  0.55315890  0.89213689  1
  N  N440  1  0.30047677  0.88693326  0.91688628  1
  N  N441  1  0.81966174  0.22164669  0.89412562  1
  N  N442  1  0.82131231  0.55370602  0.89494883  1
  N  N443  1  0.80716438  0.88896719  0.89351188  1
  N  N444  1  0.31892729  0.11326540  0.09431907  1
  N  N445  1  0.32235320  0.44267524  0.10973542  1
  N  N446  1  0.30664664  0.77410062  0.09137594  1
  N  N447  1  0.82359673  0.11492421  0.10667342  1
  N  N448  1  0.81878624  0.44200267  0.09930684  1
  N  N449  1  0.81115605  0.77806743  0.10329934  1
  N  N450  1  0.19946515  0.22265547  0.59101774  1
  N  N451  1  0.18144949  0.54853949  0.60990361  1
  N  N452  1  0.18228052  0.88777251  0.60429506  1
  N  N453  1  0.69660302  0.22689388  0.59214815  1
  N  N454  1  0.69618393  0.55375206  0.58000912  1
  N  N455  1  0.67943252  0.89352071  0.59195336  1
  Cl  Cl456  1  0.23673740  0.05121282  0.61455916  1
  Cl  Cl457  1  0.24936503  0.39127646  0.62813970  1
  Cl  Cl458  1  0.25951879  0.72642463  0.59559090  1
  Cl  Cl459  1  0.72990744  0.05261874  0.62070854  1
  Cl  Cl460  1  0.75057379  0.38774164  0.60944236  1
  Cl  Cl461  1  0.76053928  0.72062697  0.63116999  1
  Cl  Cl462  1  0.23932630  0.27725868  0.11618978  1
  Cl  Cl463  1  0.23997523  0.61357537  0.12146624  1
  Cl  Cl464  1  0.26067529  0.93420341  0.10540474  1
  Cl  Cl465  1  0.74082667  0.27591662  0.12758972  1
  Cl  Cl466  1  0.73718002  0.60227833  0.11030967  1
  Cl  Cl467  1  0.75703229  0.94254434  0.10894292  1
  Cl  Cl468  1  0.24323992  0.05072979  0.88069837  1
  Cl  Cl469  1  0.22760064  0.39793035  0.90105105  1
  Cl  Cl470  1  0.25241576  0.71903147  0.86021162  1
  Cl  Cl471  1  0.73351835  0.06205056  0.89911679  1
  Cl  Cl472  1  0.74213609  0.39066189  0.87657875  1
  Cl  Cl473  1  0.75038329  0.72287802  0.89831007  1
  Cl  Cl474  1  0.24442239  0.27822905  0.38081008  1
  Cl  Cl475  1  0.25454568  0.60369363  0.39576711  1
  Cl  Cl476  1  0.25207387  0.94427195  0.38076166  1
  Cl  Cl477  1  0.74317063  0.28193038  0.38952451  1
  Cl  Cl478  1  0.74967864  0.60355621  0.39182362  1
  Cl  Cl479  1  0.75282205  0.93874171  0.38402695  1
  Cl  Cl480  1  0.01296287  0.21984296  0.60794628  1
  Cl  Cl481  1  -0.00179387  0.54808674  0.63283086  1
  Cl  Cl482  1  -0.00981812  0.88638824  0.62118784  1
  Cl  Cl483  1  0.51067941  0.22520724  0.61476275  1
  Cl  Cl484  1  0.49376970  0.56045550  0.60149074  1
  Cl  Cl485  1  0.49456239  0.89471356  0.62648258  1
  Cl  Cl486  1  0.00656299  0.11241637  0.11631937  1
  Cl  Cl487  1  0.01666831  0.43630856  0.09972205  1
  Cl  Cl488  1  -0.00469893  0.78176539  0.11862038  1
  Cl  Cl489  1  0.51304424  0.10770060  0.10297962  1
  Cl  Cl490  1  0.50746406  0.44623311  0.11847852  1
  Cl  Cl491  1  0.49533841  0.77909130  0.11327284  1
  Cl  Cl492  1  0.00883428  0.21981815  0.87766365  1
  Cl  Cl493  1  0.01116348  0.55132200  0.89743739  1
  Cl  Cl494  1  -0.00894165  0.89547758  0.88487759  1
  Cl  Cl495  1  0.50841690  0.22354268  0.88733587  1
  Cl  Cl496  1  0.51791782  0.56177713  0.87751215  1
  Cl  Cl497  1  0.48804645  0.89544649  0.90176392  1
  Cl  Cl498  1  0.01213155  0.11951457  0.37886666  1
  Cl  Cl499  1  0.00032010  0.44430605  0.36937599  1
  Cl  Cl500  1  -0.00575367  0.77598829  0.38397137  1
  Cl  Cl501  1  0.51344645  0.10803795  0.39155326  1
  Cl  Cl502  1  0.49812964  0.44352405  0.38209687  1
  Cl  Cl503  1  0.49371894  0.77652824  0.38387991  1
  Cl  Cl504  1  0.36615196  0.14277799  0.74623533  1
  Cl  Cl505  1  0.36926119  0.47755353  0.75800184  1
  Cl  Cl506  1  0.35717897  0.81713807  0.74824785  1
  Cl  Cl507  1  0.86904860  0.14270104  0.74979434  1
  Cl  Cl508  1  0.86603798  0.47859792  0.75630775  1
  Cl  Cl509  1  0.86606623  0.81158971  0.76433638  1
  Cl  Cl510  1  0.15158147  0.17721113  0.25186685  1
  Cl  Cl511  1  0.14178463  0.51465548  0.25070101  1
  Cl  Cl512  1  0.13752273  0.85319729  0.24571450  1
  Cl  Cl513  1  0.64182658  0.18092071  0.25569091  1
  Cl  Cl514  1  0.64934317  0.51542809  0.25737273  1
  Cl  Cl515  1  0.63763964  0.85345683  0.24922727  1
  Cl  Cl516  1  0.14614275  0.15395175  0.75221686  1
  Cl  Cl517  1  0.14660958  0.48468667  0.74852326  1
  Cl  Cl518  1  0.13205034  0.81504792  0.74771173  1
  Cl  Cl519  1  0.64622946  0.15350458  0.75038450  1
  Cl  Cl520  1  0.64017853  0.48400638  0.74647818  1
  Cl  Cl521  1  0.64154210  0.81479344  0.74697569  1
  Cl  Cl522  1  0.37145071  0.19114362  0.25517819  1
  Cl  Cl523  1  0.36532254  0.52132674  0.24560276  1
  Cl  Cl524  1  0.35903296  0.85097061  0.24533925  1
  Cl  Cl525  1  0.86619101  0.18792341  0.25129956  1
  Cl  Cl526  1  0.86863701  0.52142746  0.23760076  1
  Cl  Cl527  1  0.85874443  0.84855554  0.25072396  1
  Cl  Cl528  1  0.10469535  0.32083709  0.74785651  1
  Cl  Cl529  1  0.11183565  0.64835600  0.74612679  1
  Cl  Cl530  1  0.10236209  0.98569924  0.74634678  1
  Cl  Cl531  1  0.60662469  0.31937506  0.74601112  1
  Cl  Cl532  1  0.61355099  0.64906199  0.74330186  1
  Cl  Cl533  1  0.61126530  0.98061009  0.75967765  1
  Cl  Cl534  1  0.38952574  0.01942633  0.24178454  1
  Cl  Cl535  1  0.38848532  0.35795420  0.24453748  1
  Cl  Cl536  1  0.38548529  0.68523267  0.24699338  1
  Cl  Cl537  1  0.89101970  0.02047310  0.24878346  1
  Cl  Cl538  1  0.88196380  0.35502860  0.23668044  1
  Cl  Cl539  1  0.89145957  0.68354790  0.25332827  1
  Cl  Cl540  1  0.38699821  0.31096726  0.75937503  1
  Cl  Cl541  1  0.38736655  0.64921101  0.74727969  1
  Cl  Cl542  1  0.39108284  0.98004481  0.75745486  1
  Cl  Cl543  1  0.88291747  0.30945622  0.75492632  1
  Cl  Cl544  1  0.88815870  0.64476366  0.75512695  1
  Cl  Cl545  1  0.87709493  0.97924967  0.75443311  1
  Cl  Cl546  1  0.11308083  0.01768142  0.23861735  1
  Cl  Cl547  1  0.10252738  0.34349151  0.24804503  1
  Cl  Cl548  1  0.11123470  0.68425437  0.26520350  1
  Cl  Cl549  1  0.61259955  0.01738542  0.25389036  1
  Cl  Cl550  1  0.60538402  0.34639128  0.25186735  1
  Cl  Cl551  1  0.61215191  0.68530746  0.24823000  1
