# generated using pymatgen
data_H8PbC4(N3Cl2)2
_symmetry_space_group_name_H-M   'P 1'
_cell_length_a   16.62003801
_cell_length_b   22.50217279
_cell_length_c   21.58880803
_cell_angle_alpha   90.00001608
_cell_angle_beta   89.99787522
_cell_angle_gamma   90.00203748
_symmetry_Int_Tables_number   1
_chemical_formula_structural   H8PbC4(N3Cl2)2
_chemical_formula_sum   'H192 Pb24 C96 N144 Cl96'
_cell_volume   8073.93282647
_cell_formula_units_Z   24
loop_
 _symmetry_equiv_pos_site_id
 _symmetry_equiv_pos_as_xyz
  1  'x, y, z'
loop_
 _atom_site_type_symbol
 _atom_site_label
 _atom_site_symmetry_multiplicity
 _atom_site_fract_x
 _atom_site_fract_y
 _atom_site_fract_z
 _atom_site_occupancy
  H  H0  1  -0.00487334  0.03141788  0.68137908  1
  H  H1  1  0.00275873  0.36642350  0.68019309  1
  H  H2  1  -0.00266292  0.69811214  0.68157530  1
  H  H3  1  0.50160551  0.03118595  0.68121219  1
  H  H4  1  0.49591294  0.36597856  0.67932901  1
  H  H5  1  0.49509225  0.69760999  0.67938425  1
  H  H6  1  -0.01007111  0.30238974  0.17968068  1
  H  H7  1  -0.00212478  0.63320584  0.18097526  1
  H  H8  1  0.00299900  0.96782713  0.18236425  1
  H  H9  1  0.50816226  0.30051192  0.17826835  1
  H  H10  1  0.50055998  0.63492123  0.18070097  1
  H  H11  1  0.50799085  0.96690278  0.18171370  1
  H  H12  1  0.00437251  0.03006221  0.81999277  1
  H  H13  1  0.00739332  0.36501572  0.82048011  1
  H  H14  1  0.00247707  0.69821922  0.81878845  1
  H  H15  1  0.49937811  0.03213905  0.81960359  1
  H  H16  1  0.50477256  0.36593590  0.81791020  1
  H  H17  1  0.49212950  0.69891082  0.82306327  1
  H  H18  1  -0.00003710  0.30191413  0.32009261  1
  H  H19  1  -0.00748478  0.63391404  0.32191900  1
  H  H20  1  0.00551625  0.96812804  0.31947681  1
  H  H21  1  0.49442603  0.30127577  0.31767411  1
  H  H22  1  0.49707243  0.63318583  0.32093436  1
  H  H23  1  0.49497175  0.96890557  0.32256003  1
  H  H24  1  0.24777973  0.19877718  0.68089828  1
  H  H25  1  0.25258710  0.53098056  0.67751123  1
  H  H26  1  0.24690303  0.86709213  0.68101179  1
  H  H27  1  0.74961857  0.19964688  0.68102738  1
  H  H28  1  0.75664526  0.53219647  0.68137198  1
  H  H29  1  0.75541400  0.86507981  0.68022435  1
  H  H30  1  0.24327303  0.13427904  0.18114717  1
  H  H31  1  0.24842521  0.46978639  0.17936743  1
  H  H32  1  0.24987695  0.80175709  0.18079580  1
  H  H33  1  0.75064955  0.13583595  0.18080553  1
  H  H34  1  0.75490332  0.46936999  0.18242178  1
  H  H35  1  0.75413617  0.79998520  0.17987099  1
  H  H36  1  0.24943202  0.19976514  0.82049857  1
  H  H37  1  0.24456382  0.53213291  0.82020195  1
  H  H38  1  0.24979361  0.86436344  0.82044683  1
  H  H39  1  0.74680799  0.19866849  0.82066035  1
  H  H40  1  0.75693781  0.53203914  0.81788808  1
  H  H41  1  0.74641103  0.86438060  0.81896253  1
  H  H42  1  0.25145327  0.13677338  0.31879064  1
  H  H43  1  0.24979309  0.46790572  0.31972188  1
  H  H44  1  0.25727069  0.80125807  0.31851950  1
  H  H45  1  0.75557766  0.13541295  0.32055833  1
  H  H46  1  0.74776291  0.46831499  0.31826212  1
  H  H47  1  0.75238162  0.80124984  0.31809038  1
  H  H48  1  0.12865033  0.05185172  0.62065981  1
  H  H49  1  0.12615416  0.38701838  0.60829072  1
  H  H50  1  0.12889491  0.71932564  0.61859352  1
  H  H51  1  0.62852444  0.05479242  0.61067378  1
  H  H52  1  0.62424269  0.38598053  0.61470556  1
  H  H53  1  0.63152245  0.71811781  0.62092135  1
  H  H54  1  0.36931799  0.28210422  0.12450611  1
  H  H55  1  0.37849540  0.61356984  0.11013479  1
  H  H56  1  0.37042563  0.94800561  0.12275950  1
  H  H57  1  0.87305192  0.27631475  0.10339794  1
  H  H58  1  0.88065004  0.61301003  0.10596626  1
  H  H59  1  0.87344290  0.94630286  0.11300608  1
  H  H60  1  0.37518978  0.05484543  0.89060405  1
  H  H61  1  0.37463461  0.38707344  0.88514652  1
  H  H62  1  0.38191760  0.72397193  0.90381768  1
  H  H63  1  0.87157191  0.05208371  0.88088838  1
  H  H64  1  0.87436232  0.38446462  0.88454298  1
  H  H65  1  0.87797565  0.72115641  0.89078053  1
  H  H66  1  0.12228603  0.27899285  0.39370524  1
  H  H67  1  0.13109375  0.61534567  0.37668392  1
  H  H68  1  0.11925653  0.94331761  0.39938222  1
  H  H69  1  0.62569859  0.28147963  0.38189691  1
  H  H70  1  0.62798293  0.61389219  0.38278892  1
  H  H71  1  0.62437895  0.94631367  0.38795660  1
  H  H72  1  0.37254236  0.22140446  0.60999690  1
  H  H73  1  0.36831608  0.55545467  0.59889200  1
  H  H74  1  0.38022130  0.88535590  0.61891299  1
  H  H75  1  0.87644221  0.22124547  0.61126100  1
  H  H76  1  0.86593726  0.55485972  0.60022746  1
  H  H77  1  0.87743239  0.88918416  0.60791847  1
  H  H78  1  0.13020757  0.11067937  0.10217822  1
  H  H79  1  0.12753463  0.44629617  0.10506517  1
  H  H80  1  0.12245890  0.77914196  0.11289530  1
  H  H81  1  0.62603258  0.11275600  0.11126694  1
  H  H82  1  0.62728088  0.44702369  0.11281481  1
  H  H83  1  0.61977538  0.78027089  0.11967634  1
  H  H84  1  0.12945633  0.22297452  0.89437172  1
  H  H85  1  0.12608921  0.55531786  0.89721389  1
  H  H86  1  0.12910392  0.88753437  0.89462652  1
  H  H87  1  0.63152621  0.22368459  0.89927337  1
  H  H88  1  0.62254457  0.55133584  0.87663087  1
  H  H89  1  0.62967293  0.88945122  0.89643268  1
  H  H90  1  0.37385144  0.11213001  0.39195654  1
  H  H91  1  0.37405359  0.44626707  0.39319942  1
  H  H92  1  0.36845262  0.77642465  0.40132829  1
  H  H93  1  0.86703752  0.10742620  0.40025235  1
  H  H94  1  0.87235718  0.44623066  0.39029367  1
  H  H95  1  0.86782603  0.77834509  0.39513566  1
  H  H96  1  0.37662782  0.27982432  0.39243966  1
  H  H97  1  0.37976138  0.61110731  0.39724837  1
  H  H98  1  0.37557880  0.94405485  0.39668947  1
  H  H99  1  0.87352193  0.27986088  0.38783514  1
  H  H100  1  0.88478552  0.60671633  0.40454440  1
  H  H101  1  0.87063670  0.94769830  0.37875540  1
  H  H102  1  0.11986605  0.05713065  0.89771973  1
  H  H103  1  0.12270165  0.38997922  0.89836327  1
  H  H104  1  0.12699520  0.71914750  0.88928815  1
  H  H105  1  0.62323052  0.05542412  0.89162397  1
  H  H106  1  0.62366438  0.38771528  0.89336043  1
  H  H107  1  0.62862246  0.71856123  0.88163029  1
  H  H108  1  0.12145890  0.28099865  0.11495978  1
  H  H109  1  0.12969897  0.61504518  0.11693446  1
  H  H110  1  0.12174338  0.94414493  0.10523687  1
  H  H111  1  0.61495089  0.27310848  0.09442622  1
  H  H112  1  0.62805538  0.61360155  0.11279686  1
  H  H113  1  0.61748208  0.94249879  0.09957738  1
  H  H114  1  0.38022448  0.05391574  0.60637805  1
  H  H115  1  0.37504309  0.38718797  0.60551817  1
  H  H116  1  0.38386169  0.72462830  0.59824851  1
  H  H117  1  0.88022916  0.05732376  0.60268924  1
  H  H118  1  0.87669316  0.38623481  0.61316884  1
  H  H119  1  0.87983788  0.72303851  0.60468432  1
  H  H120  1  0.12571537  0.11354425  0.38862284  1
  H  H121  1  0.12502828  0.44537166  0.39242911  1
  H  H122  1  0.12213795  0.78062447  0.37889078  1
  H  H123  1  0.61999983  0.11755858  0.38066361  1
  H  H124  1  0.62321468  0.44645973  0.38904293  1
  H  H125  1  0.61929104  0.78168746  0.37895455  1
  H  H126  1  0.37883524  0.22113255  0.88776487  1
  H  H127  1  0.37451065  0.55422103  0.88453726  1
  H  H128  1  0.37767149  0.88685811  0.88950258  1
  H  H129  1  0.88014109  0.21970957  0.88291408  1
  H  H130  1  0.87049158  0.55447577  0.89608478  1
  H  H131  1  0.87881577  0.88384579  0.88161017  1
  H  H132  1  0.37871011  0.11553782  0.11982760  1
  H  H133  1  0.37631438  0.44600011  0.11083094  1
  H  H134  1  0.37176456  0.77730484  0.10706624  1
  H  H135  1  0.87485273  0.11286286  0.10875357  1
  H  H136  1  0.87643378  0.44560426  0.10968531  1
  H  H137  1  0.86822490  0.77696306  0.10307501  1
  H  H138  1  0.12382548  0.22213402  0.60830732  1
  H  H139  1  0.12017907  0.55254453  0.61244159  1
  H  H140  1  0.13160006  0.88830755  0.60434849  1
  H  H141  1  0.62683482  0.22262494  0.61014320  1
  H  H142  1  0.61815585  0.54941676  0.62417966  1
  H  H143  1  0.62856815  0.88709731  0.61077338  1
  H  H144  1  0.54121399  0.24874332  -0.00604161  1
  H  H145  1  0.84566844  0.91412919  0.99348854  1
  H  H146  1  0.42375900  0.58418391  -0.00058127  1
  H  H147  1  0.91813859  0.41547037  0.50040810  1
  H  H148  1  0.69625105  0.24986192  1.00252640  1
  H  H149  1  0.34199232  0.24850549  0.99449097  1
  H  H150  1  0.59896865  0.58266721  0.49619627  1
  H  H151  1  0.29727867  0.75214831  0.50232096  1
  H  H152  1  0.56759637  0.41858941  1.00010918  1
  H  H153  1  0.31906555  0.08348060  0.49547882  1
  H  H154  1  0.45361031  0.75009344  0.49627225  1
  H  H155  1  0.64963001  0.08045554  0.48488882  1
  H  H156  1  0.43025964  0.25226576  0.50223773  1
  H  H157  1  0.81081999  0.74813390  -0.00485276  1
  H  H158  1  0.54821012  0.91569847  -0.00523404  1
  H  H159  1  0.19058075  0.91473090  0.49393196  1
  H  H160  1  0.60438802  0.74755043  0.99097238  1
  H  H161  1  0.09525446  0.74833459  0.50659488  1
  H  H162  1  0.90246069  0.08304882  0.99259805  1
  H  H163  1  0.17635798  0.25223960  0.50540296  1
  H  H164  1  0.89754594  0.91850337  0.49183693  1
  H  H165  1  0.83301962  0.25189737  0.50709899  1
  H  H166  1  0.93987785  0.74655708  0.50031279  1
  H  H167  1  0.32973231  0.41987902  0.00533938  1
  H  H168  1  0.58833803  0.41605480  0.50156057  1
  H  H169  1  0.79942921  0.58041558  0.49255919  1
  H  H170  1  0.58293958  0.91662146  0.49454442  1
  H  H171  1  0.16570531  0.74964475  0.00321074  1
  H  H172  1  0.80946225  0.58147622  1.00460078  1
  H  H173  1  0.05449615  0.91744864  0.50184215  1
  H  H174  1  0.69072912  0.91197836  1.00064398  1
  H  H175  1  0.79693930  0.09317452  0.50318212  1
  H  H176  1  0.18076093  0.25313628  1.00237243  1
  H  H177  1  0.80872550  0.75220218  0.50451115  1
  H  H178  1  0.15617272  0.57912356  0.50552852  1
  H  H179  1  0.34789822  0.08480630  0.01320996  1
  H  H180  1  0.94335398  0.08028346  0.49897705  1
  H  H181  1  0.93705827  0.58722277  -0.00565676  1
  H  H182  1  0.64567991  0.58025429  0.99036890  1
  H  H183  1  0.57176897  0.08327818  0.99611491  1
  H  H184  1  0.67174008  0.25174804  0.50060604  1
  H  H185  1  0.64676713  0.75341257  0.49204582  1
  H  H186  1  0.95706863  0.57895517  0.50473770  1
  H  H187  1  0.33231359  0.91338016  0.99486678  1
  H  H188  1  0.09799079  0.08278533  0.50852230  1
  H  H189  1  0.19296855  0.08361554  -0.00560441  1
  H  H190  1  0.82468938  0.41653582  0.00188190  1
  H  H191  1  0.05746151  0.07712900  1.00228034  1
  Pb  Pb192  1  0.25133583  0.04614233  0.75168376  1
  Pb  Pb193  1  0.24619586  0.37979385  0.75377517  1
  Pb  Pb194  1  0.25341127  0.71285249  0.74848707  1
  Pb  Pb195  1  0.74944936  0.04707129  0.74404746  1
  Pb  Pb196  1  0.75022290  0.38002326  0.75245484  1
  Pb  Pb197  1  0.75199444  0.71170466  0.74916029  1
  Pb  Pb198  1  0.24842348  0.28772635  0.25215648  1
  Pb  Pb199  1  0.25147025  0.62114659  0.25134411  1
  Pb  Pb200  1  0.24822570  0.95228236  0.25121214  1
  Pb  Pb201  1  0.74945979  0.28751699  0.24536667  1
  Pb  Pb202  1  0.75472786  0.61884778  0.25126506  1
  Pb  Pb203  1  0.74611443  0.95347931  0.24182621  1
  Pb  Pb204  1  -0.00016123  0.21256551  0.74914116  1
  Pb  Pb205  1  0.00093965  0.54584236  0.74912678  1
  Pb  Pb206  1  0.00133934  0.87903915  0.74382775  1
  Pb  Pb207  1  0.49868823  0.21598177  0.75281823  1
  Pb  Pb208  1  0.49765429  0.54550428  0.74772139  1
  Pb  Pb209  1  0.50250142  0.87851621  0.75113379  1
  Pb  Pb210  1  -0.00097242  0.11927935  0.24956997  1
  Pb  Pb211  1  0.00207211  0.45393565  0.25033719  1
  Pb  Pb212  1  -0.00263108  0.78631773  0.25296721  1
  Pb  Pb213  1  0.49891609  0.12109599  0.24743655  1
  Pb  Pb214  1  0.49978826  0.45436825  0.25035490  1
  Pb  Pb215  1  0.49793428  0.78516334  0.25225924  1
  C  C216  1  0.00110167  0.04615049  0.63357943  1
  C  C217  1  0.00130135  0.38031960  0.63221904  1
  C  C218  1  0.00185815  0.71303283  0.63377223  1
  C  C219  1  0.50366675  0.04605024  0.63341714  1
  C  C220  1  0.49897203  0.38012405  0.63142652  1
  C  C221  1  0.50312441  0.71250435  0.63197993  1
  C  C222  1  -0.00492106  0.28697494  0.13243311  1
  C  C223  1  0.00246602  0.62029219  0.13282642  1
  C  C224  1  -0.00086669  0.95321616  0.13453517  1
  C  C225  1  0.49761674  0.28627089  0.13094650  1
  C  C226  1  0.50189740  0.62060350  0.13283081  1
  C  C227  1  0.49822786  0.95270802  0.13425485  1
  C  C228  1  -0.00108238  0.04554496  0.86752406  1
  C  C229  1  0.00115810  0.37989296  0.86784237  1
  C  C230  1  0.00215558  0.71257066  0.86652073  1
  C  C231  1  0.49950586  0.04758588  0.86721315  1
  C  C232  1  0.50069734  0.38049238  0.86573029  1
  C  C233  1  0.50141035  0.71365754  0.87035331  1
  C  C234  1  -0.00117374  0.28727306  0.36771350  1
  C  C235  1  0.00273961  0.61935868  0.36919081  1
  C  C236  1  -0.00131920  0.95308960  0.36708661  1
  C  C237  1  0.49856445  0.28753139  0.36564198  1
  C  C238  1  0.50229346  0.61918578  0.36877369  1
  C  C239  1  0.49868739  0.95324453  0.36990753  1
  C  C240  1  0.24766262  0.21394499  0.63325500  1
  C  C241  1  0.24649318  0.54602341  0.63002344  1
  C  C242  1  0.25272402  0.88044566  0.63303975  1
  C  C243  1  0.75143993  0.21463620  0.63312448  1
  C  C244  1  0.74719111  0.54559334  0.63374417  1
  C  C245  1  0.75351412  0.88052188  0.63289568  1
  C  C246  1  0.25145330  0.11951116  0.13357712  1
  C  C247  1  0.25116538  0.45409789  0.13192836  1
  C  C248  1  0.24812372  0.78646481  0.13322658  1
  C  C249  1  0.75082198  0.12052665  0.13340334  1
  C  C250  1  0.75253917  0.45369902  0.13495142  1
  C  C251  1  0.74767989  0.78588504  0.13214860  1
  C  C252  1  0.25318198  0.21448866  0.86844996  1
  C  C253  1  0.24814213  0.54693450  0.86773425  1
  C  C254  1  0.25271938  0.87970484  0.86797845  1
  C  C255  1  0.75259362  0.21327874  0.86821338  1
  C  C256  1  0.74960279  0.54632504  0.86561162  1
  C  C257  1  0.75134095  0.87921463  0.86676303  1
  C  C258  1  0.25059936  0.12104168  0.36625068  1
  C  C259  1  0.24957175  0.45340335  0.36762070  1
  C  C260  1  0.24941549  0.78676267  0.36608800  1
  C  C261  1  0.74728129  0.12042860  0.36805173  1
  C  C262  1  0.74808536  0.45362655  0.36588994  1
  C  C263  1  0.74607864  0.78699403  0.36592810  1
  C  C264  1  0.47082289  0.59281064  0.46388184  1
  C  C265  1  0.77427383  0.75940598  0.03520805  1
  C  C266  1  0.69436774  0.57057019  0.95564609  1
  C  C267  1  0.04096114  0.73845852  0.95966850  1
  C  C268  1  0.77484204  0.76221264  0.46258840  1
  C  C269  1  0.96635793  0.25748441  0.03842937  1
  C  C270  1  0.53128658  0.40716399  0.95993836  1
  C  C271  1  0.78654947  0.42706530  0.04140811  1
  C  C272  1  0.47722228  0.74203997  0.96739886  1
  C  C273  1  0.69305095  0.76311909  0.45679382  1
  C  C274  1  0.77600607  0.57153203  0.96262219  1
  C  C275  1  0.51776333  0.92639188  0.03805718  1
  C  C276  1  0.46717486  0.26219523  0.46205725  1
  C  C277  1  0.94359485  0.92761891  0.45599488  1
  C  C278  1  0.69312561  0.76126119  0.04258184  1
  C  C279  1  0.05428417  0.07313069  0.54458713  1
  C  C280  1  0.22470005  0.90512530  0.53581166  1
  C  C281  1  0.30599221  0.90419059  0.54266325  1
  C  C282  1  0.04067141  0.40556249  0.53820521  1
  C  C283  1  0.54463121  0.40569303  0.53839805  1
  C  C284  1  0.95904341  0.40555827  0.53825796  1
  C  C285  1  0.80628548  0.24088445  0.95806064  1
  C  C286  1  0.21830181  0.24153471  0.96282782  1
  C  C287  1  0.20750346  0.76028116  0.04117555  1
  C  C288  1  0.97186832  0.59674512  0.03580228  1
  C  C289  1  0.71208873  0.24098772  0.53949100  1
  C  C290  1  0.02804230  0.40913159  0.96217894  1
  C  C291  1  0.80261264  0.90506917  0.95676768  1
  C  C292  1  0.76768374  0.57039077  0.53537101  1
  C  C293  1  0.46495391  0.59432735  0.03782154  1
  C  C294  1  0.46281389  0.92365730  0.46436621  1
  C  C295  1  0.95731002  0.26091163  0.46011213  1
  C  C296  1  0.06438636  0.59231302  0.45568983  1
  C  C297  1  0.22455004  0.09388308  0.03727021  1
  C  C298  1  0.71168706  0.09219425  0.04092850  1
  C  C299  1  0.54693915  0.59473935  0.04024826  1
  C  C300  1  0.29373342  0.57480195  0.95817183  1
  C  C301  1  0.56129252  0.73976057  0.54408037  1
  C  C302  1  0.78900426  0.90825258  0.53922846  1
  C  C303  1  0.70948070  0.42719854  0.45910762  1
  C  C304  1  0.46305175  0.40549744  0.53677938  1
  C  C305  1  0.43469134  0.26088880  0.04430179  1
  C  C306  1  0.05243183  0.73873523  0.54339739  1
  C  C307  1  0.54847013  0.26307257  0.45686018  1
  C  C308  1  0.05292911  0.59774782  0.04160328  1
  C  C309  1  0.94636839  0.07325976  0.95665191  1
  C  C310  1  0.55201694  0.59337971  0.46068966  1
  C  C311  1  0.68723068  0.56818415  0.54569584  1
  N  N312  1  0.29111292  0.42649919  0.04182550  1
  N  N313  1  0.28688287  0.75962249  0.03862084  1
  N  N314  1  0.54508143  0.07199907  0.54019152  1
  N  N315  1  0.19976705  0.57191267  0.54093493  1
  N  N316  1  0.03128479  0.92720913  0.03919315  1
  N  N317  1  0.54188117  0.92508201  0.46036802  1
  N  N318  1  0.21118557  0.42753250  0.46147395  1
  N  N319  1  0.45635042  0.07251846  0.96051869  1
  N  N320  1  0.29117878  0.23905572  0.54012489  1
  N  N321  1  0.96332970  0.73902416  0.96138574  1
  N  N322  1  0.95506025  0.92798317  0.04173117  1
  N  N323  1  0.29803584  0.23975701  0.95974262  1
  N  N324  1  0.03513589  0.26025859  0.46305389  1
  N  N325  1  0.77098513  0.08667257  0.46041067  1
  N  N326  1  0.27764734  0.57310984  0.53484212  1
  N  N327  1  0.78734531  0.42695466  0.46051478  1
  N  N328  1  0.02589699  0.07536723  0.96149161  1
  N  N329  1  0.71098685  0.90782348  0.53901839  1
  N  N330  1  0.21482650  0.90584861  0.96217340  1
  N  N331  1  0.45182710  0.40684031  0.95770535  1
  N  N332  1  0.97298020  0.74051409  0.53987255  1
  N  N333  1  0.28738186  0.42777883  0.46171634  1
  N  N334  1  0.98608464  0.59019901  0.46436361  1
  N  N335  1  0.53490439  0.07220946  0.95961413  1
  N  N336  1  0.97489413  0.07535593  0.53959829  1
  N  N337  1  0.19184313  0.76261797  0.45458294  1
  N  N338  1  0.21632136  0.57530360  0.96354050  1
  N  N339  1  0.51280181  0.25822430  0.03515880  1
  N  N340  1  0.30370701  0.09605848  0.04450443  1
  N  N341  1  0.72312384  0.90814442  0.96039619  1
  N  N342  1  0.72759773  0.24146561  0.96251952  1
  N  N343  1  0.04383981  0.25875535  0.04077886  1
  N  N344  1  0.48301408  0.74174747  0.53720175  1
  N  N345  1  0.26939181  0.76043531  0.46066955  1
  N  N346  1  0.55528817  0.73941303  0.95856861  1
  N  N347  1  0.78960142  0.09248249  0.03901360  1
  N  N348  1  0.43904651  0.92779366  0.04550184  1
  N  N349  1  0.69284724  0.09881002  0.45629889  1
  N  N350  1  0.02298546  0.92624770  0.46199355  1
  N  N351  1  0.20566038  0.09474690  0.45866411  1
  N  N352  1  0.46842053  0.07216148  0.53883196  1
  N  N353  1  0.28390508  0.09330292  0.45795644  1
  N  N354  1  0.70704500  0.42763137  0.04198921  1
  N  N355  1  0.21274815  0.23860007  0.54100342  1
  N  N356  1  0.21302672  0.42738706  0.03803285  1
  N  N357  1  0.79193150  0.23931112  0.54067875  1
  N  N358  1  0.29303431  0.90549026  0.95874809  1
  N  N359  1  0.95054118  0.40760839  0.95901178  1
  N  N360  1  0.07079156  0.05614114  0.60318503  1
  N  N361  1  0.06599383  0.39042489  0.59492513  1
  N  N362  1  0.07067062  0.72267548  0.60206814  1
  N  N363  1  0.56816182  0.05616509  0.59901890  1
  N  N364  1  0.56561565  0.38979766  0.59861155  1
  N  N365  1  0.57420858  0.72248140  0.60296470  1
  N  N366  1  0.42513170  0.27746362  0.10385054  1
  N  N367  1  0.43846718  0.61057991  0.09667459  1
  N  N368  1  0.42875931  0.94418008  0.10579880  1
  N  N369  1  0.93379862  0.27432447  0.09344840  1
  N  N370  1  0.94122991  0.61097706  0.09399159  1
  N  N371  1  0.93373358  0.94427412  0.10087383  1
  N  N372  1  0.43536729  0.05710526  0.90263822  1
  N  N373  1  0.43477291  0.39036125  0.89847314  1
  N  N374  1  0.44334390  0.72610361  0.91278619  1
  N  N375  1  0.92967906  0.05642695  0.89806137  1
  N  N376  1  0.93382836  0.38911995  0.89875684  1
  N  N377  1  0.93898363  0.72254599  0.90204886  1
  N  N378  1  0.06100047  0.27727257  0.40421685  1
  N  N379  1  0.07482885  0.60999811  0.39656827  1
  N  N380  1  0.05702272  0.94284418  0.40738998  1
  N  N381  1  0.56710494  0.27829247  0.39854624  1
  N  N382  1  0.57030253  0.61015819  0.40007901  1
  N  N383  1  0.56466364  0.94335953  0.40224952  1
  N  N384  1  0.31202897  0.22303218  0.59773498  1
  N  N385  1  0.30639694  0.55741530  0.59062892  1
  N  N386  1  0.32225812  0.88946763  0.60138006  1
  N  N387  1  0.81585915  0.22400945  0.59874328  1
  N  N388  1  0.80421449  0.55606563  0.59177367  1
  N  N389  1  0.81710923  0.89197344  0.59597244  1
  N  N390  1  0.19174777  0.10900394  0.09241917  1
  N  N391  1  0.18863642  0.44352964  0.09483494  1
  N  N392  1  0.18230723  0.77657862  0.09893628  1
  N  N393  1  0.68593845  0.10897570  0.09799697  1
  N  N394  1  0.68783149  0.44405943  0.10058604  1
  N  N395  1  0.67768353  0.77695219  0.10153946  1
  N  N396  1  0.19031217  0.22575612  0.90620906  1
  N  N397  1  0.18767157  0.55737102  0.90594268  1
  N  N398  1  0.19025699  0.89032937  0.90511591  1
  N  N399  1  0.69330665  0.22304552  0.90782670  1
  N  N400  1  0.67989647  0.55506156  0.89510977  1
  N  N401  1  0.69152057  0.88978922  0.90561562  1
  N  N402  1  0.31278352  0.10995528  0.40248195  1
  N  N403  1  0.31288352  0.44423095  0.40372336  1
  N  N404  1  0.30599273  0.77701348  0.40784746  1
  N  N405  1  0.80504090  0.11066525  0.40907439  1
  N  N406  1  0.81137509  0.44347058  0.40127820  1
  N  N407  1  0.80661639  0.77697041  0.40561484  1
  N  N408  1  0.43715775  0.27757693  0.40403281  1
  N  N409  1  0.44076606  0.60832097  0.40865607  1
  N  N410  1  0.43584709  0.94096366  0.40833737  1
  N  N411  1  0.93295853  0.27685341  0.40232647  1
  N  N412  1  0.94719657  0.60824495  0.41133095  1
  N  N413  1  0.92849792  0.94355494  0.39675719  1
  N  N414  1  0.05827250  0.05491692  0.90718467  1
  N  N415  1  0.06154101  0.39241242  0.90765386  1
  N  N416  1  0.06714566  0.72245202  0.90244226  1
  N  N417  1  0.56241128  0.05793816  0.90300935  1
  N  N418  1  0.56260138  0.39101517  0.90400646  1
  N  N419  1  0.57060999  0.72182575  0.89893855  1
  N  N420  1  0.06171906  0.27751840  0.10077287  1
  N  N421  1  0.07109512  0.61172484  0.10013304  1
  N  N422  1  0.06004392  0.94251574  0.09643055  1
  N  N423  1  0.55259261  0.27566512  0.08822532  1
  N  N424  1  0.56854998  0.61060642  0.09791828  1
  N  N425  1  0.55545962  0.94145918  0.09203519  1
  N  N426  1  0.44159363  0.05584593  0.59625342  1
  N  N427  1  0.43564081  0.39022317  0.59287319  1
  N  N428  1  0.44606635  0.72286914  0.59085451  1
  N  N429  1  0.94213659  0.05595185  0.59375478  1
  N  N430  1  0.93578933  0.38990679  0.59798215  1
  N  N431  1  0.94177634  0.72274958  0.59495976  1
  N  N432  1  0.18566883  0.11103016  0.40079522  1
  N  N433  1  0.18610638  0.44289026  0.40309832  1
  N  N434  1  0.18008098  0.77752838  0.39528527  1
  N  N435  1  0.67816469  0.11045138  0.39654728  1
  N  N436  1  0.68330365  0.44322331  0.40187068  1
  N  N437  1  0.67690244  0.77843831  0.39642536  1
  N  N438  1  0.31903396  0.22268019  0.90158677  1
  N  N439  1  0.31571176  0.55786609  0.90028957  1
  N  N440  1  0.31761311  0.88927865  0.90190657  1
  N  N441  1  0.82196028  0.22379634  0.89958390  1
  N  N442  1  0.80921414  0.55651045  0.90610068  1
  N  N443  1  0.82039200  0.88851466  0.89822805  1
  N  N444  1  0.31995352  0.11021403  0.10425411  1
  N  N445  1  0.31599120  0.44376647  0.09815485  1
  N  N446  1  0.31036723  0.77583781  0.09648211  1
  N  N447  1  0.81398769  0.11041946  0.09780092  1
  N  N448  1  0.81580686  0.44263154  0.09816099  1
  N  N449  1  0.80723374  0.77516601  0.09243627  1
  N  N450  1  0.18476171  0.22462406  0.59749530  1
  N  N451  1  0.17959624  0.55498641  0.59841736  1
  N  N452  1  0.19243891  0.89027044  0.59343748  1
  N  N453  1  0.68685856  0.22500110  0.59677310  1
  N  N454  1  0.67528320  0.55347692  0.60525305  1
  N  N455  1  0.68919360  0.89038059  0.59874507  1
  Cl  Cl456  1  0.25743351  0.05378358  0.61690713  1
  Cl  Cl457  1  0.25115039  0.38299684  0.62302225  1
  Cl  Cl458  1  0.26112311  0.72588478  0.60661853  1
  Cl  Cl459  1  0.75676285  0.06084297  0.60298737  1
  Cl  Cl460  1  0.75026801  0.38246525  0.62256745  1
  Cl  Cl461  1  0.75908771  0.72201604  0.61506669  1
  Cl  Cl462  1  0.24508756  0.27820104  0.11663018  1
  Cl  Cl463  1  0.25408612  0.61561764  0.12371791  1
  Cl  Cl464  1  0.24492306  0.94831321  0.11752971  1
  Cl  Cl465  1  0.73890968  0.27238880  0.10504554  1
  Cl  Cl466  1  0.75389413  0.61264266  0.11860987  1
  Cl  Cl467  1  0.74309837  0.94157836  0.10354210  1
  Cl  Cl468  1  0.24653448  0.05767971  0.89163066  1
  Cl  Cl469  1  0.24974068  0.38673742  0.88857952  1
  Cl  Cl470  1  0.25396359  0.71997114  0.88026839  1
  Cl  Cl471  1  0.74487775  0.05094056  0.87597628  1
  Cl  Cl472  1  0.74842980  0.38291032  0.88576488  1
  Cl  Cl473  1  0.75375002  0.72167105  0.88191196  1
  Cl  Cl474  1  0.24649455  0.27623554  0.38530542  1
  Cl  Cl475  1  0.25569902  0.61608401  0.38486276  1
  Cl  Cl476  1  0.24401371  0.94587758  0.38667498  1
  Cl  Cl477  1  0.75100226  0.27754619  0.38095543  1
  Cl  Cl478  1  0.76302257  0.60987397  0.38547417  1
  Cl  Cl479  1  0.74662121  0.95061277  0.37403547  1
  Cl  Cl480  1  0.00014541  0.21901984  0.61505808  1
  Cl  Cl481  1  -0.00713691  0.55689804  0.60758702  1
  Cl  Cl482  1  0.00434142  0.89024602  0.60377937  1
  Cl  Cl483  1  0.49745331  0.22142212  0.62075431  1
  Cl  Cl484  1  0.49043852  0.55358366  0.61490473  1
  Cl  Cl485  1  0.50600115  0.88470222  0.61633159  1
  Cl  Cl486  1  0.00446212  0.10941417  0.10974146  1
  Cl  Cl487  1  0.00331850  0.44853190  0.11827065  1
  Cl  Cl488  1  -0.00268821  0.77915264  0.12454235  1
  Cl  Cl489  1  0.50366382  0.11558906  0.11101990  1
  Cl  Cl490  1  0.50055395  0.44570207  0.11587737  1
  Cl  Cl491  1  0.49533109  0.77857897  0.11961078  1
  Cl  Cl492  1  0.00564701  0.21667281  0.87992072  1
  Cl  Cl493  1  -0.00189929  0.55303680  0.88208267  1
  Cl  Cl494  1  0.00642978  0.88336656  0.87493156  1
  Cl  Cl495  1  0.50803934  0.22370117  0.89602757  1
  Cl  Cl496  1  0.49695061  0.55388897  0.87927091  1
  Cl  Cl497  1  0.50581754  0.88743870  0.88889218  1
  Cl  Cl498  1  -0.00956832  0.10645672  0.39475820  1
  Cl  Cl499  1  -0.00002162  0.44880534  0.38538036  1
  Cl  Cl500  1  -0.00729381  0.77578628  0.39405710  1
  Cl  Cl501  1  0.49614763  0.11499621  0.37949707  1
  Cl  Cl502  1  0.49821925  0.44641158  0.38362117  1
  Cl  Cl503  1  0.48715913  0.77680609  0.39413163  1
  Cl  Cl504  1  0.36119315  0.14610285  0.75458000  1
  Cl  Cl505  1  0.36174041  0.47820402  0.75178266  1
  Cl  Cl506  1  0.36352607  0.81255119  0.74780647  1
  Cl  Cl507  1  0.86409761  0.14421009  0.74826906  1
  Cl  Cl508  1  0.85913248  0.47895344  0.75077587  1
  Cl  Cl509  1  0.86390089  0.81231088  0.75036010  1
  Cl  Cl510  1  0.13766189  0.18565571  0.25095669  1
  Cl  Cl511  1  0.13708210  0.52307382  0.25073152  1
  Cl  Cl512  1  0.13733035  0.85543126  0.25557761  1
  Cl  Cl513  1  0.63673143  0.18751283  0.25396315  1
  Cl  Cl514  1  0.63591287  0.52210146  0.24703513  1
  Cl  Cl515  1  0.63674315  0.85556936  0.24954987  1
  Cl  Cl516  1  0.13787847  0.14469261  0.74957166  1
  Cl  Cl517  1  0.13659793  0.47806921  0.74678303  1
  Cl  Cl518  1  0.13853276  0.81179340  0.74762818  1
  Cl  Cl519  1  0.64224778  0.14404879  0.74839790  1
  Cl  Cl520  1  0.63602213  0.47753558  0.74986467  1
  Cl  Cl521  1  0.63900207  0.81112108  0.74853437  1
  Cl  Cl522  1  0.36271379  0.18846775  0.24437863  1
  Cl  Cl523  1  0.36319096  0.52209463  0.25020038  1
  Cl  Cl524  1  0.36109632  0.85677337  0.24700162  1
  Cl  Cl525  1  0.86157961  0.18771221  0.24997351  1
  Cl  Cl526  1  0.86087739  0.52245484  0.25094500  1
  Cl  Cl527  1  0.86201059  0.85546846  0.25190539  1
  Cl  Cl528  1  0.11230150  0.31135212  0.74909961  1
  Cl  Cl529  1  0.11250251  0.64472905  0.74374522  1
  Cl  Cl530  1  0.11274298  0.98019250  0.74659243  1
  Cl  Cl531  1  0.61232675  0.30994555  0.75061671  1
  Cl  Cl532  1  0.61468047  0.64395200  0.74854705  1
  Cl  Cl533  1  0.61395077  0.97844317  0.74996288  1
  Cl  Cl534  1  0.38748778  0.02143439  0.24649166  1
  Cl  Cl535  1  0.38641836  0.35418230  0.24450949  1
  Cl  Cl536  1  0.38805180  0.68980547  0.25319542  1
  Cl  Cl537  1  0.88590748  0.02286620  0.25186699  1
  Cl  Cl538  1  0.88539643  0.35566389  0.25108404  1
  Cl  Cl539  1  0.88860136  0.68826883  0.25322616  1
  Cl  Cl540  1  0.39121693  0.30907860  0.75471638  1
  Cl  Cl541  1  0.39021493  0.64740193  0.75093066  1
  Cl  Cl542  1  0.38858124  0.97841179  0.75253076  1
  Cl  Cl543  1  0.88590285  0.31030093  0.75156198  1
  Cl  Cl544  1  0.88830591  0.64494309  0.75013758  1
  Cl  Cl545  1  0.88811580  0.97847457  0.75042955  1
  Cl  Cl546  1  0.10802173  0.02285337  0.25247613  1
  Cl  Cl547  1  0.11117031  0.35391272  0.24852791  1
  Cl  Cl548  1  0.11381597  0.68884957  0.25535989  1
  Cl  Cl549  1  0.61170835  0.02142334  0.25124302  1
  Cl  Cl550  1  0.61362696  0.35459053  0.25098818  1
  Cl  Cl551  1  0.61010943  0.69127446  0.25101334  1
