# generated using pymatgen
data_H8PbC4(N3Cl2)2
_symmetry_space_group_name_H-M   'P 1'
_cell_length_a   16.62175297
_cell_length_b   22.50445809
_cell_length_c   21.58827812
_cell_angle_alpha   89.99930103
_cell_angle_beta   89.99081655
_cell_angle_gamma   90.00466293
_symmetry_Int_Tables_number   1
_chemical_formula_structural   H8PbC4(N3Cl2)2
_chemical_formula_sum   'H192 Pb24 C96 N144 Cl96'
_cell_volume   8075.38767404
_cell_formula_units_Z   24
loop_
 _symmetry_equiv_pos_site_id
 _symmetry_equiv_pos_as_xyz
  1  'x, y, z'
loop_
 _atom_site_type_symbol
 _atom_site_label
 _atom_site_symmetry_multiplicity
 _atom_site_fract_x
 _atom_site_fract_y
 _atom_site_fract_z
 _atom_site_occupancy
  H  H0  1  0.01030520  0.03338596  0.68216624  1
  H  H1  1  0.00911705  0.36467899  0.68066510  1
  H  H2  1  -0.00753605  0.69653159  0.67886219  1
  H  H3  1  0.48756812  0.03184734  0.67521681  1
  H  H4  1  0.49141670  0.36521149  0.67755007  1
  H  H5  1  0.50441429  0.69796702  0.68048557  1
  H  H6  1  0.00348743  0.30394532  0.17865661  1
  H  H7  1  -0.00812305  0.63491197  0.18020480  1
  H  H8  1  -0.00590165  0.96829987  0.17754302  1
  H  H9  1  0.49252765  0.30306261  0.17705246  1
  H  H10  1  0.50862810  0.63410289  0.18062560  1
  H  H11  1  0.50107828  0.96706607  0.17645548  1
  H  H12  1  -0.00263981  0.03029146  0.82074000  1
  H  H13  1  -0.00674420  0.36289584  0.82060148  1
  H  H14  1  -0.00963309  0.69806788  0.81894765  1
  H  H15  1  0.50127522  0.03248932  0.82100988  1
  H  H16  1  0.50160312  0.36473441  0.81919350  1
  H  H17  1  0.50721362  0.69911834  0.82097610  1
  H  H18  1  0.00192382  0.30256243  0.31810745  1
  H  H19  1  -0.00454272  0.63486010  0.32162644  1
  H  H20  1  0.01223863  0.96746777  0.32238249  1
  H  H21  1  0.50518014  0.30077646  0.31912589  1
  H  H22  1  0.51165533  0.63501716  0.32283986  1
  H  H23  1  0.48795491  0.96909739  0.32073837  1
  H  H24  1  0.24689486  0.19762708  0.67940483  1
  H  H25  1  0.24534517  0.53237219  0.67843373  1
  H  H26  1  0.25179160  0.86505127  0.68385294  1
  H  H27  1  0.74860423  0.19806033  0.68247497  1
  H  H28  1  0.75600863  0.53169639  0.68112546  1
  H  H29  1  0.74180441  0.86547666  0.67534415  1
  H  H30  1  0.25197698  0.13470601  0.18148794  1
  H  H31  1  0.24243102  0.46798591  0.18118500  1
  H  H32  1  0.24231540  0.80437542  0.17615303  1
  H  H33  1  0.74829546  0.13307656  0.17990878  1
  H  H34  1  0.75799463  0.46776747  0.18111392  1
  H  H35  1  0.75590898  0.80322034  0.17844042  1
  H  H36  1  0.25284358  0.19749502  0.82109605  1
  H  H37  1  0.25056651  0.53261700  0.82305323  1
  H  H38  1  0.25662975  0.86492069  0.82268124  1
  H  H39  1  0.74789115  0.19899849  0.82116319  1
  H  H40  1  0.74199229  0.53039574  0.81776359  1
  H  H41  1  0.74465579  0.86564335  0.82151175  1
  H  H42  1  0.24237525  0.13512429  0.32018708  1
  H  H43  1  0.25287364  0.47017656  0.32062603  1
  H  H44  1  0.25056015  0.80021239  0.31744272  1
  H  H45  1  0.75417950  0.13418420  0.31966789  1
  H  H46  1  0.75071761  0.46772204  0.32199387  1
  H  H47  1  0.75696736  0.80266329  0.32207078  1
  H  H48  1  0.11878696  0.05704560  0.60084613  1
  H  H49  1  0.12591666  0.39045680  0.60218191  1
  H  H50  1  0.13082140  0.71579100  0.62442416  1
  H  H51  1  0.62608810  0.04949820  0.61951414  1
  H  H52  1  0.63028657  0.38252428  0.62124027  1
  H  H53  1  0.62782803  0.72071835  0.61160414  1
  H  H54  1  0.38644807  0.27312763  0.09383541  1
  H  H55  1  0.36897419  0.61555207  0.12582053  1
  H  H56  1  0.37733036  0.94590149  0.10790175  1
  H  H57  1  0.87626962  0.27943201  0.11002876  1
  H  H58  1  0.87700666  0.61054663  0.10269074  1
  H  H59  1  0.88128688  0.94345989  0.09702640  1
  H  H60  1  0.38329778  0.05293995  0.89520846  1
  H  H61  1  0.37636640  0.38779330  0.88787159  1
  H  H62  1  0.37392351  0.71741247  0.88295150  1
  H  H63  1  0.88223921  0.05519343  0.90054497  1
  H  H64  1  0.87704580  0.38886379  0.89715960  1
  H  H65  1  0.88011340  0.72551400  0.89986335  1
  H  H66  1  0.11889322  0.27987152  0.39496812  1
  H  H67  1  0.12688179  0.61275355  0.38521943  1
  H  H68  1  0.11578494  0.93999488  0.40801585  1
  H  H69  1  0.61641394  0.27631019  0.39981199  1
  H  H70  1  0.62195414  0.60845330  0.40397797  1
  H  H71  1  0.62439540  0.94854644  0.38058139  1
  H  H72  1  0.38111556  0.21866946  0.61749513  1
  H  H73  1  0.37616566  0.55442478  0.61281960  1
  H  H74  1  0.37589770  0.88616548  0.61365066  1
  H  H75  1  0.87985456  0.21839348  0.61573985  1
  H  H76  1  0.87074216  0.55639359  0.60280117  1
  H  H77  1  0.87636772  0.88800424  0.61585803  1
  H  H78  1  0.11993611  0.11382542  0.11599069  1
  H  H79  1  0.12539144  0.44621513  0.10600553  1
  H  H80  1  0.12717882  0.77298036  0.10065503  1
  H  H81  1  0.61597775  0.11417691  0.11676219  1
  H  H82  1  0.62378764  0.44704914  0.11781718  1
  H  H83  1  0.62114203  0.78401094  0.11853720  1
  H  H84  1  0.11934634  0.21896491  0.88155733  1
  H  H85  1  0.12970472  0.55349899  0.89505632  1
  H  H86  1  0.12086717  0.88595123  0.88021425  1
  H  H87  1  0.61733657  0.21783635  0.88652901  1
  H  H88  1  0.63033201  0.55616810  0.89798562  1
  H  H89  1  0.62224675  0.88914099  0.89373419  1
  H  H90  1  0.37582960  0.11343354  0.38271308  1
  H  H91  1  0.36730769  0.44402280  0.39937418  1
  H  H92  1  0.36789558  0.77820715  0.39261541  1
  H  H93  1  0.87040096  0.11141226  0.39503245  1
  H  H94  1  0.86887450  0.44500236  0.39819291  1
  H  H95  1  0.86483268  0.77419201  0.40481138  1
  H  H96  1  0.36876468  0.28119430  0.37914672  1
  H  H97  1  0.37512091  0.61595548  0.38180399  1
  H  H98  1  0.37794437  0.94243403  0.40354366  1
  H  H99  1  0.87019970  0.28068856  0.38392890  1
  H  H100  1  0.87794264  0.60926621  0.39795754  1
  H  H101  1  0.87105885  0.95038220  0.37438745  1
  H  H102  1  0.12989463  0.05328263  0.88315559  1
  H  H103  1  0.12544421  0.38530065  0.88379816  1
  H  H104  1  0.12720614  0.71703354  0.87823969  1
  H  H105  1  0.63240741  0.05131258  0.88603906  1
  H  H106  1  0.62632495  0.38690540  0.89056912  1
  H  H107  1  0.62212921  0.72486691  0.89663985  1
  H  H108  1  0.12438026  0.27868188  0.10484093  1
  H  H109  1  0.12552697  0.61435103  0.11797580  1
  H  H110  1  0.12854447  0.94713465  0.11611115  1
  H  H111  1  0.63190426  0.28388835  0.12255534  1
  H  H112  1  0.61507942  0.61064694  0.09648844  1
  H  H113  1  0.62623175  0.94820630  0.10765499  1
  H  H114  1  0.38049912  0.06047646  0.59299495  1
  H  H115  1  0.38475858  0.39544323  0.59488298  1
  H  H116  1  0.37880042  0.71938682  0.61180842  1
  H  H117  1  0.87200630  0.04805809  0.62603095  1
  H  H118  1  0.87819848  0.38650783  0.61410202  1
  H  H119  1  0.88434372  0.72692771  0.59625229  1
  H  H120  1  0.12829842  0.10922640  0.40019287  1
  H  H121  1  0.11943061  0.44851178  0.38143057  1
  H  H122  1  0.11855037  0.78038243  0.38195134  1
  H  H123  1  0.62192040  0.11418238  0.38225903  1
  H  H124  1  0.62017910  0.44794146  0.38668697  1
  H  H125  1  0.61843605  0.78278726  0.37696266  1
  H  H126  1  0.36706028  0.22425534  0.89989078  1
  H  H127  1  0.37820599  0.55309690  0.88910593  1
  H  H128  1  0.36750184  0.89157522  0.90401925  1
  H  H129  1  0.86562877  0.22328209  0.89790710  1
  H  H130  1  0.87785068  0.55028079  0.87836424  1
  H  H131  1  0.87144277  0.88779098  0.89079919  1
  H  H132  1  0.36872267  0.10972276  0.10489882  1
  H  H133  1  0.37447045  0.44939143  0.11729280  1
  H  H134  1  0.37433407  0.78656456  0.11205859  1
  H  H135  1  0.86485983  0.11183533  0.10433096  1
  H  H136  1  0.87121638  0.44269128  0.10002446  1
  H  H137  1  0.86883092  0.77620711  0.09874073  1
  H  H138  1  0.13235043  0.22266916  0.60225863  1
  H  H139  1  0.12830800  0.55630833  0.60046764  1
  H  H140  1  0.12603537  0.88640376  0.61507147  1
  H  H141  1  0.63098182  0.22034625  0.60578435  1
  H  H142  1  0.62230225  0.55335586  0.61779738  1
  H  H143  1  0.62916859  0.89177407  0.59596516  1
  H  H144  1  0.34885679  0.24618654  0.50972347  1
  H  H145  1  0.41770655  0.41869586  0.99748502  1
  H  H146  1  0.43857528  0.07746914  1.00751529  1
  H  H147  1  0.54890238  0.24748786  0.50507231  1
  H  H148  1  0.31445699  0.74935411  0.50141040  1
  H  H149  1  0.94032482  0.58050560  0.50173520  1
  H  H150  1  0.30685421  0.07961323  -0.00217367  1
  H  H151  1  0.30085628  0.25093437  1.00267238  1
  H  H152  1  0.58561557  0.74920019  0.49986568  1
  H  H153  1  0.79115407  0.75005572  0.50592470  1
  H  H154  1  0.46376490  0.25516144  -0.00678822  1
  H  H155  1  0.60598212  0.08172929  0.51053034  1
  H  H156  1  0.60935266  0.41762435  0.51455633  1
  H  H157  1  0.30140321  0.41891834  0.50270157  1
  H  H158  1  0.09768555  0.92090032  0.00764499  1
  H  H159  1  0.17919558  0.41892095  -0.00346057  1
  H  H160  1  0.69100135  0.24649897  0.49752646  1
  H  H161  1  0.95649425  0.74777091  0.49503094  1
  H  H162  1  0.80648833  0.58261913  0.49545574  1
  H  H163  1  0.19692163  0.08326377  0.50220442  1
  H  H164  1  0.05767066  0.25311641  0.50311586  1
  H  H165  1  0.93522147  0.57936933  -0.00371755  1
  H  H166  1  0.46048174  0.41014455  0.49384381  1
  H  H167  1  0.38504462  0.58618824  0.01625445  1
  H  H168  1  0.05082651  0.08340354  0.49324111  1
  H  H169  1  0.81827726  0.08314765  0.50374611  1
  H  H170  1  0.33546320  0.58332378  0.50678193  1
  H  H171  1  0.34269124  0.74992654  0.00789828  1
  H  H172  1  0.45098003  0.91689066  0.50421074  1
  H  H173  1  0.80113747  0.75248708  -0.00441619  1
  H  H174  1  0.80748703  0.08498967  -0.00646817  1
  H  H175  1  0.16930720  0.91005114  0.50239589  1
  H  H176  1  0.92523551  0.25298502  0.00408901  1
  H  H177  1  0.19340939  0.25157811  0.49408151  1
  H  H178  1  0.81115010  0.41460844  0.50090333  1
  H  H179  1  0.69811806  0.58294906  1.00390674  1
  H  H180  1  0.09436225  0.58345133  0.01232340  1
  H  H181  1  0.57893813  0.41614079  0.99469473  1
  H  H182  1  0.95011576  0.75375909  1.00473800  1
  H  H183  1  0.84722914  0.91727927  0.50645055  1
  H  H184  1  0.56690849  0.75487780  1.00456215  1
  H  H185  1  0.94987559  0.07959300  1.00277651  1
  H  H186  1  0.11328031  0.74817115  0.51158690  1
  H  H187  1  0.54338785  0.58463852  -0.00847253  1
  H  H188  1  0.61246525  0.24861736  0.01515755  1
  H  H189  1  0.32955002  0.90929068  0.50086347  1
  H  H190  1  0.03857236  0.91653376  0.50770272  1
  H  H191  1  0.18916646  0.75523457  -0.00285378  1
  Pb  Pb192  1  0.25628630  0.04884043  0.74433066  1
  Pb  Pb193  1  0.24830308  0.38210769  0.74436311  1
  Pb  Pb194  1  0.25360834  0.71299693  0.75469995  1
  Pb  Pb195  1  0.75064765  0.04531651  0.75422428  1
  Pb  Pb196  1  0.75655668  0.38084776  0.74874244  1
  Pb  Pb197  1  0.75673712  0.71733752  0.75225112  1
  Pb  Pb198  1  0.24336382  0.28509819  0.24589387  1
  Pb  Pb199  1  0.24899089  0.62021142  0.25385793  1
  Pb  Pb200  1  0.24808104  0.95350766  0.25862740  1
  Pb  Pb201  1  0.75062919  0.28629332  0.25475628  1
  Pb  Pb202  1  0.74607191  0.62089152  0.25029473  1
  Pb  Pb203  1  0.74587060  0.95268459  0.24729597  1
  Pb  Pb204  1  0.00059363  0.21172221  0.75021417  1
  Pb  Pb205  1  0.00160134  0.54882817  0.74536746  1
  Pb  Pb206  1  0.00512882  0.88223936  0.74776116  1
  Pb  Pb207  1  0.50443751  0.21673383  0.75290374  1
  Pb  Pb208  1  0.50320168  0.54719125  0.75419602  1
  Pb  Pb209  1  0.50208598  0.87924872  0.74674444  1
  Pb  Pb210  1  -0.00602976  0.11791906  0.25008909  1
  Pb  Pb211  1  -0.00318783  0.45505132  0.24788664  1
  Pb  Pb212  1  -0.00350855  0.78601789  0.24965188  1
  Pb  Pb213  1  0.49711723  0.12019600  0.25058336  1
  Pb  Pb214  1  0.49745628  0.45095615  0.25371472  1
  Pb  Pb215  1  0.49615064  0.78823888  0.25040039  1
  C  C216  1  0.00039139  0.04618670  0.63435907  1
  C  C217  1  0.00451879  0.38004127  0.63315013  1
  C  C218  1  0.00238749  0.71194956  0.63169557  1
  C  C219  1  0.49853887  0.04708391  0.62833518  1
  C  C220  1  0.50239468  0.38066711  0.63053799  1
  C  C221  1  0.50415773  0.71274472  0.63276330  1
  C  C222  1  0.00114603  0.28778689  0.13142386  1
  C  C223  1  -0.00148082  0.61953014  0.13267707  1
  C  C224  1  0.00175047  0.95325433  0.13017113  1
  C  C225  1  0.50387690  0.28710953  0.13022661  1
  C  C226  1  0.49678002  0.61942137  0.13339284  1
  C  C227  1  0.50156847  0.95339674  0.12818209  1
  C  C228  1  0.00272962  0.04555902  0.86815882  1
  C  C229  1  -0.00112685  0.37892073  0.86756107  1
  C  C230  1  -0.00042225  0.71297406  0.86622398  1
  C  C231  1  0.50550563  0.04581812  0.86911301  1
  C  C232  1  0.50191001  0.38012810  0.86692218  1
  C  C233  1  0.50133900  0.71366597  0.86863062  1
  C  C234  1  -0.00332888  0.28753200  0.36566903  1
  C  C235  1  -0.00019970  0.61984661  0.36911236  1
  C  C236  1  -0.00002903  0.95324628  0.36954907  1
  C  C237  1  0.49632807  0.28606497  0.36656547  1
  C  C238  1  0.50260418  0.61999780  0.36988855  1
  C  C239  1  0.49628688  0.95422824  0.36812927  1
  C  C240  1  0.25417031  0.21294475  0.63192931  1
  C  C241  1  0.25024469  0.54762732  0.63088481  1
  C  C242  1  0.25119053  0.87950218  0.63582320  1
  C  C243  1  0.75336173  0.21228317  0.63461499  1
  C  C244  1  0.74941020  0.54702290  0.63377233  1
  C  C245  1  0.74973117  0.88097973  0.62825344  1
  C  C246  1  0.24664169  0.11977730  0.13386899  1
  C  C247  1  0.24715468  0.45447926  0.13314873  1
  C  C248  1  0.24783742  0.78824613  0.12881101  1
  C  C249  1  0.74314699  0.11974061  0.13189865  1
  C  C250  1  0.75086467  0.45309725  0.13350497  1
  C  C251  1  0.74897134  0.78851811  0.13093827  1
  C  C252  1  0.24663752  0.21242225  0.86849692  1
  C  C253  1  0.25280563  0.54657136  0.87097245  1
  C  C254  1  0.24842026  0.88042414  0.86967444  1
  C  C255  1  0.74364860  0.21327576  0.86893996  1
  C  C256  1  0.75038481  0.54560228  0.86500825  1
  C  C257  1  0.74637203  0.88060736  0.86903684  1
  C  C258  1  0.24859836  0.12017120  0.36773935  1
  C  C259  1  0.24683476  0.45519085  0.36797412  1
  C  C260  1  0.24602676  0.78611992  0.36532488  1
  C  C261  1  0.74921215  0.11993002  0.36746634  1
  C  C262  1  0.74683027  0.45282886  0.36972408  1
  C  C263  1  0.74691324  0.78738007  0.36912153  1
  C  C264  1  0.72262161  0.91128932  0.53234188  1
  C  C265  1  0.46193818  0.73842902  0.53965833  1
  C  C266  1  0.20920371  0.90183754  0.54137621  1
  C  C267  1  0.27659622  0.76036379  0.46194171  1
  C  C268  1  0.21658251  0.42926738  0.03643730  1
  C  C269  1  0.77883124  0.09385678  0.46414986  1
  C  C270  1  0.71153916  0.90827395  0.96209134  1
  C  C271  1  0.29801537  0.57139714  0.96327552  1
  C  C272  1  0.05141978  0.59025898  0.45906409  1
  C  C273  1  0.47815769  0.07854010  0.53186397  1
  C  C274  1  0.22566715  0.24076678  0.53653080  1
  C  C275  1  0.21662290  0.57162605  0.96531688  1
  C  C276  1  0.68480911  0.76014607  0.45568096  1
  C  C277  1  0.72510702  0.23684673  0.53938800  1
  C  C278  1  0.51779782  0.25895713  0.46227127  1
  C  C279  1  0.77436923  0.57312177  0.53833581  1
  C  C280  1  0.69756023  0.23593294  0.96107356  1
  C  C281  1  0.29114391  0.90157424  0.54079090  1
  C  C282  1  0.93443631  0.92907287  0.45527437  1
  C  C283  1  0.47419987  0.06934385  0.96603791  1
  C  C284  1  0.52368282  0.59082701  0.46539294  1
  C  C285  1  0.45969784  0.40744078  0.95947319  1
  C  C286  1  0.96961208  0.59136406  0.03727634  1
  C  C287  1  0.93948278  0.06846084  0.54649578  1
  C  C288  1  0.51474871  0.59385938  0.03585023  1
  C  C289  1  0.46217943  0.92870693  0.03565782  1
  C  C290  1  0.02008259  0.07190475  0.53619329  1
  C  C291  1  0.19538982  0.76208509  0.45653213  1
  C  C292  1  0.77258480  0.09538840  0.03483331  1
  C  C293  1  0.02441983  0.26187439  0.46063682  1
  C  C294  1  0.06360075  0.73896809  0.54573927  1
  C  C295  1  0.97999981  0.74170190  0.96160466  1
  C  C296  1  0.19217215  0.42580389  0.45681016  1
  C  C297  1  0.44781705  0.73825117  0.95896623  1
  C  C298  1  0.19159927  0.24107716  0.95741953  1
  C  C299  1  0.69657265  0.42915196  0.46172292  1
  C  C300  1  0.69218025  0.76135527  0.04204508  1
  C  C301  1  0.69735623  0.09528983  0.45816695  1
  C  C302  1  0.55587626  0.06872509  0.96116106  1
  C  C303  1  0.97127599  0.41023406  0.96094740  1
  C  C304  1  0.54344995  0.73903004  0.53807969  1
  C  C305  1  0.29782047  0.43116673  0.04196019  1
  C  C306  1  0.52934173  0.74185914  0.96495307  1
  C  C307  1  0.19443266  0.90837679  0.95763764  1
  C  C308  1  0.27373836  0.09177608  0.03943446  1
  C  C309  1  0.72888562  0.57237702  0.96073454  1
  C  C310  1  0.69100006  0.09643359  0.04062753  1
  C  C311  1  0.54259174  0.92949944  0.03574769  1
  N  N312  1  0.48700258  0.25207088  0.03759784  1
  N  N313  1  0.77507796  0.23853448  0.96604150  1
  N  N314  1  0.29771902  0.76600665  0.03902254  1
  N  N315  1  0.04885128  0.40908447  0.95797654  1
  N  N316  1  0.04017915  0.25980594  0.03798880  1
  N  N317  1  0.95782784  0.40694864  0.54173180  1
  N  N318  1  0.47737680  0.92547840  0.46208429  1
  N  N319  1  0.76316720  0.75752645  0.46406962  1
  N  N320  1  0.01220466  0.92548859  0.46566559  1
  N  N321  1  0.05880458  0.73912114  0.95452472  1
  N  N322  1  0.05675789  0.07223515  0.95723218  1
  N  N323  1  0.78887777  0.90764558  0.96259179  1
  N  N324  1  0.96215490  0.25966404  0.04126244  1
  N  N325  1  0.55472239  0.92808535  0.45554099  1
  N  N326  1  0.97261946  0.59036213  0.46267965  1
  N  N327  1  0.77093824  0.75933647  0.03644187  1
  N  N328  1  0.19477682  0.09368024  0.04294299  1
  N  N329  1  0.27021894  0.24207405  0.96248340  1
  N  N330  1  0.80096148  0.90880076  0.53978077  1
  N  N331  1  0.97908208  0.07319207  0.96155296  1
  N  N332  1  0.77614654  0.42557748  0.03744944  1
  N  N333  1  0.04890655  0.59311179  0.04370658  1
  N  N334  1  0.56424150  0.26452988  0.04463582  1
  N  N335  1  0.77572580  0.42743855  0.46447959  1
  N  N336  1  0.55591337  0.07376866  0.54179447  1
  N  N337  1  0.30479296  0.23922524  0.54310639  1
  N  N338  1  0.69986823  0.42752125  0.04304768  1
  N  N339  1  0.22038861  0.75130029  0.03815471  1
  N  N340  1  0.97419070  0.92655049  0.03412504  1
  N  N341  1  0.30321721  0.09387768  0.45671312  1
  N  N342  1  0.03415935  0.40779241  0.53783745  1
  N  N343  1  0.56168259  0.40172794  0.54404020  1
  N  N344  1  0.44656477  0.59331690  0.45953696  1
  N  N345  1  0.43645200  0.59464448  0.04731566  1
  N  N346  1  0.98474282  0.74296688  0.53726571  1
  N  N347  1  0.43896049  0.26102022  0.45573870  1
  N  N348  1  0.69537881  0.57289385  0.54354135  1
  N  N349  1  0.29450113  0.57292350  0.54107890  1
  N  N350  1  0.48449914  0.41501785  0.53759882  1
  N  N351  1  0.53952900  0.40646405  0.95946838  1
  N  N352  1  0.27149627  0.91037619  0.96658087  1
  N  N353  1  0.05204195  0.92772595  0.04197609  1
  N  N354  1  0.22552492  0.09220260  0.46120009  1
  N  N355  1  0.94540297  0.26072017  0.45659768  1
  N  N356  1  0.21649841  0.57395996  0.53578287  1
  N  N357  1  0.80777717  0.57095190  0.95424838  1
  N  N358  1  0.80413126  0.23618307  0.54276753  1
  N  N359  1  0.27079190  0.42574140  0.46198836  1
  N  N360  1  0.05710736  0.05752995  0.59218740  1
  N  N361  1  0.06449290  0.39097613  0.59427354  1
  N  N362  1  0.07431622  0.72127659  0.60479875  1
  N  N363  1  0.56874087  0.05444306  0.60113709  1
  N  N364  1  0.57302581  0.38990359  0.60403906  1
  N  N365  1  0.56851573  0.72296017  0.59749828  1
  N  N366  1  0.44901841  0.27603820  0.08716617  1
  N  N367  1  0.42617103  0.60992304  0.10729170  1
  N  N368  1  0.43650156  0.94316236  0.09204533  1
  N  N369  1  0.93669621  0.27797899  0.09717519  1
  N  N370  1  0.93796570  0.60798973  0.09259644  1
  N  N371  1  0.94330536  0.94179275  0.08956839  1
  N  N372  1  0.44386954  0.05523398  0.90757444  1
  N  N373  1  0.43631377  0.39117086  0.90185360  1
  N  N374  1  0.43193062  0.72152494  0.90043961  1
  N  N375  1  0.94423112  0.05511996  0.90841516  1
  N  N376  1  0.93807199  0.39203653  0.90680320  1
  N  N377  1  0.94216933  0.72572617  0.90790684  1
  N  N378  1  0.05757103  0.27748789  0.40507969  1
  N  N379  1  0.06841705  0.60856844  0.40126589  1
  N  N380  1  0.05364075  0.94212016  0.41312784  1
  N  N381  1  0.55435319  0.27417288  0.40794932  1
  N  N382  1  0.56044340  0.60665463  0.41174025  1
  N  N383  1  0.56588271  0.94470196  0.39681293  1
  N  N384  1  0.32215144  0.22152638  0.60164374  1
  N  N385  1  0.31644128  0.55764331  0.59870633  1
  N  N386  1  0.31601073  0.88786627  0.59986830  1
  N  N387  1  0.82002062  0.22103801  0.60206876  1
  N  N388  1  0.80923914  0.55773403  0.59349180  1
  N  N389  1  0.81819195  0.88991859  0.59894526  1
  N  N390  1  0.17954320  0.11099972  0.10182827  1
  N  N391  1  0.18605545  0.44401218  0.09458722  1
  N  N392  1  0.18822015  0.77501343  0.09054735  1
  N  N393  1  0.67413951  0.11088450  0.09957950  1
  N  N394  1  0.68306911  0.44454958  0.10268911  1
  N  N395  1  0.67858903  0.77854302  0.10075624  1
  N  N396  1  0.17671345  0.22335543  0.89915496  1
  N  N397  1  0.18972632  0.55650784  0.90856017  1
  N  N398  1  0.17808502  0.89049753  0.89851690  1
  N  N399  1  0.67595381  0.22097163  0.90201442  1
  N  N400  1  0.69220494  0.55758005  0.90622527  1
  N  N401  1  0.68253973  0.89199393  0.90583064  1
  N  N402  1  0.31697800  0.10995778  0.39796479  1
  N  N403  1  0.30564286  0.44563577  0.40796998  1
  N  N404  1  0.30702071  0.77566055  0.40371601  1
  N  N405  1  0.80985049  0.10934893  0.40617893  1
  N  N406  1  0.80727764  0.44124447  0.40728441  1
  N  N407  1  0.80244838  0.77662891  0.41138379  1
  N  N408  1  0.42725843  0.27773137  0.39564712  1
  N  N409  1  0.43347363  0.61185812  0.39858352  1
  N  N410  1  0.43982712  0.94342666  0.40994228  1
  N  N411  1  0.92984619  0.27689293  0.39735496  1
  N  N412  1  0.93948270  0.60972822  0.40766531  1
  N  N413  1  0.92670024  0.94527267  0.39541333  1
  N  N414  1  0.07100847  0.05655669  0.89839750  1
  N  N415  1  0.06599404  0.38933067  0.89834338  1
  N  N416  1  0.06884526  0.72106470  0.89502135  1
  N  N417  1  0.57388261  0.05468480  0.90224579  1
  N  N418  1  0.56537841  0.38966465  0.90235855  1
  N  N419  1  0.56138916  0.72593731  0.90747091  1
  N  N420  1  0.06397267  0.27633324  0.09493917  1
  N  N421  1  0.06618696  0.60995717  0.10244286  1
  N  N422  1  0.06975048  0.94430810  0.10000292  1
  N  N423  1  0.57479228  0.27706568  0.10452280  1
  N  N424  1  0.55281600  0.60889215  0.08937868  1
  N  N425  1  0.56722969  0.94434158  0.09234174  1
  N  N426  1  0.44205713  0.06177477  0.58534670  1
  N  N427  1  0.44702227  0.39176314  0.58786272  1
  N  N428  1  0.43841406  0.72279553  0.59682177  1
  N  N429  1  0.92824014  0.05320599  0.60576526  1
  N  N430  1  0.93821795  0.39018689  0.60087277  1
  N  N431  1  0.94690820  0.72341683  0.58941752  1
  N  N432  1  0.19038297  0.11001694  0.40817411  1
  N  N433  1  0.17708059  0.44341025  0.39851293  1
  N  N434  1  0.17716400  0.77742808  0.39793361  1
  N  N435  1  0.68030813  0.11084141  0.39942659  1
  N  N436  1  0.67850697  0.44459492  0.40298505  1
  N  N437  1  0.67480534  0.77747153  0.39654759  1
  N  N438  1  0.30537475  0.22243175  0.90844721  1
  N  N439  1  0.31938174  0.55625200  0.90486651  1
  N  N440  1  0.30525416  0.89236599  0.91047767  1
  N  N441  1  0.80372289  0.22399405  0.90718654  1
  N  N442  1  0.81914428  0.55428556  0.89451767  1
  N  N443  1  0.81084028  0.89035295  0.90325904  1
  N  N444  1  0.30730958  0.10768055  0.09487585  1
  N  N445  1  0.31595767  0.44609937  0.10046505  1
  N  N446  1  0.31530069  0.78023234  0.09750426  1
  N  N447  1  0.80392815  0.11021323  0.09268332  1
  N  N448  1  0.80899880  0.44140364  0.09323473  1
  N  N449  1  0.80708035  0.77814591  0.09059326  1
  N  N450  1  0.19388353  0.22501290  0.59183031  1
  N  N451  1  0.18953736  0.55793591  0.59193556  1
  N  N452  1  0.18572501  0.88833504  0.60080411  1
  N  N453  1  0.69218116  0.22247631  0.59551691  1
  N  N454  1  0.68179557  0.55681442  0.60297591  1
  N  N455  1  0.69054678  0.89393299  0.58693692  1
  Cl  Cl456  1  0.24634651  0.05967724  0.60668797  1
  Cl  Cl457  1  0.26136067  0.39369671  0.60156869  1
  Cl  Cl458  1  0.25574379  0.71770913  0.62357781  1
  Cl  Cl459  1  0.74728574  0.04835975  0.62206876  1
  Cl  Cl460  1  0.75468510  0.38801145  0.61043104  1
  Cl  Cl461  1  0.76326837  0.72843510  0.60751984  1
  Cl  Cl462  1  0.26341529  0.27390428  0.10473954  1
  Cl  Cl463  1  0.24572242  0.61722536  0.12109693  1
  Cl  Cl464  1  0.25109626  0.94619527  0.12711622  1
  Cl  Cl465  1  0.75484289  0.27969991  0.12230743  1
  Cl  Cl466  1  0.74188007  0.61541248  0.11413989  1
  Cl  Cl467  1  0.75687532  0.94741342  0.11718020  1
  Cl  Cl468  1  0.25780492  0.05423483  0.87809187  1
  Cl  Cl469  1  0.25236665  0.38282361  0.87670728  1
  Cl  Cl470  1  0.25065967  0.72326299  0.89046467  1
  Cl  Cl471  1  0.76079865  0.05401975  0.88772470  1
  Cl  Cl472  1  0.74983791  0.38335997  0.87945454  1
  Cl  Cl473  1  0.75628747  0.72699722  0.89056934  1
  Cl  Cl474  1  0.24147492  0.28068772  0.38452555  1
  Cl  Cl475  1  0.25117744  0.61180813  0.38501918  1
  Cl  Cl476  1  0.24754245  0.94218856  0.39521724  1
  Cl  Cl477  1  0.73932298  0.28108931  0.38927442  1
  Cl  Cl478  1  0.75338933  0.61187833  0.38700612  1
  Cl  Cl479  1  0.74747690  0.94504501  0.38235296  1
  Cl  Cl480  1  0.00978684  0.21987412  0.61618991  1
  Cl  Cl481  1  -0.00333955  0.55994964  0.60688379  1
  Cl  Cl482  1  0.00309157  0.89024735  0.60839255  1
  Cl  Cl483  1  0.50702639  0.21918162  0.61697502  1
  Cl  Cl484  1  0.49767926  0.55129085  0.62216936  1
  Cl  Cl485  1  0.50119339  0.89152325  0.60883511  1
  Cl  Cl486  1  -0.01082105  0.10918744  0.11216228  1
  Cl  Cl487  1  -0.00473124  0.44687135  0.11426863  1
  Cl  Cl488  1  -0.00399543  0.77537321  0.11345929  1
  Cl  Cl489  1  0.48999768  0.11471203  0.11762803  1
  Cl  Cl490  1  0.50017711  0.44500313  0.11562639  1
  Cl  Cl491  1  0.49619939  0.78287071  0.11688929  1
  Cl  Cl492  1  -0.01116906  0.22151595  0.88498480  1
  Cl  Cl493  1  0.00423161  0.55299644  0.87946472  1
  Cl  Cl494  1  -0.00427407  0.88639898  0.87878648  1
  Cl  Cl495  1  0.48989808  0.22916632  0.89476176  1
  Cl  Cl496  1  0.50715468  0.55480515  0.89021576  1
  Cl  Cl497  1  0.49521938  0.88685782  0.87798600  1
  Cl  Cl498  1  0.00638634  0.10989628  0.38492872  1
  Cl  Cl499  1  -0.00876756  0.45233781  0.38044680  1
  Cl  Cl500  1  -0.01273523  0.77429610  0.39428711  1
  Cl  Cl501  1  0.49912642  0.11213723  0.38397823  1
  Cl  Cl502  1  0.49125671  0.44035403  0.39401815  1
  Cl  Cl503  1  0.49277502  0.78161215  0.38227566  1
  Cl  Cl504  1  0.35886484  0.14486411  0.74600388  1
  Cl  Cl505  1  0.36483719  0.47922403  0.75022883  1
  Cl  Cl506  1  0.35960907  0.81251444  0.75007800  1
  Cl  Cl507  1  0.86079989  0.14614211  0.74616164  1
  Cl  Cl508  1  0.85851948  0.47968923  0.75103342  1
  Cl  Cl509  1  0.85930562  0.81019756  0.74753373  1
  Cl  Cl510  1  0.14259023  0.18867128  0.24573773  1
  Cl  Cl511  1  0.13657252  0.52091896  0.25245064  1
  Cl  Cl512  1  0.13496026  0.85321982  0.25233926  1
  Cl  Cl513  1  0.63457733  0.18811004  0.24821912  1
  Cl  Cl514  1  0.63604729  0.52056484  0.25202305  1
  Cl  Cl515  1  0.63934572  0.85390449  0.25108056  1
  Cl  Cl516  1  0.13874181  0.14578290  0.75330206  1
  Cl  Cl517  1  0.14474518  0.47865127  0.74759314  1
  Cl  Cl518  1  0.13705328  0.81062714  0.75241488  1
  Cl  Cl519  1  0.63727741  0.14473534  0.75438457  1
  Cl  Cl520  1  0.63600163  0.47632708  0.74492252  1
  Cl  Cl521  1  0.63888846  0.81143818  0.74659662  1
  Cl  Cl522  1  0.36237508  0.18954587  0.25771315  1
  Cl  Cl523  1  0.36190646  0.52117964  0.24545980  1
  Cl  Cl524  1  0.35793569  0.85231424  0.24748849  1
  Cl  Cl525  1  0.85953402  0.18703137  0.25291529  1
  Cl  Cl526  1  0.85892479  0.52132348  0.25033948  1
  Cl  Cl527  1  0.86141796  0.85436555  0.25435338  1
  Cl  Cl528  1  0.11347943  0.31249294  0.75178336  1
  Cl  Cl529  1  0.11160418  0.64491102  0.74964152  1
  Cl  Cl530  1  0.10755433  0.97839939  0.75098207  1
  Cl  Cl531  1  0.60887573  0.31065036  0.74696845  1
  Cl  Cl532  1  0.61111863  0.64472408  0.74954597  1
  Cl  Cl533  1  0.61295819  0.97838428  0.74850392  1
  Cl  Cl534  1  0.38766954  0.01906084  0.25150595  1
  Cl  Cl535  1  0.39128274  0.35501143  0.25012889  1
  Cl  Cl536  1  0.38617388  0.68694601  0.24894470  1
  Cl  Cl537  1  0.89220757  0.02162019  0.25460980  1
  Cl  Cl538  1  0.88759805  0.35280949  0.25338498  1
  Cl  Cl539  1  0.89090038  0.68557569  0.24833544  1
  Cl  Cl540  1  0.39198717  0.31181543  0.74570153  1
  Cl  Cl541  1  0.38951043  0.64595034  0.75285645  1
  Cl  Cl542  1  0.39011929  0.97978014  0.74373937  1
  Cl  Cl543  1  0.88887585  0.31240795  0.74572897  1
  Cl  Cl544  1  0.89080084  0.64542865  0.74909385  1
  Cl  Cl545  1  0.88615798  0.97725062  0.74451295  1
  Cl  Cl546  1  0.11270317  0.02102834  0.24691295  1
  Cl  Cl547  1  0.10933088  0.35393433  0.24753510  1
  Cl  Cl548  1  0.11246784  0.68842300  0.25263380  1
  Cl  Cl549  1  0.61104844  0.02118648  0.25246588  1
  Cl  Cl550  1  0.60826240  0.35561628  0.24637946  1
  Cl  Cl551  1  0.60724180  0.68721170  0.25009994  1
