# generated using pymatgen
data_H8PbC4(N3Cl2)2
_symmetry_space_group_name_H-M   'P 1'
_cell_length_a   16.62919498
_cell_length_b   22.51984419
_cell_length_c   21.59357523
_cell_angle_alpha   89.99779319
_cell_angle_beta   89.98105122
_cell_angle_gamma   89.99170599
_symmetry_Int_Tables_number   1
_chemical_formula_structural   H8PbC4(N3Cl2)2
_chemical_formula_sum   'H192 Pb24 C96 N144 Cl96'
_cell_volume   8086.51008105
_cell_formula_units_Z   24
loop_
 _symmetry_equiv_pos_site_id
 _symmetry_equiv_pos_as_xyz
  1  'x, y, z'
loop_
 _atom_site_type_symbol
 _atom_site_label
 _atom_site_symmetry_multiplicity
 _atom_site_fract_x
 _atom_site_fract_y
 _atom_site_fract_z
 _atom_site_occupancy
  H  H0  1  -0.01314708  0.03282130  0.67806431  1
  H  H1  1  0.00842110  0.36168284  0.67545566  1
  H  H2  1  -0.00049133  0.69030874  0.67380819  1
  H  H3  1  0.51324419  0.03246229  0.67767312  1
  H  H4  1  0.48388406  0.36092828  0.67837163  1
  H  H5  1  0.49788793  0.69814576  0.67845193  1
  H  H6  1  0.00147835  0.30498198  0.17556293  1
  H  H7  1  0.00363241  0.63792323  0.17841050  1
  H  H8  1  -0.00355787  0.97344052  0.17761965  1
  H  H9  1  0.50346244  0.30260738  0.17656350  1
  H  H10  1  0.49024311  0.63387931  0.18176111  1
  H  H11  1  0.49110333  0.97144207  0.17618173  1
  H  H12  1  0.01338214  0.02636494  0.82370040  1
  H  H13  1  -0.00182453  0.36329242  0.81913642  1
  H  H14  1  -0.00114168  0.69904299  0.82469554  1
  H  H15  1  0.48643181  0.02997506  0.81803404  1
  H  H16  1  0.50463076  0.36297122  0.81921515  1
  H  H17  1  0.50480543  0.69214063  0.82149884  1
  H  H18  1  -0.00129517  0.30680508  0.32512106  1
  H  H19  1  0.02517904  0.63252759  0.32989196  1
  H  H20  1  -0.00844818  0.97347878  0.32410198  1
  H  H21  1  0.50273366  0.30634718  0.32351172  1
  H  H22  1  0.48123557  0.63803161  0.32550784  1
  H  H23  1  0.49568738  0.96930756  0.31514976  1
  H  H24  1  0.24313198  0.19474889  0.67221627  1
  H  H25  1  0.25643962  0.52487382  0.67420125  1
  H  H26  1  0.25333090  0.86344997  0.67631218  1
  H  H27  1  0.74476522  0.19556699  0.68063330  1
  H  H28  1  0.73969403  0.52971063  0.67733168  1
  H  H29  1  0.75614665  0.86777956  0.68156371  1
  H  H30  1  0.25320785  0.13568819  0.17964389  1
  H  H31  1  0.24250481  0.47090791  0.18141237  1
  H  H32  1  0.24204409  0.80723175  0.17879100  1
  H  H33  1  0.74391555  0.13815224  0.17855452  1
  H  H34  1  0.73576251  0.47393639  0.17867611  1
  H  H35  1  0.75131074  0.80529973  0.17651933  1
  H  H36  1  0.24374598  0.19778653  0.82061195  1
  H  H37  1  0.25602766  0.52907212  0.82149184  1
  H  H38  1  0.24598009  0.86102289  0.82088713  1
  H  H39  1  0.75495614  0.19394944  0.82363553  1
  H  H40  1  0.74825519  0.52860931  0.81959238  1
  H  H41  1  0.75335083  0.86134643  0.82642318  1
  H  H42  1  0.24905250  0.13908534  0.32383370  1
  H  H43  1  0.25193381  0.46861839  0.32955689  1
  H  H44  1  0.25095887  0.80323265  0.32480177  1
  H  H45  1  0.75933580  0.13700531  0.32021247  1
  H  H46  1  0.74454774  0.47096890  0.32409880  1
  H  H47  1  0.75657592  0.80337437  0.32439413  1
  H  H48  1  0.12419161  0.05320750  0.62114275  1
  H  H49  1  0.11327556  0.39129785  0.59035983  1
  H  H50  1  0.13511320  0.71742930  0.61876102  1
  H  H51  1  0.62500526  0.05882097  0.59601313  1
  H  H52  1  0.61639259  0.38640289  0.61579841  1
  H  H53  1  0.63405997  0.72107272  0.62034649  1
  H  H54  1  0.36902540  0.27955352  0.11603123  1
  H  H55  1  0.38868311  0.60911175  0.09657780  1
  H  H56  1  0.38341510  0.94053401  0.09505276  1
  H  H57  1  0.86617548  0.28217449  0.11685957  1
  H  H58  1  0.88641347  0.61064011  0.10303305  1
  H  H59  1  0.88240249  0.94229275  0.10146681  1
  H  H60  1  0.38036043  0.05588067  0.90181136  1
  H  H61  1  0.36483819  0.38127412  0.87087094  1
  H  H62  1  0.36876410  0.71821996  0.87557748  1
  H  H63  1  0.87861343  0.04948752  0.88389444  1
  H  H64  1  0.86712909  0.38068937  0.88150090  1
  H  H65  1  0.86114432  0.71811547  0.87918549  1
  H  H66  1  0.11708660  0.27986314  0.40017726  1
  H  H67  1  0.11885431  0.60243961  0.42017146  1
  H  H68  1  0.13274133  0.95059652  0.37431363  1
  H  H69  1  0.61546993  0.27591616  0.40090800  1
  H  H70  1  0.62769747  0.62260046  0.37046196  1
  H  H71  1  0.63270602  0.94754242  0.37332418  1
  H  H72  1  0.37786107  0.21876707  0.61338397  1
  H  H73  1  0.36411332  0.55529435  0.59101426  1
  H  H74  1  0.36423344  0.89195491  0.59605709  1
  H  H75  1  0.87969487  0.21827401  0.61987119  1
  H  H76  1  0.86344611  0.55580747  0.60676005  1
  H  H77  1  0.86643601  0.89174590  0.59834164  1
  H  H78  1  0.11942350  0.11777347  0.11814227  1
  H  H79  1  0.12883409  0.44420434  0.10225958  1
  H  H80  1  0.13372785  0.77663340  0.09774274  1
  H  H81  1  0.62373739  0.11341583  0.10589506  1
  H  H82  1  0.63267512  0.44057950  0.09399854  1
  H  H83  1  0.64008252  0.77662476  0.09814519  1
  H  H84  1  0.13514417  0.22318021  0.90297653  1
  H  H85  1  0.11715995  0.54849889  0.87820027  1
  H  H86  1  0.11975761  0.88823469  0.88884086  1
  H  H87  1  0.63145789  0.22318646  0.89220145  1
  H  H88  1  0.61886342  0.55211329  0.88234125  1
  H  H89  1  0.62013903  0.88604680  0.88708439  1
  H  H90  1  0.37543810  0.11276101  0.39154714  1
  H  H91  1  0.37790762  0.44444119  0.39519092  1
  H  H92  1  0.36236974  0.77310864  0.40467236  1
  H  H93  1  0.87301607  0.10774995  0.39990183  1
  H  H94  1  0.88089615  0.45028699  0.38269309  1
  H  H95  1  0.86019377  0.77146163  0.40802411  1
  H  H96  1  0.36812562  0.28517153  0.38451344  1
  H  H97  1  0.38767856  0.59986496  0.41316296  1
  H  H98  1  0.38628606  0.94242700  0.39675305  1
  H  H99  1  0.86876990  0.27882508  0.39007263  1
  H  H100  1  0.88052149  0.62006642  0.37153795  1
  H  H101  1  0.89007000  0.94058424  0.41020198  1
  H  H102  1  0.12631023  0.05810338  0.90083255  1
  H  H103  1  0.11496370  0.38829480  0.89397195  1
  H  H104  1  0.10810262  0.72508090  0.90538197  1
  H  H105  1  0.62614617  0.04939822  0.87380876  1
  H  H106  1  0.61051287  0.38864818  0.90256307  1
  H  H107  1  0.61489472  0.72581776  0.90088932  1
  H  H108  1  0.11380553  0.27534714  0.09700191  1
  H  H109  1  0.13482094  0.61443453  0.11425767  1
  H  H110  1  0.13008568  0.95071735  0.11606286  1
  H  H111  1  0.61651544  0.27489717  0.09841456  1
  H  H112  1  0.63284249  0.61829574  0.13212902  1
  H  H113  1  0.62937157  0.94881294  0.12090560  1
  H  H114  1  0.37851931  0.05277717  0.61758770  1
  H  H115  1  0.36864319  0.38995479  0.59955973  1
  H  H116  1  0.38720254  0.72589777  0.59926413  1
  H  H117  1  0.87785234  0.05988407  0.59631010  1
  H  H118  1  0.86860779  0.38459778  0.62441531  1
  H  H119  1  0.88875730  0.72164741  0.59418809  1
  H  H120  1  0.12593358  0.11455894  0.39478111  1
  H  H121  1  0.12899285  0.44637856  0.39865592  1
  H  H122  1  0.11628284  0.77818070  0.38387752  1
  H  H123  1  0.62575434  0.11683749  0.38397803  1
  H  H124  1  0.63269176  0.44180476  0.40259390  1
  H  H125  1  0.61552218  0.78282909  0.37525313  1
  H  H126  1  0.38212194  0.21982677  0.87653172  1
  H  H127  1  0.36416619  0.55852447  0.90166494  1
  H  H128  1  0.36881266  0.88780128  0.89244189  1
  H  H129  1  0.88032901  0.22114706  0.89313654  1
  H  H130  1  0.86765266  0.55313912  0.89314250  1
  H  H131  1  0.86802448  0.89196229  0.90155449  1
  H  H132  1  0.36794237  0.11004215  0.10405489  1
  H  H133  1  0.37696809  0.44671559  0.12052330  1
  H  H134  1  0.37969083  0.78376358  0.12436576  1
  H  H135  1  0.87289601  0.11649171  0.11435822  1
  H  H136  1  0.87608828  0.45089307  0.12646080  1
  H  H137  1  0.88782516  0.78417383  0.12116871  1
  H  H138  1  0.13052836  0.22723570  0.59647418  1
  H  H139  1  0.11873511  0.55048005  0.61866131  1
  H  H140  1  0.11776214  0.88343037  0.61695617  1
  H  H141  1  0.63163824  0.22200866  0.60174219  1
  H  H142  1  0.61477304  0.55440388  0.60772784  1
  H  H143  1  0.61959983  0.88454643  0.62420273  1
  H  H144  1  0.70656001  0.74659676  -0.00861380  1
  H  H145  1  0.95904347  0.74930649  0.49293878  1
  H  H146  1  0.20669949  0.75096774  -0.00370216  1
  H  H147  1  0.30824229  0.07885044  -0.00482323  1
  H  H148  1  0.67384612  0.08468780  -0.00321572  1
  H  H149  1  0.39128962  0.74947473  0.98907751  1
  H  H150  1  0.04005844  0.75351173  1.01170103  1
  H  H151  1  0.89890806  0.41290336  -0.00553130  1
  H  H152  1  0.17261403  0.08434178  0.50328569  1
  H  H153  1  0.19400248  0.41188800  -0.00191322  1
  H  H154  1  0.53955213  0.41690588  1.00708147  1
  H  H155  1  0.45605050  0.91647205  0.50184473  1
  H  H156  1  0.81578090  0.58576344  1.00052310  1
  H  H157  1  0.79830723  0.92151616  0.49888523  1
  H  H158  1  0.69606489  0.25191550  0.49674923  1
  H  H159  1  0.91089798  0.24710236  0.49416094  1
  H  H160  1  0.38091661  0.41130780  -0.01520572  1
  H  H161  1  0.71315560  0.41337314  -0.00387488  1
  H  H162  1  0.33139228  0.08496725  0.49696432  1
  H  H163  1  0.83752772  0.08571458  0.00280467  1
  H  H164  1  0.45312685  0.75539730  0.49307700  1
  H  H165  1  0.54547624  0.74805240  1.00300638  1
  H  H166  1  0.29093507  0.74729582  0.50634028  1
  H  H167  1  0.29277658  0.90709048  0.49274440  1
  H  H168  1  0.69762834  0.41049873  0.50819274  1
  H  H169  1  0.45435934  0.08383819  1.00518021  1
  H  H170  1  0.87259107  0.74952248  -0.00095178  1
  H  H171  1  0.14688670  0.91808623  0.51071700  1
  H  H172  1  0.35806295  0.24366352  0.98639597  1
  H  H173  1  0.65023913  0.58277917  0.99510877  1
  H  H174  1  0.20393090  0.25025673  1.00831456  1
  H  H175  1  0.55590829  0.08899032  0.49720123  1
  H  H176  1  0.16637838  0.92113933  0.99654681  1
  H  H177  1  0.62183028  0.58515352  0.47812331  1
  H  H178  1  0.29565536  0.58687896  1.00745501  1
  H  H179  1  0.34623179  0.25398425  0.50720184  1
  H  H180  1  0.04567162  0.24690406  -0.00490971  1
  H  H181  1  0.64371196  0.91532911  0.51092773  1
  H  H182  1  0.65455639  0.91658008  0.99441729  1
  H  H183  1  0.85521473  0.42084349  0.49217243  1
  H  H184  1  0.14118229  0.57803691  0.98595021  1
  H  H185  1  0.88055566  0.58687475  0.48616063  1
  H  H186  1  0.78324573  0.74623334  0.50797651  1
  H  H187  1  0.28800256  0.58010701  0.49112268  1
  H  H188  1  0.60965821  0.74576093  0.50914302  1
  H  H189  1  0.47609332  0.58268333  0.50918960  1
  H  H190  1  0.97137954  0.91534839  0.50760981  1
  H  H191  1  0.46496189  0.58038142  -0.00765239  1
  Pb  Pb192  1  0.24889906  0.04910937  0.75285031  1
  Pb  Pb193  1  0.24300471  0.38093591  0.74414970  1
  Pb  Pb194  1  0.24090702  0.71666632  0.75174556  1
  Pb  Pb195  1  0.74675541  0.04827664  0.74509800  1
  Pb  Pb196  1  0.74312914  0.38175020  0.75723168  1
  Pb  Pb197  1  0.74778658  0.71511618  0.74344504  1
  Pb  Pb198  1  0.25303514  0.28352318  0.24965097  1
  Pb  Pb199  1  0.25959683  0.61464009  0.25439050  1
  Pb  Pb200  1  0.25617664  0.95121048  0.25026593  1
  Pb  Pb201  1  0.75113035  0.28585109  0.25236880  1
  Pb  Pb202  1  0.76061954  0.61636080  0.24757694  1
  Pb  Pb203  1  0.75990163  0.94855912  0.25446719  1
  Pb  Pb204  1  -0.00104402  0.21441571  0.75472021  1
  Pb  Pb205  1  -0.00577818  0.54727807  0.75115152  1
  Pb  Pb206  1  -0.00731837  0.88358655  0.74846301  1
  Pb  Pb207  1  0.49982289  0.21446892  0.74835214  1
  Pb  Pb208  1  0.48972440  0.55115521  0.74625415  1
  Pb  Pb209  1  0.49418345  0.88159899  0.74661839  1
  Pb  Pb210  1  0.00180444  0.11881256  0.25648600  1
  Pb  Pb211  1  0.00809098  0.44954358  0.24495997  1
  Pb  Pb212  1  0.00732863  0.78289271  0.25704917  1
  Pb  Pb213  1  0.50623281  0.11763178  0.24903096  1
  Pb  Pb214  1  0.50731828  0.44868747  0.24952297  1
  Pb  Pb215  1  0.50542089  0.78438128  0.24522560  1
  C  C216  1  -0.00331384  0.04833017  0.63135004  1
  C  C217  1  -0.00312278  0.37840433  0.62937494  1
  C  C218  1  0.00758660  0.70807355  0.62762104  1
  C  C219  1  0.50591853  0.04788770  0.63041875  1
  C  C220  1  0.48953494  0.37817719  0.63163400  1
  C  C221  1  0.50752899  0.71329883  0.63117458  1
  C  C222  1  -0.00603196  0.28900692  0.12868705  1
  C  C223  1  0.00867581  0.62160446  0.13153090  1
  C  C224  1  0.00327103  0.95655521  0.13108004  1
  C  C225  1  0.49585142  0.28618894  0.12992478  1
  C  C226  1  0.50397436  0.62046830  0.13469056  1
  C  C227  1  0.50171441  0.95444889  0.13011400  1
  C  C228  1  0.00583694  0.04407115  0.86988495  1
  C  C229  1  -0.00746186  0.37749629  0.86682251  1
  C  C230  1  -0.01084254  0.71346894  0.87207950  1
  C  C231  1  0.49799888  0.04479365  0.86505689  1
  C  C232  1  0.49266281  0.37751500  0.86630442  1
  C  C233  1  0.49633082  0.71017276  0.86783502  1
  C  C234  1  -0.00555425  0.28893487  0.37164935  1
  C  C235  1  0.00714785  0.61824726  0.37572738  1
  C  C236  1  0.00488628  0.95687446  0.37016729  1
  C  C237  1  0.49510574  0.28977815  0.37003171  1
  C  C238  1  0.49916285  0.62105189  0.37069777  1
  C  C239  1  0.50545813  0.95459238  0.36240278  1
  C  C240  1  0.25099894  0.21291125  0.62614040  1
  C  C241  1  0.24683606  0.54197460  0.62784259  1
  C  C242  1  0.24477091  0.87946403  0.62922466  1
  C  C243  1  0.75231021  0.21147051  0.63353644  1
  C  C244  1  0.73944420  0.54617902  0.63030133  1
  C  C245  1  0.74738469  0.88172148  0.63380306  1
  C  C246  1  0.24708139  0.12101860  0.13210093  1
  C  C247  1  0.24979500  0.45453463  0.13448238  1
  C  C248  1  0.25154799  0.79069988  0.13216715  1
  C  C249  1  0.74691438  0.12222248  0.13108267  1
  C  C250  1  0.74797386  0.45635754  0.13283729  1
  C  C251  1  0.75976751  0.78900093  0.12965293  1
  C  C252  1  0.25448436  0.21270220  0.86784937  1
  C  C253  1  0.24513588  0.54508862  0.86829143  1
  C  C254  1  0.24486811  0.87853616  0.86765593  1
  C  C255  1  0.75597635  0.21248849  0.86979761  1
  C  C256  1  0.74468310  0.54470073  0.86698017  1
  C  C257  1  0.74668939  0.87894826  0.87283910  1
  C  C258  1  0.25050017  0.12192811  0.37090849  1
  C  C259  1  0.25301240  0.45277838  0.37713736  1
  C  C260  1  0.24332108  0.78597598  0.37134963  1
  C  C261  1  0.75268944  0.12096978  0.36731211  1
  C  C262  1  0.75332726  0.45469271  0.37111598  1
  C  C263  1  0.74414127  0.78743901  0.37090802  1
  C  C264  1  0.51040194  0.40508386  0.96358600  1
  C  C265  1  0.29505738  0.42349001  0.46737444  1
  C  C266  1  0.93759449  0.25747920  0.04150896  1
  C  C267  1  0.21165001  0.09379467  0.46405430  1
  C  C268  1  0.48357823  0.74301347  0.53589330  1
  C  C269  1  0.43796683  0.74095871  0.95356093  1
  C  C270  1  0.22325935  0.25002820  0.53305454  1
  C  C271  1  0.71200325  0.09525411  0.03618734  1
  C  C272  1  0.06617878  0.74149635  0.54188347  1
  C  C273  1  0.71908853  0.24776198  0.95976761  1
  C  C274  1  0.00952627  0.74118671  0.96898875  1
  C  C275  1  0.93401024  0.59450065  0.45816704  1
  C  C276  1  0.27448951  0.09190740  0.03615062  1
  C  C277  1  0.73736167  0.75926402  0.03378333  1
  C  C278  1  0.48324005  0.92144845  0.03561470  1
  C  C279  1  0.42964458  0.40261320  0.95240851  1
  C  C280  1  0.72885325  0.42370189  0.46599260  1
  C  C281  1  0.77686227  0.91258529  0.96694063  1
  C  C282  1  0.94309170  0.40349078  0.95842954  1
  C  C283  1  0.68929868  0.90620039  0.54591054  1
  C  C284  1  0.57165396  0.59694072  0.05029455  1
  C  C285  1  0.92869936  0.73812773  0.95929044  1
  C  C286  1  0.93757308  0.40748754  0.54444564  1
  C  C287  1  0.48591983  0.92753245  0.45833290  1
  C  C288  1  0.51947183  0.25596925  0.46347824  1
  C  C289  1  0.77807572  0.57352224  0.96136577  1
  C  C290  1  0.26643362  0.57473426  0.96412196  1
  C  C291  1  0.72862650  0.24013857  0.53878605  1
  C  C292  1  0.21496028  0.42429611  0.46873500  1
  C  C293  1  0.81842674  0.76217703  0.04234349  1
  C  C294  1  0.03007705  0.07866567  0.96275848  1
  C  C295  1  0.01285585  0.58909201  0.47336466  1
  C  C296  1  0.19335277  0.09527856  0.04261206  1
  C  C297  1  0.23319081  0.23971734  0.96450176  1
  C  C298  1  0.67944590  0.75826831  0.45524537  1
  C  C299  1  0.20637545  0.90927877  0.95864408  1
  C  C300  1  0.22588199  0.42421205  0.04029287  1
  C  C301  1  0.97723567  0.08003670  0.53681596  1
  C  C302  1  0.79411854  0.09570302  0.03920704  1
  C  C303  1  0.02438784  0.40582305  0.96146977  1
  C  C304  1  0.69611656  0.57271208  0.95805292  1
  C  C305  1  0.97758647  0.92308370  0.03792850  1
  C  C306  1  0.31232833  0.76043072  0.04666897  1
  C  C307  1  0.48252987  0.07275978  0.96110302  1
  C  C308  1  0.49223425  0.59295250  0.03629172  1
  C  C309  1  0.52069699  0.25439218  0.03584659  1
  C  C310  1  0.70067692  0.57165225  0.53684708  1
  C  C311  1  0.97919785  0.59067370  0.03785807  1
  N  N312  1  0.77832527  0.09015045  0.46210502  1
  N  N313  1  0.26374936  0.75480352  0.46412576  1
  N  N314  1  0.19000914  0.90072946  0.54128398  1
  N  N315  1  0.30460058  0.42536904  0.04619708  1
  N  N316  1  0.02942397  0.25698664  0.46446534  1
  N  N317  1  0.23422027  0.75803020  0.03836228  1
  N  N318  1  0.56064801  0.07168061  0.95144396  1
  N  N319  1  0.56004238  0.92477869  0.04281400  1
  N  N320  1  0.56445616  0.92910346  0.45046016  1
  N  N321  1  0.31161872  0.23854649  0.95435266  1
  N  N322  1  0.95294200  0.07585024  0.95872585  1
  N  N323  1  0.95148299  0.25610628  0.45913641  1
  N  N324  1  0.75747651  0.75416408  0.46490644  1
  N  N325  1  0.98779205  0.74191054  0.53459035  1
  N  N326  1  0.80779626  0.42728134  0.45828154  1
  N  N327  1  0.51692046  0.74369704  0.96095699  1
  N  N328  1  0.81254496  0.42525002  0.05023597  1
  N  N329  1  0.69837948  0.90910501  0.96104528  1
  N  N330  1  0.28563723  0.90935579  0.96031633  1
  N  N331  1  0.44230475  0.25962225  0.45922225  1
  N  N332  1  0.01373794  0.41043135  0.53259758  1
  N  N333  1  0.26778548  0.91168286  0.53628057  1
  N  N334  1  0.01589874  0.25613670  0.03565220  1
  N  N335  1  0.56243431  0.73978831  0.54380173  1
  N  N336  1  0.05481981  0.92591158  0.04140198  1
  N  N337  1  0.46263112  0.41103659  0.53785805  1
  N  N338  1  0.05663948  0.59229666  0.04048489  1
  N  N339  1  0.52644944  0.07498505  0.53634357  1
  N  N340  1  0.29129495  0.09102203  0.46125934  1
  N  N341  1  0.44351839  0.25601417  0.04063294  1
  N  N342  1  0.05435426  0.07775940  0.54341199  1
  N  N343  1  0.99430546  0.92411361  0.46358580  1
  N  N344  1  0.79636316  0.24728475  0.96129654  1
  N  N345  1  0.18610678  0.75652830  0.45841517  1
  N  N346  1  0.80762691  0.23880550  0.54430760  1
  N  N347  1  0.44849365  0.07324920  0.54202761  1
  N  N348  1  0.77854932  0.57317509  0.53567464  1
  N  N349  1  0.49476190  0.58258451  0.46279320  1
  N  N350  1  0.07069826  0.92924463  0.45342402  1
  N  N351  1  0.26349360  0.57473243  0.53518407  1
  N  N352  1  0.76812829  0.90803533  0.53822643  1
  N  N353  1  0.56986021  0.59850912  0.45136703  1
  N  N354  1  0.70208177  0.09362519  0.45728126  1
  N  N355  1  0.53860824  0.40953510  0.54267844  1
  N  N356  1  0.18797789  0.57138922  0.95453148  1
  N  N357  1  0.30167408  0.24601203  0.53982066  1
  N  N358  1  0.18640994  0.57385763  0.54348924  1
  N  N359  1  0.73597143  0.42153462  0.04031268  1
  N  N360  1  0.06633820  0.05779505  0.60380096  1
  N  N361  1  0.05068704  0.39156068  0.58662278  1
  N  N362  1  0.07858040  0.72161010  0.59982315  1
  N  N363  1  0.56290060  0.06050358  0.58979674  1
  N  N364  1  0.55680695  0.38926749  0.60085660  1
  N  N365  1  0.57677318  0.71938177  0.60190351  1
  N  N366  1  0.42773508  0.27594220  0.10048384  1
  N  N367  1  0.45078671  0.60814703  0.09039630  1
  N  N368  1  0.44519201  0.93927161  0.08796242  1
  N  N369  1  0.92365657  0.27729224  0.09925655  1
  N  N370  1  0.94767450  0.60853707  0.09266570  1
  N  N371  1  0.94355933  0.94136219  0.09171770  1
  N  N372  1  0.44247698  0.05655906  0.90842677  1
  N  N373  1  0.42021315  0.38584289  0.89207097  1
  N  N374  1  0.42512907  0.72207164  0.89503760  1
  N  N375  1  0.93767719  0.05402819  0.89937429  1
  N  N376  1  0.92457588  0.38578019  0.89845477  1
  N  N377  1  0.91737234  0.72117622  0.89948512  1
  N  N378  1  0.05571094  0.27694126  0.40944540  1
  N  N379  1  0.05710167  0.60347469  0.42373511  1
  N  N380  1  0.07708660  0.94764450  0.39458201  1
  N  N381  1  0.55414742  0.27417692  0.40985047  1
  N  N382  1  0.57314415  0.61338170  0.39155277  1
  N  N383  1  0.57506675  0.94634867  0.39071995  1
  N  N384  1  0.31945563  0.22248761  0.59696380  1
  N  N385  1  0.30197266  0.55308819  0.58514958  1
  N  N386  1  0.30217788  0.88872495  0.58769914  1
  N  N387  1  0.82065847  0.22091834  0.60386735  1
  N  N388  1  0.80254326  0.55716296  0.59510699  1
  N  N389  1  0.80393459  0.89363999  0.59265923  1
  N  N390  1  0.17741800  0.11243482  0.10063647  1
  N  N391  1  0.19076035  0.44186251  0.09420022  1
  N  N392  1  0.19576005  0.77986410  0.09020988  1
  N  N393  1  0.68410808  0.11149150  0.09372843  1
  N  N394  1  0.69509457  0.44298905  0.08921194  1
  N  N395  1  0.70184217  0.77609382  0.08910789  1
  N  N396  1  0.19731135  0.22437762  0.91060251  1
  N  N397  1  0.17514412  0.55283804  0.89576401  1
  N  N398  1  0.17979863  0.89065117  0.90198377  1
  N  N399  1  0.69150828  0.22685831  0.90480615  1
  N  N400  1  0.67711373  0.55516527  0.89890929  1
  N  N401  1  0.67900368  0.88793297  0.90325101  1
  N  N402  1  0.31503710  0.10949266  0.40415948  1
  N  N403  1  0.31930654  0.44051496  0.41141371  1
  N  N404  1  0.30022735  0.77450960  0.41234907  1
  N  N405  1  0.81086859  0.10679606  0.40660546  1
  N  N406  1  0.82241493  0.44728134  0.40021106  1
  N  N407  1  0.79792674  0.77506223  0.41387932  1
  N  N408  1  0.42702400  0.28097683  0.39985862  1
  N  N409  1  0.44998184  0.60631992  0.41668960  1
  N  N410  1  0.44838625  0.94292304  0.40461602  1
  N  N411  1  0.92866894  0.27595837  0.40323676  1
  N  N412  1  0.93237945  0.61256695  0.39667957  1
  N  N413  1  0.95269370  0.94393297  0.41437837  1
  N  N414  1  0.06500001  0.05968676  0.90952513  1
  N  N415  1  0.05407599  0.39009540  0.90630431  1
  N  N416  1  0.04618945  0.72547596  0.91374199  1
  N  N417  1  0.56850413  0.05435837  0.89157585  1
  N  N418  1  0.54826203  0.38937493  0.90953696  1
  N  N419  1  0.55288188  0.72136293  0.90932568  1
  N  N420  1  0.05205370  0.27764179  0.08850563  1
  N  N421  1  0.07531174  0.61164119  0.10000174  1
  N  N422  1  0.07098604  0.94735791  0.10070718  1
  N  N423  1  0.55502418  0.27268350  0.08942026  1
  N  N424  1  0.57843878  0.61322864  0.10977963  1
  N  N425  1  0.57164461  0.94550569  0.10291020  1
  N  N426  1  0.43677528  0.05621406  0.60077687  1
  N  N427  1  0.43064571  0.39157228  0.59272192  1
  N  N428  1  0.44912008  0.72694766  0.59012952  1
  N  N429  1  0.93946192  0.06215130  0.58924098  1
  N  N430  1  0.92451073  0.38872518  0.60381795  1
  N  N431  1  0.95066356  0.71917610  0.58651009  1
  N  N432  1  0.18614633  0.11163444  0.40750733  1
  N  N433  1  0.18832378  0.44195293  0.41371098  1
  N  N434  1  0.17407574  0.77443823  0.39984197  1
  N  N435  1  0.68507889  0.11275371  0.39850415  1
  N  N436  1  0.69449030  0.44031599  0.41175016  1
  N  N437  1  0.67075102  0.77757306  0.39634973  1
  N  N438  1  0.32450281  0.22056046  0.89534240  1
  N  N439  1  0.30239819  0.55884025  0.91041944  1
  N  N440  1  0.30780858  0.89031108  0.90332023  1
  N  N441  1  0.81970080  0.22493608  0.90385871  1
  N  N442  1  0.80687593  0.55616928  0.90451780  1
  N  N443  1  0.80719168  0.89388881  0.91232675  1
  N  N444  1  0.30704631  0.10829790  0.09312000  1
  N  N445  1  0.31813444  0.44438454  0.10491152  1
  N  N446  1  0.32353568  0.77888611  0.10524486  1
  N  N447  1  0.81412280  0.11205161  0.09843300  1
  N  N448  1  0.81952767  0.44507673  0.10814897  1
  N  N449  1  0.83114790  0.78008517  0.10162313  1
  N  N450  1  0.19154330  0.22950113  0.58640661  1
  N  N451  1  0.17658116  0.55482916  0.60159740  1
  N  N452  1  0.17552011  0.89066021  0.60134939  1
  N  N453  1  0.69337768  0.22393266  0.59314063  1
  N  N454  1  0.67453126  0.55595326  0.59455534  1
  N  N455  1  0.67604111  0.88956858  0.60510132  1
  Cl  Cl456  1  0.25403296  0.05532999  0.61686702  1
  Cl  Cl457  1  0.24172311  0.38935601  0.60823841  1
  Cl  Cl458  1  0.26606461  0.72481012  0.61072699  1
  Cl  Cl459  1  0.74854751  0.05319741  0.61312908  1
  Cl  Cl460  1  0.73996163  0.38867492  0.62225406  1
  Cl  Cl461  1  0.76637617  0.72768474  0.60362890  1
  Cl  Cl462  1  0.23733106  0.27469566  0.11230442  1
  Cl  Cl463  1  0.26298974  0.61292540  0.11535244  1
  Cl  Cl464  1  0.25756167  0.94395984  0.11882922  1
  Cl  Cl465  1  0.73838514  0.27992507  0.12112313  1
  Cl  Cl466  1  0.76477981  0.61067121  0.11529714  1
  Cl  Cl467  1  0.75731875  0.94028785  0.12183057  1
  Cl  Cl468  1  0.25465821  0.05770729  0.88694741  1
  Cl  Cl469  1  0.23493514  0.38831137  0.87926361  1
  Cl  Cl470  1  0.23238240  0.72547064  0.89201182  1
  Cl  Cl471  1  0.75417356  0.04934485  0.87901096  1
  Cl  Cl472  1  0.73058963  0.39315774  0.89973099  1
  Cl  Cl473  1  0.73148899  0.73007022  0.87607876  1
  Cl  Cl474  1  0.24089714  0.28004283  0.38473881  1
  Cl  Cl475  1  0.26586469  0.60096297  0.39768184  1
  Cl  Cl476  1  0.26533535  0.93614483  0.39245523  1
  Cl  Cl477  1  0.74298648  0.27972339  0.38938030  1
  Cl  Cl478  1  0.75041856  0.61873128  0.37784524  1
  Cl  Cl479  1  0.77080065  0.93654286  0.39701507  1
  Cl  Cl480  1  0.00523591  0.22234427  0.62226795  1
  Cl  Cl481  1  -0.00962800  0.55698275  0.61863964  1
  Cl  Cl482  1  -0.01259755  0.88972484  0.60099458  1
  Cl  Cl483  1  0.50572909  0.21912135  0.61455516  1
  Cl  Cl484  1  0.48515425  0.56546449  0.60257811  1
  Cl  Cl485  1  0.48435626  0.89158301  0.60951079  1
  Cl  Cl486  1  -0.00358428  0.12081424  0.12577233  1
  Cl  Cl487  1  0.00552842  0.44631054  0.11055392  1
  Cl  Cl488  1  0.01640919  0.77750659  0.12326840  1
  Cl  Cl489  1  0.49497867  0.11045554  0.11479407  1
  Cl  Cl490  1  0.51176106  0.44192884  0.11336000  1
  Cl  Cl491  1  0.51543704  0.77468283  0.10802022  1
  Cl  Cl492  1  0.01229343  0.22422095  0.89476071  1
  Cl  Cl493  1  -0.00762491  0.55197076  0.88400805  1
  Cl  Cl494  1  -0.00643346  0.88977272  0.87924061  1
  Cl  Cl495  1  0.50701942  0.22203336  0.88126355  1
  Cl  Cl496  1  0.48713482  0.55907382  0.87938206  1
  Cl  Cl497  1  0.49556631  0.88524590  0.87935160  1
  Cl  Cl498  1  -0.00263797  0.10874198  0.39097971  1
  Cl  Cl499  1  0.00416394  0.44981898  0.37534734  1
  Cl  Cl500  1  -0.01740250  0.77376587  0.39624486  1
  Cl  Cl501  1  0.50117076  0.11341511  0.38773701  1
  Cl  Cl502  1  0.50977776  0.44751256  0.38032439  1
  Cl  Cl503  1  0.48326884  0.77351978  0.38549048  1
  Cl  Cl504  1  0.36216576  0.14868266  0.74618995  1
  Cl  Cl505  1  0.35639762  0.48151832  0.75025740  1
  Cl  Cl506  1  0.35546571  0.81584502  0.75588468  1
  Cl  Cl507  1  0.86196741  0.14680614  0.75046687  1
  Cl  Cl508  1  0.85816188  0.47945005  0.74647174  1
  Cl  Cl509  1  0.85416029  0.81857878  0.75260090  1
  Cl  Cl510  1  0.13942314  0.18352720  0.25004478  1
  Cl  Cl511  1  0.14268779  0.51793980  0.24796695  1
  Cl  Cl512  1  0.13884016  0.85446426  0.26419707  1
  Cl  Cl513  1  0.63953075  0.18454385  0.25455969  1
  Cl  Cl514  1  0.63952874  0.52147914  0.24957732  1
  Cl  Cl515  1  0.63190586  0.85855936  0.26415383  1
  Cl  Cl516  1  0.14235897  0.15288202  0.74857870  1
  Cl  Cl517  1  0.13738493  0.48584328  0.74878455  1
  Cl  Cl518  1  0.13944317  0.81171343  0.73635194  1
  Cl  Cl519  1  0.64074334  0.14834639  0.75183167  1
  Cl  Cl520  1  0.63816527  0.48314317  0.74982045  1
  Cl  Cl521  1  0.62733841  0.80990845  0.73263532  1
  Cl  Cl522  1  0.35603372  0.18619610  0.25324618  1
  Cl  Cl523  1  0.36013931  0.51989714  0.24999804  1
  Cl  Cl524  1  0.36238996  0.84791958  0.24508219  1
  Cl  Cl525  1  0.86082834  0.18505944  0.25066121  1
  Cl  Cl526  1  0.85974337  0.51897908  0.25351646  1
  Cl  Cl527  1  0.85474745  0.84796799  0.25050038  1
  Cl  Cl528  1  0.10170001  0.31996596  0.75003926  1
  Cl  Cl529  1  0.10607440  0.64953481  0.74912615  1
  Cl  Cl530  1  0.11327035  0.97867900  0.73941839  1
  Cl  Cl531  1  0.60469102  0.31865058  0.74682981  1
  Cl  Cl532  1  0.61521580  0.64317133  0.74083203  1
  Cl  Cl533  1  0.61184418  0.97860280  0.75323590  1
  Cl  Cl534  1  0.39161729  0.01818491  0.25077244  1
  Cl  Cl535  1  0.38450284  0.35445426  0.23998631  1
  Cl  Cl536  1  0.39359513  0.68373053  0.24867073  1
  Cl  Cl537  1  0.89549289  0.01473293  0.24990135  1
  Cl  Cl538  1  0.88344223  0.35634429  0.24406889  1
  Cl  Cl539  1  0.89359778  0.68372952  0.25374295  1
  Cl  Cl540  1  0.38116549  0.31129188  0.75839058  1
  Cl  Cl541  1  0.39413529  0.65181863  0.74902564  1
  Cl  Cl542  1  0.38917159  0.98528875  0.74340474  1
  Cl  Cl543  1  0.87931224  0.31123964  0.75170894  1
  Cl  Cl544  1  0.88383404  0.64910157  0.75585849  1
  Cl  Cl545  1  0.89490825  0.98049183  0.74960106  1
  Cl  Cl546  1  0.11870981  0.01955928  0.25417736  1
  Cl  Cl547  1  0.10031074  0.34842001  0.24980849  1
  Cl  Cl548  1  0.11177574  0.68614491  0.26096775  1
  Cl  Cl549  1  0.61425178  0.02172054  0.24768055  1
  Cl  Cl550  1  0.60515641  0.34958046  0.25222615  1
  Cl  Cl551  1  0.61606570  0.68865427  0.25380834  1
