# generated using pymatgen
data_H8PbC4(N3Cl2)2
_symmetry_space_group_name_H-M   'P 1'
_cell_length_a   16.62588734
_cell_length_b   22.51358224
_cell_length_c   21.59365477
_cell_angle_alpha   90.00048705
_cell_angle_beta   90.01733849
_cell_angle_gamma   90.00647632
_symmetry_Int_Tables_number   1
_chemical_formula_structural   H8PbC4(N3Cl2)2
_chemical_formula_sum   'H192 Pb24 C96 N144 Cl96'
_cell_volume   8082.68339677
_cell_formula_units_Z   24
loop_
 _symmetry_equiv_pos_site_id
 _symmetry_equiv_pos_as_xyz
  1  'x, y, z'
loop_
 _atom_site_type_symbol
 _atom_site_label
 _atom_site_symmetry_multiplicity
 _atom_site_fract_x
 _atom_site_fract_y
 _atom_site_fract_z
 _atom_site_occupancy
  H  H0  1  -0.00569191  0.03233400  0.68001590  1
  H  H1  1  -0.00772276  0.36194108  0.67950648  1
  H  H2  1  -0.00105727  0.69492541  0.68060162  1
  H  H3  1  0.50792094  0.02860594  0.67586273  1
  H  H4  1  0.49767562  0.36097633  0.67580149  1
  H  H5  1  0.51592397  0.69920410  0.67474248  1
  H  H6  1  -0.00220331  0.30408175  0.18032333  1
  H  H7  1  -0.00772390  0.63585296  0.17924970  1
  H  H8  1  0.00327805  0.97296605  0.17543319  1
  H  H9  1  0.50540265  0.30424266  0.17867960  1
  H  H10  1  0.51360195  0.63562395  0.18226902  1
  H  H11  1  0.49989302  0.97274411  0.17781864  1
  H  H12  1  -0.01070321  0.03110031  0.82336874  1
  H  H13  1  -0.00661132  0.36189795  0.82347236  1
  H  H14  1  -0.00979758  0.69896076  0.82209618  1
  H  H15  1  0.49904620  0.02886454  0.81931307  1
  H  H16  1  0.49477769  0.36325368  0.82447702  1
  H  H17  1  0.49518961  0.69728951  0.81790096  1
  H  H18  1  0.01463016  0.30286859  0.32482852  1
  H  H19  1  0.00031306  0.63686621  0.32299480  1
  H  H20  1  0.01190762  0.97082063  0.32335156  1
  H  H21  1  0.49167187  0.30756191  0.32306030  1
  H  H22  1  0.49642473  0.63689292  0.31751626  1
  H  H23  1  0.49872913  0.96810518  0.32111266  1
  H  H24  1  0.24236229  0.19777849  0.67979675  1
  H  H25  1  0.26635611  0.52812190  0.67987987  1
  H  H26  1  0.24001924  0.86171769  0.68030855  1
  H  H27  1  0.73920210  0.19517484  0.67993123  1
  H  H28  1  0.73621081  0.52872241  0.67517004  1
  H  H29  1  0.75258072  0.86160928  0.67607299  1
  H  H30  1  0.25625694  0.13451640  0.17827880  1
  H  H31  1  0.24868284  0.47039538  0.17757572  1
  H  H32  1  0.26112826  0.79989427  0.18145086  1
  H  H33  1  0.75006871  0.13493399  0.17733162  1
  H  H34  1  0.75864900  0.46693717  0.17751035  1
  H  H35  1  0.74037288  0.80262992  0.17725138  1
  H  H36  1  0.24933286  0.19580009  0.81789025  1
  H  H37  1  0.26265541  0.52788704  0.82370509  1
  H  H38  1  0.24748790  0.86195527  0.82285122  1
  H  H39  1  0.73868102  0.19895319  0.81947920  1
  H  H40  1  0.73825362  0.52872739  0.81931784  1
  H  H41  1  0.74574047  0.86324557  0.81976213  1
  H  H42  1  0.24907995  0.13892132  0.32199293  1
  H  H43  1  0.24924371  0.46976099  0.31862987  1
  H  H44  1  0.24967062  0.80372225  0.32101549  1
  H  H45  1  0.74140279  0.13727829  0.32492732  1
  H  H46  1  0.74783563  0.46841609  0.32437449  1
  H  H47  1  0.74468993  0.80346864  0.32257180  1
  H  H48  1  0.11073264  0.05612342  0.60156038  1
  H  H49  1  0.12314147  0.38432169  0.61306014  1
  H  H50  1  0.12349878  0.71988101  0.61207148  1
  H  H51  1  0.60921990  0.05993837  0.59021386  1
  H  H52  1  0.62478287  0.38733650  0.60848269  1
  H  H53  1  0.61774503  0.72532725  0.59006535  1
  H  H54  1  0.37025286  0.28251428  0.12098018  1
  H  H55  1  0.38275665  0.60839237  0.11883866  1
  H  H56  1  0.36719348  0.94705402  0.11722696  1
  H  H57  1  0.86826050  0.27957156  0.11577332  1
  H  H58  1  0.88576765  0.61197616  0.09599997  1
  H  H59  1  0.86682858  0.95187854  0.11682939  1
  H  H60  1  0.37837660  0.05387280  0.89189860  1
  H  H61  1  0.38041397  0.39259640  0.90179798  1
  H  H62  1  0.38182204  0.72337843  0.89676040  1
  H  H63  1  0.88512219  0.06060097  0.90869212  1
  H  H64  1  0.88155813  0.38938972  0.90339089  1
  H  H65  1  0.87887724  0.72309555  0.90164520  1
  H  H66  1  0.11936126  0.27451184  0.40817285  1
  H  H67  1  0.11769772  0.60889853  0.39925673  1
  H  H68  1  0.11213943  0.94066582  0.41097910  1
  H  H69  1  0.61380359  0.28048018  0.39471478  1
  H  H70  1  0.62372384  0.61486551  0.38355642  1
  H  H71  1  0.62345761  0.94563694  0.39016420  1
  H  H72  1  0.37928276  0.22066026  0.62049303  1
  H  H73  1  0.37209724  0.55712918  0.59578355  1
  H  H74  1  0.37882832  0.88200500  0.62467295  1
  H  H75  1  0.87468153  0.21757568  0.61921762  1
  H  H76  1  0.87919765  0.54814608  0.62562109  1
  H  H77  1  0.88046812  0.88783995  0.60845604  1
  H  H78  1  0.11912557  0.11575040  0.12180100  1
  H  H79  1  0.11929376  0.44630690  0.11329546  1
  H  H80  1  0.11908622  0.78363278  0.13007363  1
  H  H81  1  0.62230612  0.11329658  0.11254082  1
  H  H82  1  0.62174123  0.44720707  0.11773014  1
  H  H83  1  0.62069670  0.77852703  0.10260454  1
  H  H84  1  0.13026879  0.22088921  0.89224693  1
  H  H85  1  0.12385456  0.55000520  0.87731713  1
  H  H86  1  0.13638749  0.89061431  0.90423701  1
  H  H87  1  0.63726307  0.22444693  0.90530561  1
  H  H88  1  0.62081266  0.55616941  0.89617782  1
  H  H89  1  0.63761948  0.89121710  0.90196409  1
  H  H90  1  0.38030016  0.11151001  0.38421277  1
  H  H91  1  0.37324256  0.44521494  0.39026949  1
  H  H92  1  0.37862814  0.78230854  0.38550657  1
  H  H93  1  0.88317537  0.12216077  0.37814616  1
  H  H94  1  0.87344317  0.44582700  0.39078171  1
  H  H95  1  0.87286437  0.78105516  0.38650094  1
  H  H96  1  0.36510564  0.27952079  0.39134029  1
  H  H97  1  0.37419673  0.61450354  0.38934070  1
  H  H98  1  0.37469739  0.94468651  0.38909532  1
  H  H99  1  0.87539982  0.28865919  0.37602130  1
  H  H100  1  0.86958483  0.61294768  0.38578793  1
  H  H101  1  0.86975685  0.94949924  0.37280069  1
  H  H102  1  0.12937762  0.05046736  0.87809558  1
  H  H103  1  0.12876615  0.38612603  0.88430545  1
  H  H104  1  0.12516163  0.71705259  0.87839198  1
  H  H105  1  0.62708558  0.05423766  0.88648583  1
  H  H106  1  0.62831228  0.38581494  0.88428941  1
  H  H107  1  0.63020563  0.71742856  0.88037745  1
  H  H108  1  0.11671516  0.27723487  0.10484007  1
  H  H109  1  0.13117007  0.61553472  0.12696434  1
  H  H110  1  0.11332400  0.94091608  0.09625292  1
  H  H111  1  0.61802204  0.27457850  0.09973775  1
  H  H112  1  0.63167435  0.61417695  0.10588591  1
  H  H113  1  0.61519089  0.94502197  0.10033675  1
  H  H114  1  0.36589159  0.04942297  0.62752369  1
  H  H115  1  0.37585716  0.39006111  0.60540551  1
  H  H116  1  0.37424982  0.71523923  0.62573229  1
  H  H117  1  0.86259800  0.05379999  0.61675814  1
  H  H118  1  0.87484501  0.38837228  0.60215384  1
  H  H119  1  0.87459918  0.72079554  0.60944026  1
  H  H120  1  0.13179386  0.11491546  0.39803018  1
  H  H121  1  0.12378507  0.44510064  0.38764759  1
  H  H122  1  0.12926947  0.77836323  0.39307314  1
  H  H123  1  0.63929474  0.10297229  0.40895232  1
  H  H124  1  0.62451385  0.44581144  0.39324915  1
  H  H125  1  0.62400654  0.78054823  0.39540547  1
  H  H126  1  0.37930544  0.22030695  0.88465430  1
  H  H127  1  0.36784804  0.55781274  0.90881063  1
  H  H128  1  0.38249688  0.88664838  0.88188286  1
  H  H129  1  0.88192095  0.21378972  0.86935955  1
  H  H130  1  0.86933709  0.55243784  0.88138490  1
  H  H131  1  0.88396351  0.88227499  0.87719949  1
  H  H132  1  0.36672829  0.10891418  0.09939033  1
  H  H133  1  0.36763365  0.44248306  0.10302518  1
  H  H134  1  0.36447011  0.77767207  0.09606478  1
  H  H135  1  0.87139313  0.11244668  0.10432767  1
  H  H136  1  0.86812768  0.44173193  0.09473008  1
  H  H137  1  0.86964553  0.77816523  0.11127062  1
  H  H138  1  0.13262177  0.22293388  0.59566669  1
  H  H139  1  0.12698700  0.54943590  0.62793305  1
  H  H140  1  0.13416158  0.89200432  0.59569045  1
  H  H141  1  0.62678926  0.22535833  0.60208469  1
  H  H142  1  0.63554340  0.55641523  0.58922663  1
  H  H143  1  0.63234377  0.88683029  0.60187832  1
  H  H144  1  0.20870572  0.91436270  1.00605007  1
  H  H145  1  0.29704649  0.57464176  0.49446072  1
  H  H146  1  0.18676874  0.24991042  0.99987194  1
  H  H147  1  0.09648312  0.41276966  0.99133777  1
  H  H148  1  0.04168672  0.92249808  -0.00646927  1
  H  H149  1  0.95565612  0.58691364  -0.01016004  1
  H  H150  1  0.11416270  0.59154629  1.01178602  1
  H  H151  1  0.83642469  0.91432370  0.50290331  1
  H  H152  1  0.55050146  0.91724060  -0.00251174  1
  H  H153  1  0.42367813  0.59529171  0.50223609  1
  H  H154  1  0.42204326  0.59411490  0.00843741  1
  H  H155  1  0.44344864  0.42055797  1.00366769  1
  H  H156  1  0.30309450  0.08046329  -0.00784141  1
  H  H157  1  0.89517907  0.91350094  0.01215331  1
  H  H158  1  0.14367770  0.58127119  0.51576419  1
  H  H159  1  0.83369703  0.58625678  0.99264661  1
  H  H160  1  0.34777280  0.08576398  0.49370531  1
  H  H161  1  0.55176675  0.24940584  -0.00239333  1
  H  H162  1  0.17819124  0.74833974  0.50172234  1
  H  H163  1  0.70852822  0.91857194  1.00584542  1
  H  H164  1  0.71944687  0.08513768  0.50878823  1
  H  H165  1  0.02965011  0.91588758  0.50780389  1
  H  H166  1  0.68268026  0.57070778  1.00195539  1
  H  H167  1  0.17154861  0.41169294  0.49548020  1
  H  H168  1  0.58321665  0.59203075  0.49773263  1
  H  H169  1  0.52924133  0.08350222  0.49107512  1
  H  H170  1  0.71323203  0.58187253  0.48585710  1
  H  H171  1  0.69278695  0.26041720  0.49859578  1
  H  H172  1  0.89007442  0.25681219  0.49144933  1
  H  H173  1  0.44775085  0.75473827  1.00182428  1
  H  H174  1  0.66071912  0.08443649  -0.00070148  1
  H  H175  1  0.28750086  0.57765690  1.00923465  1
  H  H176  1  0.41877471  0.91167812  0.49993851  1
  H  H177  1  0.64963330  0.42017608  0.00960075  1
  H  H178  1  0.18946244  0.08437413  0.50550586  1
  H  H179  1  0.41217412  0.25273290  0.49574204  1
  H  H180  1  0.57246898  0.59986550  -0.00609939  1
  H  H181  1  0.29013941  0.75146429  -0.00914297  1
  H  H182  1  0.71379481  0.24973581  1.00970792  1
  H  H183  1  0.83592983  0.74942987  0.49885730  1
  H  H184  1  0.34632109  0.75089583  0.49708342  1
  H  H185  1  0.90423523  0.24784856  0.00521388  1
  H  H186  1  0.21095540  0.91660294  0.49641366  1
  H  H187  1  0.10380540  0.75019118  0.99360208  1
  H  H188  1  0.11012426  0.08097616  0.98806441  1
  H  H189  1  0.86707325  0.08451716  0.48534898  1
  H  H190  1  0.86700123  0.57656031  0.51501924  1
  H  H191  1  0.39713101  0.24738492  0.00990498  1
  Pb  Pb192  1  0.25428335  0.04735102  0.74629670  1
  Pb  Pb193  1  0.24998326  0.38221577  0.75039943  1
  Pb  Pb194  1  0.25404095  0.71493490  0.75269380  1
  Pb  Pb195  1  0.75343063  0.05188454  0.75205796  1
  Pb  Pb196  1  0.75427040  0.38043127  0.75266395  1
  Pb  Pb197  1  0.75324937  0.71397354  0.74589279  1
  Pb  Pb198  1  0.24627712  0.28610243  0.25065254  1
  Pb  Pb199  1  0.24922740  0.61945475  0.25593173  1
  Pb  Pb200  1  0.24512064  0.95114795  0.25210644  1
  Pb  Pb201  1  0.74604460  0.28596015  0.25108587  1
  Pb  Pb202  1  0.75333538  0.61705377  0.24070208  1
  Pb  Pb203  1  0.74744320  0.95381968  0.24590001  1
  Pb  Pb204  1  0.00877813  0.21478197  0.74432951  1
  Pb  Pb205  1  0.00088727  0.54737702  0.75073278  1
  Pb  Pb206  1  0.00592743  0.88312964  0.74846155  1
  Pb  Pb207  1  0.50275235  0.21870887  0.75474048  1
  Pb  Pb208  1  0.50164551  0.54784856  0.74721604  1
  Pb  Pb209  1  0.50927878  0.88199783  0.75526117  1
  Pb  Pb210  1  -0.00114947  0.12090650  0.25099393  1
  Pb  Pb211  1  -0.00057217  0.45194856  0.24594533  1
  Pb  Pb212  1  -0.00332403  0.78526130  0.25308478  1
  Pb  Pb213  1  0.49809977  0.11839809  0.25378860  1
  Pb  Pb214  1  0.49769562  0.45225063  0.24589446  1
  Pb  Pb215  1  0.50159478  0.78589255  0.24252205  1
  C  C216  1  -0.01069388  0.04681962  0.63241196  1
  C  C217  1  -0.00314725  0.37721658  0.63195475  1
  C  C218  1  -0.00128695  0.71194108  0.63387349  1
  C  C219  1  0.49432218  0.04451564  0.62956545  1
  C  C220  1  0.49964960  0.37889940  0.62942453  1
  C  C221  1  0.50217036  0.71357328  0.62812257  1
  C  C222  1  -0.00574971  0.28754348  0.13330757  1
  C  C223  1  0.00363769  0.62214906  0.13183113  1
  C  C224  1  -0.00579304  0.95586995  0.12875916  1
  C  C225  1  0.49807547  0.28799234  0.13157018  1
  C  C226  1  0.50858559  0.62117673  0.13440754  1
  C  C227  1  0.49436692  0.95635803  0.13089485  1
  C  C228  1  0.00174709  0.04697716  0.86985517  1
  C  C229  1  0.00169304  0.37834012  0.87019471  1
  C  C230  1  -0.00103294  0.71370792  0.86942666  1
  C  C231  1  0.50176977  0.04549432  0.86614767  1
  C  C232  1  0.50083642  0.38011725  0.87132202  1
  C  C233  1  0.50277827  0.71285434  0.86510821  1
  C  C234  1  0.00211436  0.28853166  0.37171882  1
  C  C235  1  -0.00380059  0.62060152  0.37002868  1
  C  C236  1  -0.00200740  0.95488127  0.36958459  1
  C  C237  1  0.48978511  0.28992053  0.36976778  1
  C  C238  1  0.49805594  0.62250442  0.36552107  1
  C  C239  1  0.49836901  0.95275633  0.36863514  1
  C  C240  1  0.25146591  0.21303473  0.63256406  1
  C  C241  1  0.25535588  0.54354119  0.63280773  1
  C  C242  1  0.25062961  0.87748373  0.63352428  1
  C  C243  1  0.74713692  0.21227803  0.63330303  1
  C  C244  1  0.75104855  0.54402892  0.62868888  1
  C  C245  1  0.75567613  0.87828477  0.62900918  1
  C  C246  1  0.24763329  0.11977808  0.13094908  1
  C  C247  1  0.24538662  0.45313026  0.13100567  1
  C  C248  1  0.24834461  0.78661235  0.13415912  1
  C  C249  1  0.74734487  0.12040973  0.12956244  1
  C  C250  1  0.74894863  0.45236313  0.13025372  1
  C  C251  1  0.74376911  0.78617713  0.13030464  1
  C  C252  1  0.25327505  0.21212937  0.86512366  1
  C  C253  1  0.25189056  0.54403000  0.87020355  1
  C  C254  1  0.25533678  0.87825145  0.86976906  1
  C  C255  1  0.75253287  0.21198221  0.86663945  1
  C  C256  1  0.74213578  0.54441782  0.86682598  1
  C  C257  1  0.75631777  0.87781195  0.86697897  1
  C  C258  1  0.25454499  0.12212588  0.36905708  1
  C  C259  1  0.24882346  0.45348560  0.36587979  1
  C  C260  1  0.25257533  0.78749842  0.36836993  1
  C  C261  1  0.75486662  0.12127241  0.37138151  1
  C  C262  1  0.74866938  0.45310418  0.37215320  1
  C  C263  1  0.74785461  0.78812908  0.37003217  1
  C  C264  1  0.78429698  0.09430689  0.03521505  1
  C  C265  1  0.05517045  0.74078936  0.95865030  1
  C  C266  1  0.73801942  0.90533578  0.96289769  1
  C  C267  1  0.46082768  0.60090008  0.46123673  1
  C  C268  1  0.54133699  0.59958843  0.03821552  1
  C  C269  1  0.42704389  0.07313163  0.54625053  1
  C  C270  1  0.54019047  0.92468764  0.46101803  1
  C  C271  1  0.26202105  0.76167194  0.03512047  1
  C  C272  1  0.21768483  0.75918189  0.46284662  1
  C  C273  1  0.19247073  0.57154837  0.54800469  1
  C  C274  1  0.43643236  0.73878659  0.54386666  1
  C  C275  1  0.44060431  0.92514421  0.04234174  1
  C  C276  1  0.98489520  0.59803076  0.03343422  1
  C  C277  1  0.94962024  0.59231851  0.46021416  1
  C  C278  1  0.20036215  0.42367075  0.04053148  1
  C  C279  1  0.55553938  0.40879935  0.96017890  1
  C  C280  1  0.71222613  0.75512282  0.03766709  1
  C  C281  1  0.71163926  0.76063018  0.46412047  1
  C  C282  1  0.06551613  0.60012861  0.04434371  1
  C  C283  1  0.97419726  0.74265361  0.96487121  1
  C  C284  1  0.74122720  0.23807441  0.96555852  1
  C  C285  1  0.26947061  0.09210395  0.03376885  1
  C  C286  1  0.93938595  0.26434125  0.45890340  1
  C  C287  1  0.47939659  0.74203828  0.95967574  1
  C  C288  1  0.46801536  0.07583302  0.95904383  1
  C  C289  1  0.79238710  0.57357051  0.95597453  1
  C  C290  1  0.71018004  0.42559745  0.46387818  1
  C  C291  1  0.79323863  0.76017730  0.46233326  1
  C  C292  1  0.51521544  0.74239361  0.53214423  1
  C  C293  1  0.46538726  0.41350714  0.53876185  1
  C  C294  1  0.94980449  0.25892430  0.04280008  1
  C  C295  1  0.70269154  0.09422738  0.03649858  1
  C  C296  1  0.18236073  0.76430471  0.04858658  1
  C  C297  1  0.01971514  0.25953608  0.46834681  1
  C  C298  1  0.22345734  0.09386771  0.46360394  1
  C  C299  1  0.54273776  0.60035683  0.45916495  1
  C  C300  1  0.21095843  0.42418409  0.45742354  1
  C  C301  1  0.73838202  0.57160296  0.53116094  1
  C  C302  1  0.22253904  0.23903180  0.95923703  1
  C  C303  1  0.18868652  0.09506578  0.04302497  1
  C  C304  1  0.82047255  0.23366493  0.95137161  1
  C  C305  1  0.29983997  0.76084922  0.46028752  1
  C  C306  1  0.03778642  0.74241992  0.54226295  1
  C  C307  1  0.45865899  0.92379324  0.46214709  1
  C  C308  1  0.44235254  0.25738864  0.04494514  1
  C  C309  1  0.72422429  0.24575316  0.54010981  1
  C  C310  1  0.79041710  0.42547618  0.46299017  1
  C  C311  1  0.94204236  0.07047954  0.54114197  1
  N  N312  1  0.93047424  0.92657458  0.45226233  1
  N  N313  1  0.46225129  0.59527328  0.04422008  1
  N  N314  1  0.79664047  0.90686680  0.53922727  1
  N  N315  1  0.69578926  0.42742153  0.04303970  1
  N  N316  1  0.81635035  0.90102555  0.95531772  1
  N  N317  1  0.01646617  0.91992328  0.03724454  1
  N  N318  1  0.54275403  0.41270285  0.53839665  1
  N  N319  1  0.81789050  0.09904945  0.45574436  1
  N  N320  1  0.26552801  0.57408742  0.96445686  1
  N  N321  1  0.50467190  0.07678674  0.53493321  1
  N  N322  1  0.02731544  0.59080430  0.46562808  1
  N  N323  1  0.29033935  0.42519290  0.45919038  1
  N  N324  1  0.06014627  0.07212124  0.95516924  1
  N  N325  1  0.52154110  0.25437831  0.03888401  1
  N  N326  1  0.02884672  0.25807185  0.03864907  1
  N  N327  1  0.31272535  0.90668634  0.95689718  1
  N  N328  1  0.27109119  0.57379745  0.53762267  1
  N  N329  1  0.23042302  0.24139143  0.53629337  1
  N  N330  1  0.54566784  0.07577728  0.95832983  1
  N  N331  1  0.74172052  0.08442246  0.46358442  1
  N  N332  1  0.71855834  0.90672009  0.53550391  1
  N  N333  1  0.95993426  0.74320514  0.54062130  1
  N  N334  1  0.71289910  0.57313789  0.96062894  1
  N  N335  1  0.27808565  0.42225117  0.03603052  1
  N  N336  1  0.98351890  0.07570077  0.96645167  1
  N  N337  1  0.55834878  0.73953126  0.95448579  1
  N  N338  1  0.51924644  0.92530671  0.03762948  1
  N  N339  1  0.23600643  0.90783655  0.53956171  1
  N  N340  1  0.97408725  0.40729658  0.96547405  1
  N  N341  1  0.23515664  0.90823970  0.96314379  1
  N  N342  1  0.30629694  0.24079682  0.54441044  1
  N  N343  1  0.52943123  0.25962251  0.46219223  1
  N  N344  1  0.78947702  0.75469646  0.03916925  1
  N  N345  1  0.80296036  0.24304765  0.54594583  1
  N  N346  1  0.81590667  0.56890986  0.54486505  1
  N  N347  1  0.30286313  0.09205279  0.45774178  1
  N  N348  1  0.96691595  0.40648520  0.53731723  1
  N  N349  1  0.93894379  0.93171378  0.04173419  1
  N  N350  1  0.04315060  0.40489526  0.54076702  1
  N  N351  1  0.31305333  0.90404296  0.54793522  1
  N  N352  1  0.47650984  0.41111064  0.96492433  1
  N  N353  1  0.00716062  0.92283461  0.46335041  1
  N  N354  1  0.01946032  0.07186010  0.53520916  1
  N  N355  1  0.77317879  0.42534933  0.03391583  1
  N  N356  1  0.18894388  0.57280760  0.95400702  1
  N  N357  1  0.30168700  0.23819899  0.95702509  1
  N  N358  1  0.05187605  0.40609100  0.95734213  1
  N  N359  1  0.45112100  0.25915545  0.45918929  1
  N  N360  1  0.04863006  0.05700373  0.59336728  1
  N  N361  1  0.06304044  0.38638314  0.59932722  1
  N  N362  1  0.06363086  0.72385690  0.59861009  1
  N  N363  1  0.54680922  0.05586547  0.58532396  1
  N  N364  1  0.56436382  0.39070146  0.59613920  1
  N  N365  1  0.55580651  0.72684965  0.58337570  1
  N  N366  1  0.42757461  0.27684104  0.10292988  1
  N  N367  1  0.44192045  0.61230363  0.10258487  1
  N  N368  1  0.42494296  0.94367478  0.10030304  1
  N  N369  1  0.92728945  0.27660107  0.10076179  1
  N  N370  1  0.94741328  0.61186967  0.08848801  1
  N  N371  1  0.92476648  0.94484311  0.10114882  1
  N  N372  1  0.43884878  0.05765517  0.90348747  1
  N  N373  1  0.44215309  0.39237102  0.91038681  1
  N  N374  1  0.44371144  0.72585816  0.90528177  1
  N  N375  1  0.94737510  0.06027044  0.91311646  1
  N  N376  1  0.94340354  0.39074423  0.91063261  1
  N  N377  1  0.94031811  0.72628483  0.91133633  1
  N  N378  1  0.05746447  0.27428655  0.41589846  1
  N  N379  1  0.05614895  0.60916092  0.40823236  1
  N  N380  1  0.04949028  0.94324408  0.41466125  1
  N  N381  1  0.55270365  0.27747820  0.40564093  1
  N  N382  1  0.56459512  0.61365240  0.39948403  1
  N  N383  1  0.56382085  0.94193787  0.40471315  1
  N  N384  1  0.32053154  0.22366665  0.60430757  1
  N  N385  1  0.30996642  0.55327338  0.58932278  1
  N  N386  1  0.32153136  0.88673539  0.60678418  1
  N  N387  1  0.81574753  0.22244205  0.60416462  1
  N  N388  1  0.82313114  0.55160180  0.60461282  1
  N  N389  1  0.82068515  0.88893972  0.59559050  1
  N  N390  1  0.17605940  0.11131648  0.10223593  1
  N  N391  1  0.17818474  0.44210660  0.09830674  1
  N  N392  1  0.17442940  0.77893704  0.10845644  1
  N  N393  1  0.68091462  0.11048383  0.09639663  1
  N  N394  1  0.67992916  0.44415019  0.10131880  1
  N  N395  1  0.68116496  0.77413984  0.09237119  1
  N  N396  1  0.19142135  0.22338539  0.90320588  1
  N  N397  1  0.18077222  0.55553513  0.89537680  1
  N  N398  1  0.19861348  0.88829749  0.91154774  1
  N  N399  1  0.69952993  0.22411129  0.91120909  1
  N  N400  1  0.68189113  0.55177371  0.90614990  1
  N  N401  1  0.69984833  0.89109338  0.90915665  1
  N  N402  1  0.32152690  0.11069928  0.39973303  1
  N  N403  1  0.31211168  0.44313588  0.40167627  1
  N  N404  1  0.31964396  0.77813701  0.40119606  1
  N  N405  1  0.82678722  0.11297042  0.39606340  1
  N  N406  1  0.81470275  0.44189523  0.40694092  1
  N  N407  1  0.81442951  0.77726323  0.40258806  1
  N  N408  1  0.42557327  0.27894547  0.40396225  1
  N  N409  1  0.43418934  0.61454037  0.40254714  1
  N  N410  1  0.43374751  0.94161470  0.40339878  1
  N  N411  1  0.92989148  0.28220792  0.39774097  1
  N  N412  1  0.92834367  0.61017189  0.40206137  1
  N  N413  1  0.92565544  0.94426873  0.39305824  1
  N  N414  1  0.07233076  0.05480291  0.89661917  1
  N  N415  1  0.06980936  0.38749504  0.90006654  1
  N  N416  1  0.06905022  0.72290616  0.89781226  1
  N  N417  1  0.56686322  0.05695176  0.89911203  1
  N  N418  1  0.57063595  0.39069955  0.90180993  1
  N  N419  1  0.57099028  0.72191139  0.89543025  1
  N  N420  1  0.05491144  0.27595795  0.09546841  1
  N  N421  1  0.07581840  0.61494522  0.10529327  1
  N  N422  1  0.05138434  0.94435972  0.08770824  1
  N  N423  1  0.55589377  0.27631156  0.09132292  1
  N  N424  1  0.57074254  0.61340563  0.09471655  1
  N  N425  1  0.55355010  0.94618577  0.09140533  1
  N  N426  1  0.42043584  0.05479974  0.60558719  1
  N  N427  1  0.43604014  0.39328578  0.59353143  1
  N  N428  1  0.42855903  0.72142093  0.60326256  1
  N  N429  1  0.92084423  0.05556662  0.60039024  1
  N  N430  1  0.93670659  0.38954540  0.59364280  1
  N  N431  1  0.93556524  0.72420629  0.59899115  1
  N  N432  1  0.19314240  0.11142762  0.40844398  1
  N  N433  1  0.18399613  0.44140997  0.40051104  1
  N  N434  1  0.18983027  0.77553726  0.40514102  1
  N  N435  1  0.70152715  0.10781358  0.41493980  1
  N  N436  1  0.68378331  0.44238641  0.40844611  1
  N  N437  1  0.68444452  0.77729643  0.40844477  1
  N  N438  1  0.31931766  0.22161754  0.89788180  1
  N  N439  1  0.30558844  0.55424653  0.91423041  1
  N  N440  1  0.32460638  0.88985029  0.89810267  1
  N  N441  1  0.82693809  0.21823823  0.89156801  1
  N  N442  1  0.81064729  0.55707057  0.89771013  1
  N  N443  1  0.82636706  0.88411585  0.89515730  1
  N  N444  1  0.30520237  0.10775959  0.09001520  1
  N  N445  1  0.30604092  0.44057736  0.09389652  1
  N  N446  1  0.30232947  0.77559597  0.09000372  1
  N  N447  1  0.81090242  0.11004202  0.09139161  1
  N  N448  1  0.80589870  0.44068399  0.08850150  1
  N  N449  1  0.80934141  0.77414661  0.09820118  1
  N  N450  1  0.19514951  0.22383544  0.59046672  1
  N  N451  1  0.18299393  0.55453210  0.60738866  1
  N  N452  1  0.19642235  0.88952217  0.59049884  1
  N  N453  1  0.68849495  0.22674923  0.59332246  1
  N  N454  1  0.69752218  0.55663782  0.58329430  1
  N  N455  1  0.69352552  0.88961748  0.59177539  1
  Cl  Cl456  1  0.23443303  0.05379340  0.61065356  1
  Cl  Cl457  1  0.24793513  0.38991804  0.61732805  1
  Cl  Cl458  1  0.24426272  0.71738684  0.62075787  1
  Cl  Cl459  1  0.73161951  0.06393270  0.60430035  1
  Cl  Cl460  1  0.75176244  0.38782319  0.61951735  1
  Cl  Cl461  1  0.74662421  0.71992579  0.61018337  1
  Cl  Cl462  1  0.24064738  0.27794505  0.11629472  1
  Cl  Cl463  1  0.26298199  0.59764518  0.11218293  1
  Cl  Cl464  1  0.23423036  0.93952875  0.10918394  1
  Cl  Cl465  1  0.73976896  0.27667707  0.11537182  1
  Cl  Cl466  1  0.75690400  0.60597903  0.10297661  1
  Cl  Cl467  1  0.73900597  0.94482544  0.10944202  1
  Cl  Cl468  1  0.25472404  0.05053334  0.87909837  1
  Cl  Cl469  1  0.25393083  0.39066457  0.88333784  1
  Cl  Cl470  1  0.26004921  0.71909249  0.88687388  1
  Cl  Cl471  1  0.75696146  0.05628188  0.88514178  1
  Cl  Cl472  1  0.75534661  0.38831608  0.88522005  1
  Cl  Cl473  1  0.75725612  0.71564854  0.87786190  1
  Cl  Cl474  1  0.24211270  0.27649129  0.38319544  1
  Cl  Cl475  1  0.24663734  0.60389630  0.39216108  1
  Cl  Cl476  1  0.23285847  0.94024391  0.39683620  1
  Cl  Cl477  1  0.73539177  0.27992063  0.38431081  1
  Cl  Cl478  1  0.74659737  0.60878919  0.37545534  1
  Cl  Cl479  1  0.74567866  0.94872516  0.37777453  1
  Cl  Cl480  1  0.00840425  0.22028639  0.61043277  1
  Cl  Cl481  1  0.00305803  0.55293191  0.62292695  1
  Cl  Cl482  1  0.01163001  0.89459789  0.60335499  1
  Cl  Cl483  1  0.50367890  0.22160540  0.62135018  1
  Cl  Cl484  1  0.50108648  0.55855790  0.61228428  1
  Cl  Cl485  1  0.50802808  0.88510664  0.62241710  1
  Cl  Cl486  1  -0.00640676  0.11124025  0.12046487  1
  Cl  Cl487  1  -0.00711941  0.44355921  0.11193595  1
  Cl  Cl488  1  -0.00772083  0.78244492  0.11983587  1
  Cl  Cl489  1  0.49140223  0.11241020  0.12337276  1
  Cl  Cl490  1  0.49359918  0.44416238  0.10606074  1
  Cl  Cl491  1  0.49101871  0.78149548  0.10638124  1
  Cl  Cl492  1  0.00859826  0.21765035  0.87605111  1
  Cl  Cl493  1  -0.00609482  0.55017328  0.88460878  1
  Cl  Cl494  1  0.01629034  0.89788287  0.89232945  1
  Cl  Cl495  1  0.51057142  0.22762884  0.89470077  1
  Cl  Cl496  1  0.49067292  0.56233872  0.89766686  1
  Cl  Cl497  1  0.51440781  0.89391993  0.89341967  1
  Cl  Cl498  1  0.00922935  0.11804722  0.38254026  1
  Cl  Cl499  1  0.00046418  0.45157202  0.37433530  1
  Cl  Cl500  1  0.00464941  0.78168806  0.38083634  1
  Cl  Cl501  1  0.51690232  0.10388241  0.39762924  1
  Cl  Cl502  1  0.49675761  0.44594077  0.37501269  1
  Cl  Cl503  1  0.50245475  0.78369373  0.37298873  1
  Cl  Cl504  1  0.36461358  0.14275075  0.74549578  1
  Cl  Cl505  1  0.36198369  0.48347604  0.75462860  1
  Cl  Cl506  1  0.35934578  0.81377099  0.75093101  1
  Cl  Cl507  1  0.86347223  0.14283018  0.74437686  1
  Cl  Cl508  1  0.86090394  0.48319119  0.74710373  1
  Cl  Cl509  1  0.86900804  0.81308452  0.75130486  1
  Cl  Cl510  1  0.14196641  0.18122848  0.24462069  1
  Cl  Cl511  1  0.13783798  0.51952283  0.24227908  1
  Cl  Cl512  1  0.13373136  0.85277010  0.24669736  1
  Cl  Cl513  1  0.63874939  0.18181450  0.25281691  1
  Cl  Cl514  1  0.63428240  0.52007206  0.24268949  1
  Cl  Cl515  1  0.64119635  0.84971751  0.24917973  1
  Cl  Cl516  1  0.14409777  0.14778559  0.75204390  1
  Cl  Cl517  1  0.14000071  0.48168147  0.75340579  1
  Cl  Cl518  1  0.13908900  0.81389688  0.75281017  1
  Cl  Cl519  1  0.64430561  0.14676298  0.75153593  1
  Cl  Cl520  1  0.63925127  0.48049215  0.75059626  1
  Cl  Cl521  1  0.64806088  0.81831655  0.74985668  1
  Cl  Cl522  1  0.36264766  0.18758043  0.25885893  1
  Cl  Cl523  1  0.36273750  0.52146859  0.25001362  1
  Cl  Cl524  1  0.35352180  0.85516808  0.25122907  1
  Cl  Cl525  1  0.85965108  0.18627373  0.25432437  1
  Cl  Cl526  1  0.85212027  0.51867494  0.24692337  1
  Cl  Cl527  1  0.86088083  0.85375074  0.25043190  1
  Cl  Cl528  1  0.11288091  0.31599030  0.75175104  1
  Cl  Cl529  1  0.11271293  0.64658775  0.75801474  1
  Cl  Cl530  1  0.10934051  0.98079306  0.75173017  1
  Cl  Cl531  1  0.61092666  0.31438225  0.75267681  1
  Cl  Cl532  1  0.61279500  0.64836005  0.75668378  1
  Cl  Cl533  1  0.60513130  0.98341967  0.74933549  1
  Cl  Cl534  1  0.38170788  0.01957032  0.25475272  1
  Cl  Cl535  1  0.38382934  0.35349469  0.24125130  1
  Cl  Cl536  1  0.38245654  0.68867810  0.24475551  1
  Cl  Cl537  1  0.88519819  0.02037184  0.25321999  1
  Cl  Cl538  1  0.88389792  0.35306469  0.25596655  1
  Cl  Cl539  1  0.89328097  0.68032581  0.24960354  1
  Cl  Cl540  1  0.39344875  0.31124051  0.75329603  1
  Cl  Cl541  1  0.39169482  0.64932098  0.74336872  1
  Cl  Cl542  1  0.38572659  0.97569965  0.74375477  1
  Cl  Cl543  1  0.89092578  0.31159635  0.75526632  1
  Cl  Cl544  1  0.89191030  0.64775336  0.74867078  1
  Cl  Cl545  1  0.88946927  0.97900591  0.75087222  1
  Cl  Cl546  1  0.10610634  0.01750209  0.24603653  1
  Cl  Cl547  1  0.10441212  0.34988902  0.24954006  1
  Cl  Cl548  1  0.11621109  0.68869609  0.24380713  1
  Cl  Cl549  1  0.60411748  0.01497445  0.25120477  1
  Cl  Cl550  1  0.60540750  0.35043063  0.24743306  1
  Cl  Cl551  1  0.60446974  0.68629381  0.24993079  1
