# generated using pymatgen
data_H8PbC4(N3Cl2)2
_symmetry_space_group_name_H-M   'P 1'
_cell_length_a   16.61827280
_cell_length_b   22.49760797
_cell_length_c   21.58681488
_cell_angle_alpha   89.99974083
_cell_angle_beta   89.99694836
_cell_angle_gamma   89.99814048
_symmetry_Int_Tables_number   1
_chemical_formula_structural   H8PbC4(N3Cl2)2
_chemical_formula_sum   'H192 Pb24 C96 N144 Cl96'
_cell_volume   8070.69239220
_cell_formula_units_Z   24
loop_
 _symmetry_equiv_pos_site_id
 _symmetry_equiv_pos_as_xyz
  1  'x, y, z'
loop_
 _atom_site_type_symbol
 _atom_site_label
 _atom_site_symmetry_multiplicity
 _atom_site_fract_x
 _atom_site_fract_y
 _atom_site_fract_z
 _atom_site_occupancy
  H  H0  1  0.00120812  0.03329870  0.68115855  1
  H  H1  1  0.00261780  0.36618938  0.68055009  1
  H  H2  1  -0.00758717  0.70001066  0.68259113  1
  H  H3  1  0.49565330  0.03341838  0.67962235  1
  H  H4  1  0.50159326  0.36708803  0.68131418  1
  H  H5  1  0.50732625  0.69913024  0.68151270  1
  H  H6  1  -0.00280606  0.29964704  0.18013772  1
  H  H7  1  -0.00629244  0.63377598  0.18056281  1
  H  H8  1  -0.00026894  0.96793202  0.17967122  1
  H  H9  1  0.49808775  0.30084773  0.18194611  1
  H  H10  1  0.50663714  0.63306293  0.18082176  1
  H  H11  1  0.49454513  0.96679783  0.18261658  1
  H  H12  1  -0.00080128  0.03282634  0.82013969  1
  H  H13  1  0.00200979  0.36531042  0.81792933  1
  H  H14  1  -0.00010802  0.69999276  0.81711690  1
  H  H15  1  0.50159802  0.03331557  0.82134616  1
  H  H16  1  0.50083432  0.36587551  0.81722057  1
  H  H17  1  0.50347512  0.70014648  0.81856987  1
  H  H18  1  0.00482804  0.29954534  0.31883272  1
  H  H19  1  0.00110452  0.63293760  0.31887557  1
  H  H20  1  0.00177536  0.96723950  0.31874778  1
  H  H21  1  0.50332927  0.30022655  0.31921857  1
  H  H22  1  0.49421283  0.63190223  0.32081349  1
  H  H23  1  0.49827543  0.96756315  0.32114027  1
  H  H24  1  0.24978467  0.19935573  0.68031650  1
  H  H25  1  0.25350693  0.53336743  0.68052538  1
  H  H26  1  0.24844097  0.86620344  0.68047697  1
  H  H27  1  0.74746931  0.19936859  0.68153084  1
  H  H28  1  0.75018460  0.53275780  0.68236881  1
  H  H29  1  0.75159283  0.86627079  0.68003637  1
  H  H30  1  0.24598456  0.13291062  0.17980692  1
  H  H31  1  0.24935613  0.46673156  0.18058569  1
  H  H32  1  0.25168674  0.80069528  0.18265467  1
  H  H33  1  0.75605051  0.13374571  0.18006872  1
  H  H34  1  0.75212431  0.46601843  0.18243060  1
  H  H35  1  0.74652641  0.80139037  0.17968789  1
  H  H36  1  0.24839645  0.19873561  0.81987588  1
  H  H37  1  0.25026389  0.53247750  0.81902312  1
  H  H38  1  0.25639793  0.86664829  0.81759167  1
  H  H39  1  0.75111791  0.19903260  0.81799662  1
  H  H40  1  0.75058802  0.53126818  0.81793090  1
  H  H41  1  0.75375743  0.86736806  0.81918936  1
  H  H42  1  0.25644726  0.13239045  0.32083182  1
  H  H43  1  0.24913277  0.46746281  0.31768380  1
  H  H44  1  0.25200074  0.80050412  0.31893989  1
  H  H45  1  0.75000904  0.13310504  0.32047490  1
  H  H46  1  0.74680956  0.46734447  0.32037744  1
  H  H47  1  0.75110434  0.80031818  0.31726665  1
  H  H48  1  0.12514574  0.05434086  0.60979922  1
  H  H49  1  0.11842665  0.38796697  0.60281260  1
  H  H50  1  0.12865792  0.71631021  0.62366974  1
  H  H51  1  0.62676142  0.05289428  0.61582161  1
  H  H52  1  0.61916453  0.39038193  0.60290471  1
  H  H53  1  0.61947009  0.72270759  0.60111969  1
  H  H54  1  0.37424710  0.27935731  0.10873383  1
  H  H55  1  0.37139896  0.61405470  0.12132199  1
  H  H56  1  0.38096748  0.94540226  0.10487213  1
  H  H57  1  0.87934084  0.27627461  0.10313220  1
  H  H58  1  0.88024053  0.60951552  0.10003110  1
  H  H59  1  0.87817902  0.94624357  0.10562500  1
  H  H60  1  0.37518947  0.05167534  0.89140762  1
  H  H61  1  0.37332233  0.38620777  0.88410925  1
  H  H62  1  0.37202222  0.71907825  0.88388837  1
  H  H63  1  0.87551550  0.05384698  0.89178813  1
  H  H64  1  0.87525692  0.38674956  0.88758157  1
  H  H65  1  0.87204978  0.72208665  0.88773948  1
  H  H66  1  0.12230740  0.27652556  0.39520569  1
  H  H67  1  0.12449899  0.61393964  0.38977087  1
  H  H68  1  0.12671652  0.94682979  0.39103407  1
  H  H69  1  0.61849918  0.27585265  0.39840120  1
  H  H70  1  0.62613972  0.61405023  0.38281649  1
  H  H71  1  0.62409293  0.94855519  0.39141357  1
  H  H72  1  0.37835397  0.21828316  0.61271354  1
  H  H73  1  0.37607117  0.55363992  0.60786051  1
  H  H74  1  0.37340897  0.88885650  0.60920440  1
  H  H75  1  0.87950020  0.21845244  0.61816849  1
  H  H76  1  0.87422912  0.55368039  0.61234382  1
  H  H77  1  0.87297625  0.88881191  0.60573874  1
  H  H78  1  0.12855169  0.11104034  0.10184881  1
  H  H79  1  0.12696626  0.44597528  0.10989695  1
  H  H80  1  0.12649043  0.77938183  0.11229675  1
  H  H81  1  0.62488833  0.11296159  0.11503374  1
  H  H82  1  0.62799721  0.44618413  0.11031705  1
  H  H83  1  0.63132413  0.77594195  0.10241739  1
  H  H84  1  0.12294197  0.21953437  0.89158401  1
  H  H85  1  0.12563772  0.55316529  0.88869315  1
  H  H86  1  0.12185519  0.88622129  0.87997373  1
  H  H87  1  0.62611531  0.22058609  0.88852240  1
  H  H88  1  0.62547218  0.55559012  0.88848009  1
  H  H89  1  0.62516950  0.88634805  0.88378375  1
  H  H90  1  0.37300905  0.11168793  0.39622458  1
  H  H91  1  0.37920041  0.44858403  0.38675672  1
  H  H92  1  0.37613871  0.77821564  0.39081583  1
  H  H93  1  0.87439886  0.11237136  0.39126367  1
  H  H94  1  0.88224902  0.44818344  0.37948741  1
  H  H95  1  0.87510676  0.77923791  0.38837963  1
  H  H96  1  0.36960652  0.28103936  0.38050377  1
  H  H97  1  0.37810613  0.61133075  0.39692958  1
  H  H98  1  0.37565508  0.94514680  0.39321755  1
  H  H99  1  0.87372354  0.27975119  0.38521993  1
  H  H100  1  0.87541437  0.61346830  0.38690125  1
  H  H101  1  0.87810888  0.94583771  0.39131304  1
  H  H102  1  0.12467729  0.05465609  0.89092584  1
  H  H103  1  0.12452030  0.38711303  0.89072940  1
  H  H104  1  0.12046833  0.72146480  0.89281020  1
  H  H105  1  0.62387405  0.05675872  0.89346547  1
  H  H106  1  0.62286490  0.38700089  0.88906513  1
  H  H107  1  0.62003702  0.72395234  0.89772043  1
  H  H108  1  0.12766861  0.28086867  0.11505222  1
  H  H109  1  0.12810843  0.61399626  0.12013441  1
  H  H110  1  0.12705844  0.94676238  0.10936799  1
  H  H111  1  0.62303878  0.27893046  0.11088759  1
  H  H112  1  0.61908429  0.60923767  0.09924294  1
  H  H113  1  0.62952789  0.94916285  0.12193262  1
  H  H114  1  0.37854086  0.05599826  0.60137592  1
  H  H115  1  0.37091937  0.38594237  0.61495583  1
  H  H116  1  0.37181936  0.71760244  0.61993188  1
  H  H117  1  0.87517552  0.05363248  0.61061516  1
  H  H118  1  0.86956563  0.38612616  0.61681215  1
  H  H119  1  0.88113320  0.72186346  0.60310678  1
  H  H120  1  0.12507284  0.11521824  0.38356372  1
  H  H121  1  0.12994963  0.44578741  0.39342277  1
  H  H122  1  0.12654355  0.77956423  0.38818184  1
  H  H123  1  0.62469482  0.11150606  0.39075544  1
  H  H124  1  0.63447219  0.44396822  0.40135086  1
  H  H125  1  0.62479175  0.77859125  0.38728954  1
  H  H126  1  0.37152623  0.22108799  0.89210672  1
  H  H127  1  0.37473202  0.55315794  0.88881822  1
  H  H128  1  0.37010431  0.88912330  0.89668587  1
  H  H129  1  0.87549957  0.21943201  0.89083803  1
  H  H130  1  0.87534816  0.55404659  0.88742577  1
  H  H131  1  0.87393775  0.88883488  0.89306017  1
  H  H132  1  0.37679842  0.11315083  0.11580221  1
  H  H133  1  0.37573286  0.44705261  0.11309002  1
  H  H134  1  0.37572344  0.77867874  0.10932530  1
  H  H135  1  0.87344696  0.11169752  0.10311452  1
  H  H136  1  0.87665213  0.44548105  0.10975307  1
  H  H137  1  0.87911932  0.78328924  0.11593479  1
  H  H138  1  0.12959862  0.22121802  0.60398848  1
  H  H139  1  0.12667204  0.55336317  0.61417128  1
  H  H140  1  0.12450369  0.88745752  0.60974952  1
  H  H141  1  0.63018200  0.22308258  0.60407962  1
  H  H142  1  0.62447915  0.55297070  0.61398543  1
  H  H143  1  0.62379280  0.88845826  0.61349497  1
  H  H144  1  0.40972728  0.41457288  0.99531759  1
  H  H145  1  0.16668749  0.58095427  0.99951313  1
  H  H146  1  0.07978153  0.91953187  0.00445532  1
  H  H147  1  0.16550532  0.58272690  0.50146370  1
  H  H148  1  0.55455765  0.25330046  0.50224328  1
  H  H149  1  0.54978285  0.58561095  -0.00364080  1
  H  H150  1  0.82632369  0.75355057  0.50015409  1
  H  H151  1  0.33359317  0.58084960  0.99965370  1
  H  H152  1  0.41771932  0.08560689  0.99291144  1
  H  H153  1  0.55209286  0.74471953  0.49331349  1
  H  H154  1  0.30523792  0.91479050  1.00422749  1
  H  H155  1  0.42668716  0.25264419  0.00472865  1
  H  H156  1  0.84592597  0.24789858  0.50635002  1
  H  H157  1  0.44147991  0.91878294  -0.00464477  1
  H  H158  1  0.67488212  0.24776212  0.99832141  1
  H  H159  1  0.82818729  0.57830381  0.99984733  1
  H  H160  1  0.18787379  0.41868568  0.50179644  1
  H  H161  1  0.07707928  0.91779280  0.49479919  1
  H  H162  1  0.91962094  0.08261079  0.50591664  1
  H  H163  1  0.94506942  0.74536305  0.49355898  1
  H  H164  1  0.69554715  0.76357125  -0.00192922  1
  H  H165  1  0.65917154  0.91607555  0.99743181  1
  H  H166  1  0.42761274  0.92823896  0.49798235  1
  H  H167  1  0.67222526  0.75243353  0.49369838  1
  H  H168  1  0.17061994  0.24795612  0.99568164  1
  H  H169  1  0.39829195  0.25041635  0.49279597  1
  H  H170  1  0.67639590  0.57203140  0.99673536  1
  H  H171  1  0.69094664  0.24377146  0.49899652  1
  H  H172  1  0.66302858  0.58154458  0.50282134  1
  H  H173  1  0.57263686  0.07384487  0.99828631  1
  H  H174  1  0.08132305  0.08417352  0.50070757  1
  H  H175  1  0.55387978  0.75070345  1.00009884  1
  H  H176  1  0.58030626  0.91449562  0.49270794  1
  H  H177  1  0.67088262  0.08301146  0.49611316  1
  H  H178  1  0.70179827  0.41867566  0.50388090  1
  H  H179  1  0.57577844  0.41336593  0.99955546  1
  H  H180  1  0.81856810  0.91762203  0.50206075  1
  H  H181  1  0.94789448  0.58643007  -0.00344560  1
  H  H182  1  0.55407255  0.42032234  0.50091765  1
  H  H183  1  0.32835432  0.74928093  0.49488172  1
  H  H184  1  0.05873237  0.41576875  0.49434374  1
  H  H185  1  0.84400876  0.74863107  0.01255118  1
  H  H186  1  0.16620391  0.74937068  0.49818071  1
  H  H187  1  0.83112894  0.58266833  0.50211305  1
  H  H188  1  0.17423515  0.75184945  0.00274780  1
  H  H189  1  0.90158107  0.41426668  0.50903063  1
  H  H190  1  0.82513360  0.41523261  0.00645530  1
  H  H191  1  0.07368826  0.41541463  0.99913208  1
  Pb  Pb192  1  0.24940117  0.04706676  0.74917607  1
  Pb  Pb193  1  0.24596329  0.37973539  0.74798829  1
  Pb  Pb194  1  0.25010657  0.71456057  0.75043802  1
  Pb  Pb195  1  0.75038823  0.04761107  0.74849781  1
  Pb  Pb196  1  0.75028232  0.38007594  0.75043570  1
  Pb  Pb197  1  0.74748487  0.71645871  0.74648828  1
  Pb  Pb198  1  0.24878138  0.28416838  0.24801545  1
  Pb  Pb199  1  0.25117391  0.61838257  0.25161599  1
  Pb  Pb200  1  0.24705368  0.95348566  0.24895378  1
  Pb  Pb201  1  0.74811491  0.28402960  0.25208459  1
  Pb  Pb202  1  0.74969807  0.61791977  0.24515254  1
  Pb  Pb203  1  0.75403864  0.95280279  0.25302087  1
  Pb  Pb204  1  0.00117948  0.21200797  0.75067344  1
  Pb  Pb205  1  0.00046191  0.54778944  0.75343212  1
  Pb  Pb206  1  0.00090344  0.88216068  0.74762773  1
  Pb  Pb207  1  0.49817643  0.21423256  0.74867161  1
  Pb  Pb208  1  0.49812117  0.54640862  0.75462977  1
  Pb  Pb209  1  0.49702454  0.88330393  0.74735730  1
  Pb  Pb210  1  -0.00051840  0.12150995  0.25023489  1
  Pb  Pb211  1  0.00157796  0.45076381  0.25095252  1
  Pb  Pb212  1  0.00241190  0.78497569  0.25093918  1
  Pb  Pb213  1  0.49954078  0.11710920  0.24752392  1
  Pb  Pb214  1  0.50021443  0.45086013  0.25288256  1
  Pb  Pb215  1  0.49990871  0.78639097  0.24661283  1
  C  C216  1  0.00004664  0.04752892  0.63303771  1
  C  C217  1  -0.00383530  0.38048014  0.63269785  1
  C  C218  1  0.00054008  0.71284522  0.63465018  1
  C  C219  1  0.50019819  0.04772556  0.63198682  1
  C  C220  1  0.49751789  0.38131615  0.63344081  1
  C  C221  1  0.49925061  0.71319282  0.63382203  1
  C  C222  1  0.00120068  0.28549950  0.13240629  1
  C  C223  1  0.00014297  0.61979886  0.13279814  1
  C  C224  1  0.00208936  0.95347304  0.13180013  1
  C  C225  1  0.49808677  0.28603167  0.13417036  1
  C  C226  1  0.49952185  0.61949683  0.13297966  1
  C  C227  1  0.50142382  0.95335352  0.13474656  1
  C  C228  1  -0.00001503  0.04725750  0.86783993  1
  C  C229  1  0.00043146  0.38003849  0.86569807  1
  C  C230  1  -0.00277331  0.71408012  0.86515319  1
  C  C231  1  0.50022292  0.04758997  0.86953589  1
  C  C232  1  0.49902651  0.38028514  0.86522829  1
  C  C233  1  0.49884879  0.71438345  0.86644080  1
  C  C234  1  -0.00014154  0.28553822  0.36652637  1
  C  C235  1  0.00033362  0.61973337  0.36709777  1
  C  C236  1  0.00248112  0.95275332  0.36666157  1
  C  C237  1  0.49741939  0.28626631  0.36721960  1
  C  C238  1  0.49959526  0.61884258  0.36888993  1
  C  C239  1  0.49940769  0.95298961  0.36912470  1
  C  C240  1  0.25237753  0.21301100  0.63235581  1
  C  C241  1  0.25156065  0.54721755  0.63252349  1
  C  C242  1  0.24905297  0.88077763  0.63285752  1
  C  C243  1  0.75209111  0.21335292  0.63344460  1
  C  C244  1  0.74962910  0.54715440  0.63433702  1
  C  C245  1  0.74977377  0.88105651  0.63228305  1
  C  C246  1  0.25032171  0.11903240  0.13204244  1
  C  C247  1  0.25068186  0.45270489  0.13266229  1
  C  C248  1  0.25156498  0.78617319  0.13482011  1
  C  C249  1  0.75113721  0.11952126  0.13243909  1
  C  C250  1  0.75262918  0.45199775  0.13436394  1
  C  C251  1  0.75259828  0.78686063  0.13189000  1
  C  C252  1  0.24722930  0.21340127  0.86771973  1
  C  C253  1  0.25023495  0.54650048  0.86716085  1
  C  C254  1  0.24912082  0.88068516  0.86532185  1
  C  C255  1  0.75090685  0.21355379  0.86583861  1
  C  C256  1  0.74989315  0.54636338  0.86572414  1
  C  C257  1  0.75034470  0.88088583  0.86726360  1
  C  C258  1  0.25134392  0.11933444  0.36892369  1
  C  C259  1  0.25299819  0.45364778  0.36573472  1
  C  C260  1  0.25200046  0.78578572  0.36688858  1
  C  C261  1  0.74935843  0.11885424  0.36841334  1
  C  C262  1  0.75434456  0.45301527  0.36802512  1
  C  C263  1  0.74982278  0.78578354  0.36532017  1
  C  C264  1  0.52129709  0.73679362  0.53713312  1
  C  C265  1  0.95782346  0.59577937  0.46017464  1
  C  C266  1  0.78972029  0.76158148  0.45926309  1
  C  C267  1  0.27307063  0.90533332  0.96136021  1
  C  C268  1  0.22281672  0.42876753  0.46045316  1
  C  C269  1  0.79129234  0.57248505  0.95861208  1
  C  C270  1  0.81151078  0.42784249  0.45715080  1
  C  C271  1  0.53625987  0.40438845  0.96053139  1
  C  C272  1  0.20100262  0.09597417  0.45978160  1
  C  C273  1  0.20814704  0.57252817  0.53887421  1
  C  C274  1  0.29723207  0.09434137  0.04092581  1
  C  C275  1  0.21361068  0.76177861  0.04166830  1
  C  C276  1  0.54766839  0.07347089  0.54125632  1
  C  C277  1  0.28978174  0.57220431  0.53826137  1
  C  C278  1  0.46952053  0.59390727  0.46427321  1
  C  C279  1  0.05668886  0.59387885  0.04326599  1
  C  C280  1  0.29603738  0.23777015  0.54000658  1
  C  C281  1  0.80289272  0.23866032  0.54310120  1
  C  C282  1  0.55691913  0.93003091  0.04483347  1
  C  C283  1  0.21091787  0.90783572  0.53977489  1
  C  C284  1  0.47557749  0.92853063  0.03729587  1
  C  C285  1  0.20918290  0.76043974  0.46006255  1
  C  C286  1  0.78031609  0.09179433  0.03798529  1
  C  C287  1  0.71359568  0.23811989  0.95906413  1
  C  C288  1  0.70250392  0.90746010  0.53981762  1
  C  C289  1  0.03498530  0.40535919  0.95952325  1
  C  C290  1  0.04010326  0.07347343  0.53945613  1
  C  C291  1  0.96345847  0.07421848  0.96071328  1
  C  C292  1  0.70695918  0.57185470  0.54043796  1
  C  C293  1  0.29128420  0.57096404  0.96165558  1
  C  C294  1  0.44371878  0.26026315  0.45652293  1
  C  C295  1  0.21249265  0.42714030  0.03900910  1
  C  C296  1  0.05846924  0.73449376  0.54527978  1
  C  C297  1  0.78931392  0.57227839  0.53994644  1
  C  C298  1  0.03956786  0.59594008  0.46111561  1
  C  C299  1  0.45401827  0.40458315  0.95850889  1
  C  C300  1  0.78569154  0.90591232  0.96207329  1
  C  C301  1  0.70406435  0.90565322  0.96051383  1
  C  C302  1  0.44170761  0.59390072  0.04385150  1
  C  C303  1  0.02966307  0.25882304  0.46133309  1
  C  C304  1  0.29410576  0.42752838  0.04013901  1
  C  C305  1  0.02572944  0.40578590  0.53669443  1
  C  C306  1  0.04733419  0.25976222  0.04139757  1
  C  C307  1  0.28200335  0.09480367  0.46420723  1
  C  C308  1  0.55037760  0.59491878  0.45936468  1
  C  C309  1  0.97753690  0.73650460  0.53639251  1
  C  C310  1  0.20904813  0.57106780  0.96158147  1
  C  C311  1  0.79113096  0.09225578  0.46242286  1
  N  N312  1  0.04092184  0.07461686  0.96173739  1
  N  N313  1  0.21855983  0.23924980  0.53622165  1
  N  N314  1  0.95548355  0.40543545  0.95919348  1
  N  N315  1  0.79286639  0.23810714  0.96020463  1
  N  N316  1  0.70997138  0.42918422  0.04036757  1
  N  N317  1  0.28834496  0.23950352  0.96114987  1
  N  N318  1  0.29296013  0.76170335  0.04023205  1
  N  N319  1  0.73279427  0.42658355  0.46355678  1
  N  N320  1  0.19399734  0.90459485  0.95586237  1
  N  N321  1  0.47019391  0.07470875  0.53531991  1
  N  N322  1  0.96056947  0.92810473  0.46026807  1
  N  N323  1  0.54053872  0.93511868  0.46252605  1
  N  N324  1  0.72425166  0.75554271  0.03934614  1
  N  N325  1  0.44639674  0.73708687  0.95732255  1
  N  N326  1  0.80248946  0.76874897  0.04119993  1
  N  N327  1  0.70262736  0.09183142  0.04050571  1
  N  N328  1  0.95216942  0.26019300  0.45930157  1
  N  N329  1  0.95495443  0.73801831  0.95880691  1
  N  N330  1  0.28878857  0.90822316  0.53845260  1
  N  N331  1  0.04109815  0.92781514  0.04074478  1
  N  N332  1  0.46313732  0.26217629  0.04167423  1
  N  N333  1  0.28907931  0.76064067  0.45997959  1
  N  N334  1  0.96288261  0.92762378  0.03784548  1
  N  N335  1  0.53678014  0.08029595  0.95989547  1
  N  N336  1  0.78846284  0.43005537  0.04149001  1
  N  N337  1  0.96023984  0.07253486  0.54059363  1
  N  N338  1  0.71158004  0.09254987  0.46118198  1
  N  N339  1  0.30185403  0.42949455  0.45812766  1
  N  N340  1  0.54157107  0.26192568  0.04073351  1
  N  N341  1  0.97793690  0.59282260  0.03751670  1
  N  N342  1  0.72332847  0.24074912  0.53935910  1
  N  N343  1  0.71146071  0.57427212  0.95783056  1
  N  N344  1  0.03174001  0.73849322  0.96046591  1
  N  N345  1  0.52038464  0.59293578  0.03747568  1
  N  N346  1  0.71018069  0.76124466  0.45773518  1
  N  N347  1  0.03905617  0.92868017  0.45878334  1
  N  N348  1  0.52322654  0.25780164  0.46150270  1
  N  N349  1  0.44241054  0.73601385  0.54359960  1
  N  N350  1  0.45875607  0.06537396  0.96301430  1
  N  N351  1  0.52422064  0.40480390  0.53927101  1
  N  N352  1  0.21971685  0.09309283  0.03519998  1
  N  N353  1  0.78176669  0.90746204  0.53849879  1
  N  N354  1  0.94645728  0.40525658  0.54291188  1
  N  N355  1  0.52426718  0.73802370  0.96070191  1
  N  N356  1  0.44635003  0.40392296  0.54212697  1
  N  N357  1  0.20978138  0.23881403  0.95935902  1
  N  N358  1  0.46252042  0.92087143  0.45951745  1
  N  N359  1  0.96981455  0.25836030  0.03613137  1
  N  N360  1  0.06481103  0.05771962  0.59688509  1
  N  N361  1  0.05694974  0.39056388  0.59247044  1
  N  N362  1  0.07148159  0.72027880  0.60474676  1
  N  N363  1  0.56836946  0.05726721  0.59982728  1
  N  N364  1  0.55730718  0.39266419  0.59483529  1
  N  N365  1  0.55777931  0.72346177  0.59233657  1
  N  N366  1  0.43525524  0.27656646  0.09800049  1
  N  N367  1  0.42884133  0.60983236  0.10309247  1
  N  N368  1  0.44209438  0.94312561  0.09454025  1
  N  N369  1  0.94094700  0.27457224  0.09419033  1
  N  N370  1  0.94191680  0.61063747  0.09227359  1
  N  N371  1  0.93918076  0.94338904  0.09493004  1
  N  N372  1  0.43546050  0.05708391  0.90370573  1
  N  N373  1  0.43265659  0.38974557  0.89896283  1
  N  N374  1  0.43113881  0.72205196  0.89845386  1
  N  N375  1  0.93544470  0.05747938  0.90429240  1
  N  N376  1  0.93583117  0.38952956  0.90010700  1
  N  N377  1  0.93250657  0.72323303  0.89953410  1
  N  N378  1  0.06125171  0.27425654  0.40580332  1
  N  N379  1  0.06467511  0.61048917  0.40384846  1
  N  N380  1  0.06592185  0.94333436  0.40230700  1
  N  N381  1  0.55638171  0.27666222  0.40710085  1
  N  N382  1  0.56834183  0.61003004  0.40083689  1
  N  N383  1  0.56418485  0.94228546  0.40312862  1
  N  N384  1  0.31926398  0.22190028  0.59838074  1
  N  N385  1  0.31575702  0.55702200  0.59478541  1
  N  N386  1  0.31254501  0.89113813  0.59772614  1
  N  N387  1  0.82089783  0.22300523  0.60183639  1
  N  N388  1  0.81422305  0.55701349  0.59876252  1
  N  N389  1  0.81175985  0.89076032  0.59539544  1
  N  N390  1  0.19037323  0.10885235  0.09332920  1
  N  N391  1  0.18669629  0.44246981  0.09582967  1
  N  N392  1  0.18664284  0.77648253  0.09934638  1
  N  N393  1  0.68451478  0.10955491  0.10087839  1
  N  N394  1  0.68858721  0.44390173  0.09828167  1
  N  N395  1  0.69284832  0.77825507  0.09231404  1
  N  N396  1  0.18366437  0.22299976  0.90303173  1
  N  N397  1  0.18527321  0.55583788  0.90245098  1
  N  N398  1  0.18103256  0.88924915  0.89568073  1
  N  N399  1  0.68609146  0.22349757  0.90137630  1
  N  N400  1  0.68618275  0.55436050  0.90130660  1
  N  N401  1  0.68348632  0.88975871  0.90013137  1
  N  N402  1  0.31258964  0.10891985  0.40861100  1
  N  N403  1  0.31908067  0.44513430  0.39906314  1
  N  N404  1  0.31527567  0.77584716  0.40243158  1
  N  N405  1  0.81434976  0.10868092  0.40501973  1
  N  N406  1  0.82499222  0.44365867  0.39776011  1
  N  N407  1  0.81480205  0.77647614  0.40178016  1
  N  N408  1  0.42781192  0.27679216  0.39769506  1
  N  N409  1  0.43872761  0.60849561  0.40885848  1
  N  N410  1  0.43629145  0.94445334  0.40537290  1
  N  N411  1  0.93337443  0.27705965  0.39881805  1
  N  N412  1  0.93473351  0.61022658  0.40248713  1
  N  N413  1  0.93874008  0.94313354  0.40262472  1
  N  N414  1  0.06393250  0.05773717  0.90257059  1
  N  N415  1  0.06385286  0.39028775  0.90250910  1
  N  N416  1  0.05902781  0.72352820  0.90271420  1
  N  N417  1  0.56315793  0.05687915  0.90574584  1
  N  N418  1  0.56276601  0.38943764  0.90204121  1
  N  N419  1  0.55807701  0.72509760  0.90562485  1
  N  N420  1  0.06899649  0.27643156  0.09959194  1
  N  N421  1  0.07033359  0.60988755  0.10238896  1
  N  N422  1  0.06658108  0.94376780  0.09744028  1
  N  N423  1  0.56247988  0.27656798  0.09880520  1
  N  N424  1  0.55717640  0.61030186  0.09196824  1
  N  N425  1  0.57172344  0.94491398  0.10389997  1
  N  N426  1  0.44043644  0.05858259  0.59326358  1
  N  N427  1  0.43021051  0.38855847  0.60078101  1
  N  N428  1  0.43075797  0.72107294  0.60388522  1
  N  N429  1  0.93580388  0.05671577  0.59832282  1
  N  N430  1  0.92866606  0.38968751  0.60193232  1
  N  N431  1  0.94227290  0.72291722  0.59341790  1
  N  N432  1  0.18283147  0.11095286  0.40123777  1
  N  N433  1  0.19107867  0.44337937  0.40407210  1
  N  N434  1  0.18631108  0.77632395  0.40212554  1
  N  N435  1  0.68532091  0.10889744  0.40307455  1
  N  N436  1  0.69676376  0.44314427  0.40880785  1
  N  N437  1  0.68548725  0.77657521  0.39995135  1
  N  N438  1  0.31078444  0.22370455  0.90373533  1
  N  N439  1  0.31516025  0.55559344  0.90257876  1
  N  N440  1  0.30834804  0.89091420  0.90615953  1
  N  N441  1  0.81439664  0.22277258  0.90178392  1
  N  N442  1  0.81528878  0.55733694  0.90107067  1
  N  N443  1  0.81343840  0.89115752  0.90596862  1
  N  N444  1  0.31838107  0.10975368  0.09961327  1
  N  N445  1  0.31671392  0.44312382  0.09767014  1
  N  N446  1  0.31485119  0.77675851  0.09869315  1
  N  N447  1  0.81245523  0.10856482  0.09299641  1
  N  N448  1  0.81575513  0.44174775  0.09879734  1
  N  N449  1  0.82021416  0.77699259  0.10125658  1
  N  N450  1  0.19128262  0.22340664  0.59488449  1
  N  N451  1  0.18562233  0.55689880  0.59880026  1
  N  N452  1  0.18438383  0.89099721  0.59673503  1
  N  N453  1  0.69204106  0.22242535  0.59442435  1
  N  N454  1  0.68409693  0.55635520  0.59962710  1
  N  N455  1  0.68273313  0.89150606  0.59797767  1
  Cl  Cl456  1  0.25166267  0.05112149  0.61686213  1
  Cl  Cl457  1  0.24240320  0.38702971  0.61371001  1
  Cl  Cl458  1  0.25147570  0.72060181  0.61492553  1
  Cl  Cl459  1  0.75133077  0.05236686  0.61144195  1
  Cl  Cl460  1  0.74078830  0.38966291  0.60561332  1
  Cl  Cl461  1  0.74723115  0.72615842  0.61038899  1
  Cl  Cl462  1  0.25145842  0.28011187  0.11243809  1
  Cl  Cl463  1  0.24921232  0.61300578  0.11847806  1
  Cl  Cl464  1  0.25232142  0.94656631  0.11402119  1
  Cl  Cl465  1  0.74850930  0.28040664  0.11905010  1
  Cl  Cl466  1  0.74760653  0.60831612  0.10163687  1
  Cl  Cl467  1  0.75551810  0.94760266  0.12073761  1
  Cl  Cl468  1  0.25280682  0.05167231  0.88164323  1
  Cl  Cl469  1  0.24824502  0.38399207  0.87906933  1
  Cl  Cl470  1  0.24417667  0.72038681  0.88201816  1
  Cl  Cl471  1  0.74715370  0.05158757  0.87955769  1
  Cl  Cl472  1  0.75093257  0.38816271  0.88290639  1
  Cl  Cl473  1  0.74392014  0.72575061  0.89594078  1
  Cl  Cl474  1  0.24535972  0.28135748  0.37793961  1
  Cl  Cl475  1  0.25059261  0.61559941  0.38341585  1
  Cl  Cl476  1  0.25046384  0.94809014  0.38251758  1
  Cl  Cl477  1  0.74170919  0.27592982  0.39595999  1
  Cl  Cl478  1  0.75168470  0.61517840  0.37761940  1
  Cl  Cl479  1  0.75211578  0.94650345  0.39266355  1
  Cl  Cl480  1  0.00495593  0.21784709  0.61752796  1
  Cl  Cl481  1  -0.00118146  0.54973820  0.62327785  1
  Cl  Cl482  1  -0.00127549  0.88806102  0.61221725  1
  Cl  Cl483  1  0.50769801  0.22450642  0.60567646  1
  Cl  Cl484  1  0.50011143  0.54986026  0.62410217  1
  Cl  Cl485  1  0.49846066  0.89053209  0.60866426  1
  Cl  Cl486  1  0.00077237  0.11483332  0.11938622  1
  Cl  Cl487  1  -0.00059715  0.44992289  0.11828025  1
  Cl  Cl488  1  0.00189008  0.78137346  0.11962447  1
  Cl  Cl489  1  0.50028284  0.11100262  0.10939082  1
  Cl  Cl490  1  0.50399916  0.44870101  0.11919097  1
  Cl  Cl491  1  0.50929227  0.77605852  0.10801890  1
  Cl  Cl492  1  0.00037251  0.21752854  0.88236639  1
  Cl  Cl493  1  -0.00287910  0.55621159  0.89070396  1
  Cl  Cl494  1  -0.00182941  0.88743086  0.88015398  1
  Cl  Cl495  1  0.49533028  0.21949710  0.88322613  1
  Cl  Cl496  1  0.50459319  0.55868226  0.89339277  1
  Cl  Cl497  1  0.49359567  0.88736933  0.88055678  1
  Cl  Cl498  1  -0.00352135  0.11199467  0.38707071  1
  Cl  Cl499  1  0.00739499  0.44542238  0.38713541  1
  Cl  Cl500  1  -0.00071962  0.78087791  0.38480019  1
  Cl  Cl501  1  0.50202718  0.11530653  0.37884334  1
  Cl  Cl502  1  0.51189572  0.44500072  0.39179760  1
  Cl  Cl503  1  0.50139831  0.77967975  0.38446120  1
  Cl  Cl504  1  0.36361119  0.14401111  0.75135350  1
  Cl  Cl505  1  0.36374631  0.47652456  0.75056486  1
  Cl  Cl506  1  0.36224898  0.80850373  0.74742008  1
  Cl  Cl507  1  0.86128761  0.14266470  0.74678341  1
  Cl  Cl508  1  0.86121117  0.47531263  0.74989038  1
  Cl  Cl509  1  0.85989683  0.80855889  0.75093622  1
  Cl  Cl510  1  0.13818067  0.19077255  0.25089097  1
  Cl  Cl511  1  0.13752560  0.52450244  0.24850586  1
  Cl  Cl512  1  0.13846170  0.85691359  0.25141174  1
  Cl  Cl513  1  0.63865602  0.19156631  0.24931757  1
  Cl  Cl514  1  0.64147486  0.52419480  0.24830122  1
  Cl  Cl515  1  0.63737205  0.85645502  0.25061257  1
  Cl  Cl516  1  0.13689745  0.14254975  0.75008119  1
  Cl  Cl517  1  0.13696864  0.47644633  0.75027667  1
  Cl  Cl518  1  0.13688838  0.80893904  0.74974291  1
  Cl  Cl519  1  0.63738930  0.14275203  0.74919262  1
  Cl  Cl520  1  0.63772475  0.47678917  0.75083787  1
  Cl  Cl521  1  0.63960561  0.80915540  0.74989613  1
  Cl  Cl522  1  0.36369222  0.19131760  0.24843414  1
  Cl  Cl523  1  0.36249919  0.52426161  0.24956166  1
  Cl  Cl524  1  0.36448329  0.85578478  0.25047973  1
  Cl  Cl525  1  0.86117973  0.19084940  0.25310564  1
  Cl  Cl526  1  0.86174890  0.52409790  0.25027199  1
  Cl  Cl527  1  0.86061550  0.85704612  0.25110275  1
  Cl  Cl528  1  0.11217552  0.31027528  0.74954975  1
  Cl  Cl529  1  0.11188111  0.64235150  0.74866957  1
  Cl  Cl530  1  0.11172315  0.97505269  0.75098686  1
  Cl  Cl531  1  0.61287829  0.30984078  0.74901304  1
  Cl  Cl532  1  0.61391294  0.64333212  0.75241577  1
  Cl  Cl533  1  0.61146332  0.97613205  0.74842109  1
  Cl  Cl534  1  0.39187567  0.02421990  0.25042481  1
  Cl  Cl535  1  0.39008983  0.35838186  0.25111944  1
  Cl  Cl536  1  0.38792181  0.69107623  0.24836573  1
  Cl  Cl537  1  0.88777005  0.02248152  0.25272077  1
  Cl  Cl538  1  0.88767841  0.35818926  0.25214742  1
  Cl  Cl539  1  0.88693512  0.69091141  0.24907344  1
  Cl  Cl540  1  0.38949325  0.30916485  0.74861213  1
  Cl  Cl541  1  0.38780522  0.64331601  0.75115801  1
  Cl  Cl542  1  0.38974706  0.97599926  0.75008085  1
  Cl  Cl543  1  0.88550601  0.31044156  0.74738339  1
  Cl  Cl544  1  0.88545128  0.64253620  0.75253594  1
  Cl  Cl545  1  0.88668812  0.97626814  0.74793243  1
  Cl  Cl546  1  0.11261033  0.02294893  0.25130309  1
  Cl  Cl547  1  0.11168707  0.35793873  0.24777643  1
  Cl  Cl548  1  0.11185622  0.69074632  0.24914310  1
  Cl  Cl549  1  0.61270690  0.02379362  0.24952835  1
  Cl  Cl550  1  0.61127613  0.35694244  0.24956346  1
  Cl  Cl551  1  0.61431705  0.68983240  0.25076993  1
