# generated using pymatgen
data_H8PbC4(N3Cl2)2
_symmetry_space_group_name_H-M   'P 1'
_cell_length_a   16.62633510
_cell_length_b   22.51815815
_cell_length_c   21.59578632
_cell_angle_alpha   90.00196145
_cell_angle_beta   90.01555870
_cell_angle_gamma   89.99538811
_symmetry_Int_Tables_number   1
_chemical_formula_structural   H8PbC4(N3Cl2)2
_chemical_formula_sum   'H192 Pb24 C96 N144 Cl96'
_cell_volume   8085.34206211
_cell_formula_units_Z   24
loop_
 _symmetry_equiv_pos_site_id
 _symmetry_equiv_pos_as_xyz
  1  'x, y, z'
loop_
 _atom_site_type_symbol
 _atom_site_label
 _atom_site_symmetry_multiplicity
 _atom_site_fract_x
 _atom_site_fract_y
 _atom_site_fract_z
 _atom_site_occupancy
  H  H0  1  0.00923021  0.02873938  0.67614006  1
  H  H1  1  0.00766556  0.35720503  0.67489148  1
  H  H2  1  0.00811242  0.69519174  0.67836111  1
  H  H3  1  0.49653729  0.02883451  0.67690284  1
  H  H4  1  0.49473355  0.35927800  0.68000963  1
  H  H5  1  0.50840563  0.69657961  0.67998134  1
  H  H6  1  -0.01625049  0.30466140  0.17819980  1
  H  H7  1  -0.00672661  0.63709511  0.17944959  1
  H  H8  1  0.00665539  0.97656018  0.17565690  1
  H  H9  1  0.50320009  0.29964734  0.18010818  1
  H  H10  1  0.50155989  0.63404005  0.17949816  1
  H  H11  1  0.48713219  0.96984641  0.17405824  1
  H  H12  1  -0.02395609  0.03421543  0.82924957  1
  H  H13  1  -0.00368346  0.36258581  0.82219904  1
  H  H14  1  -0.01139507  0.69829972  0.82188398  1
  H  H15  1  0.51695416  0.02741776  0.82254852  1
  H  H16  1  0.49544863  0.36195462  0.81874686  1
  H  H17  1  0.50882959  0.69937285  0.81582354  1
  H  H18  1  0.01959912  0.29926617  0.32706459  1
  H  H19  1  0.00092446  0.63882705  0.32164290  1
  H  H20  1  -0.00339078  0.97241428  0.32088815  1
  H  H21  1  0.48893510  0.30710573  0.32299452  1
  H  H22  1  0.49200314  0.63574902  0.32181669  1
  H  H23  1  0.49575269  0.97370146  0.32412074  1
  H  H24  1  0.25180815  0.19618861  0.67829787  1
  H  H25  1  0.24962969  0.52664841  0.68124218  1
  H  H26  1  0.23829865  0.86006699  0.67382847  1
  H  H27  1  0.73243784  0.19718830  0.67369074  1
  H  H28  1  0.75670659  0.53155736  0.67633128  1
  H  H29  1  0.74333969  0.85918935  0.67842583  1
  H  H30  1  0.25917476  0.14030543  0.17571211  1
  H  H31  1  0.26760612  0.46756575  0.18215943  1
  H  H32  1  0.26053783  0.80003871  0.17908488  1
  H  H33  1  0.74391129  0.13478960  0.18067683  1
  H  H34  1  0.73476673  0.46682309  0.17944199  1
  H  H35  1  0.74383833  0.81561784  0.17522028  1
  H  H36  1  0.25792776  0.19346841  0.82537037  1
  H  H37  1  0.24068701  0.53002805  0.82096078  1
  H  H38  1  0.23978406  0.86553743  0.81850754  1
  H  H39  1  0.73687244  0.19378530  0.82103508  1
  H  H40  1  0.76604674  0.52994956  0.81913268  1
  H  H41  1  0.76476424  0.86887424  0.82099260  1
  H  H42  1  0.23781831  0.13278033  0.32758300  1
  H  H43  1  0.25127027  0.47554483  0.32216826  1
  H  H44  1  0.23823113  0.80318211  0.32372197  1
  H  H45  1  0.75176115  0.14172967  0.32648773  1
  H  H46  1  0.74928743  0.47465133  0.32180687  1
  H  H47  1  0.75427568  0.80316247  0.32214780  1
  H  H48  1  0.11264651  0.05803245  0.59046630  1
  H  H49  1  0.12258802  0.38622664  0.59690304  1
  H  H50  1  0.11671895  0.72509708  0.59575550  1
  H  H51  1  0.61413161  0.05667163  0.60440376  1
  H  H52  1  0.61995920  0.38564467  0.61022673  1
  H  H53  1  0.61847553  0.72326065  0.60117808  1
  H  H54  1  0.36918719  0.28057116  0.11948520  1
  H  H55  1  0.37900237  0.61208823  0.10720563  1
  H  H56  1  0.37688569  0.94025489  0.09416366  1
  H  H57  1  0.87600991  0.27398365  0.09634022  1
  H  H58  1  0.88842723  0.60708757  0.09447517  1
  H  H59  1  0.87160220  0.94884941  0.11989882  1
  H  H60  1  0.37327462  0.04944442  0.86988152  1
  H  H61  1  0.37291156  0.38537300  0.89018200  1
  H  H62  1  0.38099611  0.71794064  0.88283694  1
  H  H63  1  0.88267813  0.06068103  0.92068193  1
  H  H64  1  0.87121647  0.38913708  0.89196691  1
  H  H65  1  0.88310884  0.72806360  0.90511005  1
  H  H66  1  0.11923341  0.27411590  0.41384845  1
  H  H67  1  0.12894934  0.61775294  0.38651538  1
  H  H68  1  0.12414594  0.94744257  0.38857143  1
  H  H69  1  0.62713046  0.28135381  0.37768541  1
  H  H70  1  0.63249573  0.61856871  0.37413493  1
  H  H71  1  0.61591580  0.94586511  0.39801738  1
  H  H72  1  0.36712354  0.22099920  0.60264020  1
  H  H73  1  0.36833654  0.55561190  0.60579748  1
  H  H74  1  0.37687610  0.88174432  0.61912371  1
  H  H75  1  0.87112146  0.21452783  0.62308412  1
  H  H76  1  0.86404652  0.56030298  0.59298133  1
  H  H77  1  0.87565571  0.88629967  0.61728887  1
  H  H78  1  0.13288810  0.11196237  0.10874246  1
  H  H79  1  0.12863502  0.45080318  0.12937295  1
  H  H80  1  0.12194692  0.78227886  0.12219515  1
  H  H81  1  0.63117658  0.10900837  0.10138624  1
  H  H82  1  0.63340601  0.44093681  0.09228899  1
  H  H83  1  0.62221449  0.78199388  0.10631774  1
  H  H84  1  0.12622511  0.21734949  0.88947281  1
  H  H85  1  0.11977369  0.55602872  0.89349005  1
  H  H86  1  0.12899643  0.89409731  0.89870503  1
  H  H87  1  0.63059801  0.22448687  0.90452772  1
  H  H88  1  0.62330894  0.54810033  0.86901897  1
  H  H89  1  0.62652364  0.88556176  0.88064085  1
  H  H90  1  0.38053791  0.11702321  0.37295541  1
  H  H91  1  0.37799775  0.44802130  0.38732319  1
  H  H92  1  0.37505193  0.78370462  0.37698583  1
  H  H93  1  0.88490742  0.11869915  0.38821008  1
  H  H94  1  0.87711919  0.44737489  0.38854910  1
  H  H95  1  0.88083130  0.77713047  0.39100111  1
  H  H96  1  0.38136363  0.27620123  0.40593101  1
  H  H97  1  0.38631832  0.61076392  0.40422918  1
  H  H98  1  0.36757665  0.94683490  0.39039458  1
  H  H99  1  0.87690202  0.28431994  0.37396568  1
  H  H100  1  0.87991977  0.61279505  0.39292277  1
  H  H101  1  0.87515421  0.94708077  0.39394028  1
  H  H102  1  0.12106609  0.04959361  0.86959524  1
  H  H103  1  0.11914223  0.38970340  0.89311935  1
  H  H104  1  0.12884636  0.71659957  0.87695713  1
  H  H105  1  0.61693056  0.05912074  0.90774105  1
  H  H106  1  0.62253677  0.38844828  0.88637987  1
  H  H107  1  0.63042652  0.71935069  0.88872366  1
  H  H108  1  0.12205349  0.28180173  0.12289702  1
  H  H109  1  0.13315367  0.61590000  0.12822301  1
  H  H110  1  0.11864787  0.94658179  0.09650995  1
  H  H111  1  0.61741852  0.27629841  0.10304322  1
  H  H112  1  0.62797304  0.61383568  0.11307411  1
  H  H113  1  0.62367401  0.94719156  0.11737659  1
  H  H114  1  0.36479291  0.05044138  0.61417629  1
  H  H115  1  0.37101613  0.38563381  0.61018934  1
  H  H116  1  0.37078975  0.71680949  0.62301353  1
  H  H117  1  0.86789411  0.04935007  0.62511405  1
  H  H118  1  0.87583733  0.38337338  0.61379464  1
  H  H119  1  0.87038999  0.71715977  0.61926090  1
  H  H120  1  0.13935104  0.10967709  0.41608392  1
  H  H121  1  0.12931120  0.44627277  0.39403116  1
  H  H122  1  0.12953305  0.77657450  0.40498765  1
  H  H123  1  0.63664734  0.11055501  0.40067799  1
  H  H124  1  0.62806067  0.44485848  0.39110635  1
  H  H125  1  0.63204904  0.77736901  0.39400291  1
  H  H126  1  0.37385252  0.22435280  0.90101127  1
  H  H127  1  0.36895763  0.55244808  0.88865426  1
  H  H128  1  0.37630049  0.88509561  0.87892294  1
  H  H129  1  0.87527518  0.21582243  0.87660778  1
  H  H130  1  0.86484957  0.56042833  0.90824015  1
  H  H131  1  0.87240445  0.89409043  0.90647524  1
  H  H132  1  0.38164650  0.11245070  0.10530559  1
  H  H133  1  0.37429424  0.44367090  0.09884499  1
  H  H134  1  0.36864689  0.77716407  0.09601699  1
  H  H135  1  0.87917978  0.11256954  0.11919585  1
  H  H136  1  0.87764655  0.44915865  0.12820528  1
  H  H137  1  0.87030140  0.78220354  0.11216943  1
  H  H138  1  0.11837301  0.21392446  0.61600916  1
  H  H139  1  0.12002919  0.55222970  0.61448972  1
  H  H140  1  0.13146757  0.89244879  0.59278588  1
  H  H141  1  0.62691666  0.22528154  0.59071757  1
  H  H142  1  0.61879876  0.55318796  0.61930460  1
  H  H143  1  0.62807145  0.88957678  0.60070419  1
  H  H144  1  0.58908241  0.58457893  1.00065086  1
  H  H145  1  0.92879206  0.91376900  0.50002273  1
  H  H146  1  0.67752516  0.41069646  0.49914889  1
  H  H147  1  0.81642315  0.76991294  0.00485016  1
  H  H148  1  0.35756896  0.75154276  0.49231818  1
  H  H149  1  0.45686836  0.58227943  0.50967013  1
  H  H150  1  0.16538500  0.24771957  0.99494503  1
  H  H151  1  0.41126904  0.91718993  0.49513920  1
  H  H152  1  0.14608679  0.75274523  0.01353285  1
  H  H153  1  0.85287170  0.08598374  0.49570781  1
  H  H154  1  0.41896237  0.41875445  0.50272483  1
  H  H155  1  0.42137045  0.74071259  0.99685707  1
  H  H156  1  0.71259540  0.41547955  -0.00940358  1
  H  H157  1  0.19761230  0.92339658  1.00296327  1
  H  H158  1  0.94622226  0.24118906  -0.00466292  1
  H  H159  1  0.30389450  0.41818981  -0.00727636  1
  H  H160  1  0.70839226  0.25094062  1.00377913  1
  H  H161  1  0.86053082  0.24852907  0.50746003  1
  H  H162  1  0.91932562  0.41637257  0.99684843  1
  H  H163  1  0.55368644  0.75204001  0.49375007  1
  H  H164  1  0.83397149  0.74836085  0.49492698  1
  H  H165  1  0.58073959  0.73072894  1.00255966  1
  H  H166  1  0.29862178  0.75236926  -0.01037736  1
  H  H167  1  0.42368157  0.40999673  1.00169718  1
  H  H168  1  0.04893823  0.91933157  -0.00532759  1
  H  H169  1  0.55874157  0.08851888  0.49554392  1
  H  H170  1  0.78015676  0.58271448  1.00507887  1
  H  H171  1  0.95760116  0.75517877  1.00826530  1
  H  H172  1  0.11818128  0.58392923  0.01540112  1
  H  H173  1  0.45823955  0.24872037  0.50498455  1
  H  H174  1  0.09121710  0.58658364  0.49871240  1
  H  H175  1  0.59519284  0.91560158  0.00907133  1
  H  H176  1  0.96310068  0.58505695  -0.00495307  1
  H  H177  1  0.05679737  0.41511957  0.49607120  1
  H  H178  1  0.32524251  0.58418023  0.99359228  1
  H  H179  1  0.38525864  0.08631471  0.49551569  1
  H  H180  1  0.30833605  0.24861021  0.49286695  1
  H  H181  1  0.64093807  0.58424905  0.50911284  1
  H  H182  1  0.69702563  0.07843645  -0.00358345  1
  H  H183  1  0.55717457  0.24771005  -0.00612061  1
  H  H184  1  0.53864055  0.08977893  1.00853379  1
  H  H185  1  0.38477513  0.07773923  0.98009871  1
  H  H186  1  0.14493538  0.42130272  0.01540601  1
  H  H187  1  0.69414224  0.91886096  0.49999355  1
  H  H188  1  0.68829851  0.77488592  0.00088973  1
  H  H189  1  0.12164971  0.07813962  -0.01410039  1
  H  H190  1  0.83505292  0.41712079  0.49294280  1
  H  H191  1  0.57637044  0.40901068  0.99460522  1
  Pb  Pb192  1  0.24863105  0.04768184  0.74240187  1
  Pb  Pb193  1  0.24672715  0.37923774  0.75111643  1
  Pb  Pb194  1  0.25207047  0.71748375  0.74855857  1
  Pb  Pb195  1  0.75171977  0.04975331  0.75784189  1
  Pb  Pb196  1  0.74979838  0.38136834  0.74663539  1
  Pb  Pb197  1  0.75326997  0.71737878  0.75559409  1
  Pb  Pb198  1  0.24801011  0.28291243  0.25888514  1
  Pb  Pb199  1  0.25427512  0.62048738  0.24912155  1
  Pb  Pb200  1  0.25143079  0.95245999  0.24281540  1
  Pb  Pb201  1  0.75262668  0.28624043  0.23699522  1
  Pb  Pb202  1  0.75465804  0.61777787  0.23997552  1
  Pb  Pb203  1  0.75080065  0.95387160  0.25961228  1
  Pb  Pb204  1  -0.00010237  0.21265241  0.75420618  1
  Pb  Pb205  1  0.00131323  0.55046307  0.75301444  1
  Pb  Pb206  1  0.00344058  0.88529335  0.75409906  1
  Pb  Pb207  1  0.49926261  0.21446259  0.74779548  1
  Pb  Pb208  1  0.49516162  0.54662883  0.74980461  1
  Pb  Pb209  1  0.50344796  0.88352688  0.74833320  1
  Pb  Pb210  1  0.00318363  0.11936833  0.25328874  1
  Pb  Pb211  1  0.00421168  0.45226993  0.25675143  1
  Pb  Pb212  1  0.00108576  0.78726782  0.25083442  1
  Pb  Pb213  1  0.50452847  0.11892518  0.24630791  1
  Pb  Pb214  1  0.49903634  0.44932747  0.24068728  1
  Pb  Pb215  1  0.50299714  0.78605026  0.24400759  1
  C  C216  1  -0.00346703  0.04501762  0.63006668  1
  C  C217  1  0.00241902  0.37473970  0.62829472  1
  C  C218  1  -0.00157116  0.71086022  0.63139384  1
  C  C219  1  0.49197110  0.04544815  0.62984095  1
  C  C220  1  0.49542819  0.37669502  0.63322632  1
  C  C221  1  0.49950150  0.71191864  0.63291997  1
  C  C222  1  -0.00583161  0.28784165  0.13177316  1
  C  C223  1  0.00499825  0.62168085  0.13254651  1
  C  C224  1  -0.00079927  0.95911142  0.12935918  1
  C  C225  1  0.49680415  0.28573508  0.13236535  1
  C  C226  1  0.50358169  0.61973121  0.13162698  1
  C  C227  1  0.49644586  0.95339229  0.12746951  1
  C  C228  1  -0.00555880  0.04810747  0.87515568  1
  C  C229  1  -0.00487123  0.37999461  0.86902781  1
  C  C230  1  0.00068450  0.71376448  0.86862231  1
  C  C231  1  0.50137261  0.04409410  0.86833661  1
  C  C232  1  0.49766373  0.37743436  0.86640721  1
  C  C233  1  0.50675780  0.71220830  0.86426146  1
  C  C234  1  0.00474387  0.28587619  0.37390505  1
  C  C235  1  0.00386173  0.62315489  0.36896632  1
  C  C236  1  -0.00138869  0.95583696  0.36800614  1
  C  C237  1  0.49878045  0.28928379  0.36908312  1
  C  C238  1  0.50359972  0.62160229  0.36906570  1
  C  C239  1  0.49284420  0.95599039  0.37076324  1
  C  C240  1  0.24599105  0.21026273  0.63057244  1
  C  C241  1  0.24604407  0.54381946  0.63436758  1
  C  C242  1  0.24923244  0.87711300  0.62784902  1
  C  C243  1  0.74437429  0.21242128  0.62697490  1
  C  C244  1  0.74601977  0.54748978  0.62958462  1
  C  C245  1  0.74854296  0.87702248  0.63201637  1
  C  C246  1  0.25767997  0.12219921  0.12938625  1
  C  C247  1  0.25633196  0.45398189  0.13467189  1
  C  C248  1  0.24963845  0.78577572  0.13166126  1
  C  C249  1  0.75163806  0.11938751  0.13348026  1
  C  C250  1  0.74907420  0.45226213  0.13271324  1
  C  C251  1  0.74538076  0.79449812  0.13005080  1
  C  C252  1  0.25229702  0.21116835  0.87187394  1
  C  C253  1  0.24367585  0.54645746  0.86810489  1
  C  C254  1  0.24863286  0.88054130  0.86573433  1
  C  C255  1  0.74731429  0.21035200  0.86748204  1
  C  C256  1  0.75166380  0.54547234  0.86539386  1
  C  C257  1  0.75467323  0.88204696  0.86881405  1
  C  C258  1  0.25337339  0.11932753  0.37439480  1
  C  C259  1  0.25254042  0.45740135  0.36842438  1
  C  C260  1  0.24848102  0.78802519  0.37068559  1
  C  C261  1  0.75824461  0.12420264  0.37295072  1
  C  C262  1  0.75205848  0.45688318  0.36855968  1
  C  C263  1  0.75609224  0.78669658  0.36930713  1
  C  C264  1  0.54387538  0.72962985  0.96102885  1
  C  C265  1  0.52254549  0.07586413  0.53538888  1
  C  C266  1  0.51313639  0.07638750  0.96415572  1
  C  C267  1  0.52356100  0.25928002  0.03543107  1
  C  C268  1  0.73879904  0.42587162  0.03568481  1
  C  C269  1  0.47175671  0.91995591  0.03234184  1
  C  C270  1  0.29393696  0.09074022  0.03730573  1
  C  C271  1  0.98921103  0.07479603  0.97351385  1
  C  C272  1  0.23170695  0.91090938  0.53353970  1
  C  C273  1  0.29437649  0.42533261  0.45858371  1
  C  C274  1  0.52126484  0.74040185  0.53574874  1
  C  C275  1  0.06799478  0.07111231  0.95758092  1
  C  C276  1  0.96581749  0.92552947  0.46046895  1
  C  C277  1  0.27057560  0.76058178  0.03435660  1
  C  C278  1  0.80713392  0.23906012  0.54023096  1
  C  C279  1  0.72869820  0.09020794  0.03886026  1
  C  C280  1  0.06851741  0.59257023  0.04841423  1
  C  C281  1  0.27484520  0.42838646  0.03664858  1
  C  C282  1  0.93625511  0.26267303  0.45806118  1
  C  C283  1  0.45891323  0.40709602  0.54145496  1
  C  C284  1  0.72812582  0.09050094  0.46687964  1
  C  C285  1  0.71477959  0.42402000  0.46028993  1
  C  C286  1  0.44244586  0.26160693  0.04251695  1
  C  C287  1  0.19325429  0.23453755  0.54055533  1
  C  C288  1  0.44059839  0.07342983  0.53980518  1
  C  C289  1  0.98548823  0.74287968  0.96439653  1
  C  C290  1  0.04858132  0.59589947  0.46173308  1
  C  C291  1  0.96703742  0.59394626  0.46235404  1
  C  C292  1  0.32258026  0.09574529  0.45861455  1
  C  C293  1  0.45923689  0.40349409  0.95997107  1
  C  C294  1  0.54671973  0.59432945  0.03785377  1
  C  C295  1  0.22819024  0.90958474  0.96075026  1
  C  C296  1  0.30758399  0.76116789  0.45873083  1
  C  C297  1  0.72644887  0.24210329  0.53076360  1
  C  C298  1  0.56749750  0.59793377  0.45545838  1
  C  C299  1  0.22692096  0.75929428  0.46676145  1
  C  C300  1  0.94200674  0.92495029  0.04342163  1
  C  C301  1  0.48716393  0.59435172  0.46677335  1
  C  C302  1  0.20548889  0.57439246  0.96240681  1
  C  C303  1  0.46517726  0.59395756  0.03751265  1
  C  C304  1  0.93617464  0.07297469  0.54524656  1
  C  C305  1  0.46196503  0.73168507  0.95854144  1
  C  C306  1  0.97662444  0.25536502  0.03751077  1
  C  C307  1  0.19403317  0.43026782  0.04749748  1
  C  C308  1  0.27423674  0.23740753  0.53419109  1
  C  C309  1  0.24305882  0.09312760  0.47216985  1
  C  C310  1  0.44088156  0.73732482  0.54529993  1
  C  C311  1  0.01556531  0.25926863  0.47106797  1
  N  N312  1  0.27740508  0.57621736  0.54120660  1
  N  N313  1  0.20665707  0.24054780  0.95993590  1
  N  N314  1  0.30682287  0.90544973  0.95466219  1
  N  N315  1  0.79478527  0.75714782  0.45907970  1
  N  N316  1  0.80660070  0.09433899  0.46141087  1
  N  N317  1  0.03605577  0.40887409  0.96154201  1
  N  N318  1  0.79445219  0.42535707  0.45808940  1
  N  N319  1  0.21676981  0.42392802  0.46158823  1
  N  N320  1  0.53843329  0.40710574  0.54098703  1
  N  N321  1  0.04500970  0.92555719  0.45930079  1
  N  N322  1  0.76754170  0.57789464  0.53390957  1
  N  N323  1  0.20137521  0.57476819  0.54397916  1
  N  N324  1  0.21605919  0.09009427  0.03727400  1
  N  N325  1  0.69801560  0.90226215  0.95856460  1
  N  N326  1  0.01862244  0.74070226  0.53553931  1
  N  N327  1  0.94294171  0.73776026  0.54313736  1
  N  N328  1  0.70708732  0.75497096  0.04149973  1
  N  N329  1  0.28455627  0.57394726  0.95950601  1
  N  N330  1  0.02649473  0.40780753  0.53680009  1
  N  N331  1  0.52981213  0.92494457  0.46347356  1
  N  N332  1  0.01227056  0.07685001  0.53321717  1
  N  N333  1  0.81656633  0.42792737  0.04751281  1
  N  N334  1  0.05523434  0.25879961  0.04527307  1
  N  N335  1  0.73227665  0.24414944  0.96001482  1
  N  N336  1  0.71642756  0.75775494  0.46212364  1
  N  N337  1  0.94846474  0.40639792  0.54092815  1
  N  N338  1  0.48258319  0.25594302  0.46157714  1
  N  N339  1  0.80750958  0.09123179  0.04483256  1
  N  N340  1  0.19228417  0.76073094  0.04495818  1
  N  N341  1  0.28469120  0.24326530  0.96522221  1
  N  N342  1  0.75885528  0.57555246  0.96001397  1
  N  N343  1  0.79037321  0.75313645  0.04450711  1
  N  N344  1  0.45158882  0.92537800  0.45953303  1
  N  N345  1  0.72424700  0.90992877  0.54051037  1
  N  N346  1  0.30847308  0.90708038  0.54098371  1
  N  N347  1  0.80958050  0.24098135  0.95170453  1
  N  N348  1  0.80223547  0.90802213  0.54445617  1
  N  N349  1  0.02046002  0.92533357  0.03654319  1
  N  N350  1  0.95766253  0.40894331  0.95972578  1
  N  N351  1  0.69051278  0.57521203  0.54369586  1
  N  N352  1  0.55982260  0.25776892  0.45338742  1
  N  N353  1  0.53869718  0.40561119  0.95731480  1
  N  N354  1  0.68271088  0.57089089  0.94831831  1
  N  N355  1  0.43547367  0.07304021  0.95027003  1
  N  N356  1  0.98997983  0.58967990  0.03803357  1
  N  N357  1  0.06359226  0.73944903  0.95499408  1
  N  N358  1  0.77374390  0.90473884  0.96703232  1
  N  N359  1  0.54996506  0.92391126  0.04070631  1
  N  N360  1  0.04976184  0.05861255  0.58707533  1
  N  N361  1  0.06078429  0.38656919  0.58867344  1
  N  N362  1  0.05437171  0.72415664  0.58987388  1
  N  N363  1  0.55329933  0.05833967  0.59245781  1
  N  N364  1  0.55930736  0.38810191  0.59856130  1
  N  N365  1  0.55700182  0.72417875  0.59188709  1
  N  N366  1  0.42687621  0.27723477  0.10099943  1
  N  N367  1  0.43964564  0.60919179  0.09422280  1
  N  N368  1  0.43827802  0.93828996  0.08588163  1
  N  N369  1  0.93790475  0.27304571  0.08999521  1
  N  N370  1  0.95096056  0.61113580  0.08886422  1
  N  N371  1  0.92876373  0.94493048  0.10117394  1
  N  N372  1  0.42900819  0.05162619  0.89184752  1
  N  N373  1  0.43325336  0.38762591  0.90310592  1
  N  N374  1  0.44025354  0.72083281  0.89817355  1
  N  N375  1  0.94467652  0.06092704  0.92393776  1
  N  N376  1  0.93161459  0.39026139  0.90413826  1
  N  N377  1  0.94541208  0.72721259  0.91172922  1
  N  N378  1  0.05736789  0.27335832  0.41983149  1
  N  N379  1  0.07025929  0.61390942  0.40228947  1
  N  N380  1  0.06366393  0.94476258  0.40153820  1
  N  N381  1  0.56922002  0.27684392  0.39525840  1
  N  N382  1  0.57678701  0.61407249  0.39562365  1
  N  N383  1  0.55465821  0.94320378  0.40757311  1
  N  N384  1  0.30625074  0.22210441  0.59155628  1
  N  N385  1  0.30665546  0.55708228  0.59703257  1
  N  N386  1  0.31939931  0.88569255  0.60093486  1
  N  N387  1  0.81621478  0.22058396  0.60138647  1
  N  N388  1  0.80190867  0.56077624  0.58752448  1
  N  N389  1  0.81659718  0.88928758  0.60220131  1
  N  N390  1  0.19345623  0.11011866  0.09590503  1
  N  N391  1  0.18426307  0.44603339  0.10832901  1
  N  N392  1  0.17951542  0.77576136  0.10493105  1
  N  N393  1  0.69272571  0.10729947  0.09283812  1
  N  N394  1  0.69594807  0.44050236  0.08753234  1
  N  N395  1  0.68274607  0.78273603  0.09439990  1
  N  N396  1  0.18576812  0.22026684  0.90383186  1
  N  N397  1  0.17996946  0.55800992  0.90553451  1
  N  N398  1  0.19073094  0.89420807  0.90669254  1
  N  N399  1  0.69280450  0.22284942  0.91017255  1
  N  N400  1  0.67880704  0.55422704  0.88898400  1
  N  N401  1  0.68496658  0.88801954  0.89773643  1
  N  N402  1  0.32740409  0.11182310  0.39712732  1
  N  N403  1  0.31877617  0.44503498  0.40217419  1
  N  N404  1  0.31946430  0.77902351  0.39770799  1
  N  N405  1  0.82575539  0.11537376  0.40366529  1
  N  N406  1  0.81717875  0.44714978  0.40212125  1
  N  N407  1  0.82036225  0.77602529  0.40356671  1
  N  N408  1  0.44371078  0.27717071  0.41158861  1
  N  N409  1  0.44817772  0.60940655  0.41172965  1
  N  N410  1  0.42776091  0.94516927  0.40403792  1
  N  N411  1  0.93039073  0.27881353  0.39804672  1
  N  N412  1  0.94020371  0.61021590  0.40647931  1
  N  N413  1  0.93562187  0.94363914  0.40466076  1
  N  N414  1  0.06937373  0.05483605  0.89558354  1
  N  N415  1  0.05853133  0.39217597  0.90445671  1
  N  N416  1  0.07151318  0.72163648  0.89516167  1
  N  N417  1  0.55441279  0.05912301  0.91314812  1
  N  N418  1  0.56250425  0.38660474  0.90049771  1
  N  N419  1  0.57054593  0.71800014  0.90186772  1
  N  N420  1  0.06427443  0.27898761  0.10442176  1
  N  N421  1  0.07749638  0.61088443  0.10750869  1
  N  N422  1  0.05682324  0.94853198  0.08857311  1
  N  N423  1  0.55647065  0.27462159  0.09269270  1
  N  N424  1  0.56947770  0.61053640  0.09770482  1
  N  N425  1  0.56582142  0.94542807  0.09909471  1
  N  N426  1  0.42333488  0.05501483  0.59824286  1
  N  N427  1  0.43125590  0.38902151  0.59792519  1
  N  N428  1  0.42781583  0.72054983  0.60408335  1
  N  N429  1  0.92383100  0.05427303  0.60467344  1
  N  N430  1  0.93450614  0.38739739  0.59862836  1
  N  N431  1  0.92903558  0.71893844  0.60264501  1
  N  N432  1  0.20141921  0.10752428  0.42116938  1
  N  N433  1  0.19062949  0.44431202  0.40407270  1
  N  N434  1  0.19112397  0.77534695  0.41379913  1
  N  N435  1  0.69778322  0.10889935  0.41209119  1
  N  N436  1  0.68822088  0.44303768  0.40450270  1
  N  N437  1  0.69309559  0.77522168  0.40542666  1
  N  N438  1  0.31256587  0.22570037  0.90976072  1
  N  N439  1  0.30860780  0.55688565  0.90139431  1
  N  N440  1  0.31768136  0.88768977  0.89542508  1
  N  N441  1  0.81801937  0.22188633  0.89355870  1
  N  N442  1  0.80232300  0.55763989  0.91087502  1
  N  N443  1  0.81015996  0.89283715  0.91147859  1
  N  N444  1  0.32138719  0.10958702  0.09338770  1
  N  N445  1  0.31260240  0.44326688  0.09139320  1
  N  N446  1  0.30677196  0.77564225  0.08828911  1
  N  N447  1  0.82003937  0.10938453  0.10371556  1
  N  N448  1  0.82099245  0.44406261  0.10826317  1
  N  N449  1  0.81039586  0.78088647  0.09798275  1
  N  N450  1  0.17664074  0.21834779  0.59874372  1
  N  N451  1  0.18028376  0.55446160  0.60157893  1
  N  N452  1  0.19318708  0.89284579  0.58562108  1
  N  N453  1  0.68860535  0.22607826  0.58298678  1
  N  N454  1  0.67637995  0.55640841  0.60171211  1
  N  N455  1  0.68996346  0.88904268  0.59256954  1
  Cl  Cl456  1  0.23536686  0.05367703  0.60827513  1
  Cl  Cl457  1  0.24396989  0.38390084  0.61912175  1
  Cl  Cl458  1  0.23893429  0.72564909  0.61650727  1
  Cl  Cl459  1  0.73996116  0.05445325  0.62365060  1
  Cl  Cl460  1  0.74858219  0.38893080  0.61179480  1
  Cl  Cl461  1  0.74522215  0.72331844  0.62246120  1
  Cl  Cl462  1  0.24579849  0.27664696  0.12673614  1
  Cl  Cl463  1  0.25990928  0.61219749  0.11147135  1
  Cl  Cl464  1  0.24550094  0.94288851  0.10706343  1
  Cl  Cl465  1  0.74424427  0.27378634  0.09960736  1
  Cl  Cl466  1  0.76758929  0.60304384  0.09772982  1
  Cl  Cl467  1  0.74689648  0.94422961  0.12830917  1
  Cl  Cl468  1  0.25138044  0.05567007  0.87369398  1
  Cl  Cl469  1  0.24643403  0.38944597  0.88687559  1
  Cl  Cl470  1  0.25688948  0.71872466  0.88461937  1
  Cl  Cl471  1  0.74366052  0.05951738  0.89393130  1
  Cl  Cl472  1  0.74666554  0.39122332  0.88530579  1
  Cl  Cl473  1  0.75916496  0.73195520  0.89780415  1
  Cl  Cl474  1  0.25703994  0.27701575  0.39423231  1
  Cl  Cl475  1  0.25988777  0.61472978  0.37701655  1
  Cl  Cl476  1  0.24752260  0.94507476  0.37588272  1
  Cl  Cl477  1  0.74877055  0.28316578  0.36736692  1
  Cl  Cl478  1  0.75877545  0.61593007  0.37035534  1
  Cl  Cl479  1  0.74011312  0.94623803  0.39685436  1
  Cl  Cl480  1  -0.00206600  0.21473345  0.62737130  1
  Cl  Cl481  1  -0.00781074  0.55452077  0.61901178  1
  Cl  Cl482  1  0.00393247  0.89113923  0.62139660  1
  Cl  Cl483  1  0.49515554  0.22763402  0.60802974  1
  Cl  Cl484  1  0.49141377  0.55488290  0.61473233  1
  Cl  Cl485  1  0.50536479  0.88928913  0.61536356  1
  Cl  Cl486  1  0.00664849  0.11027155  0.11918065  1
  Cl  Cl487  1  0.00137261  0.44806470  0.12540417  1
  Cl  Cl488  1  -0.00640966  0.78238067  0.11313385  1
  Cl  Cl489  1  0.50594470  0.10947423  0.10927541  1
  Cl  Cl490  1  0.50705323  0.43985078  0.10094527  1
  Cl  Cl491  1  0.49597555  0.77822646  0.10760859  1
  Cl  Cl492  1  0.00245327  0.21969971  0.88951180  1
  Cl  Cl493  1  -0.01258556  0.56163103  0.89811352  1
  Cl  Cl494  1  0.00138108  0.89547450  0.89756902  1
  Cl  Cl495  1  0.50569559  0.22273824  0.88604169  1
  Cl  Cl496  1  0.49212198  0.54855576  0.88132006  1
  Cl  Cl497  1  0.50298812  0.89098632  0.88274404  1
  Cl  Cl498  1  0.01038991  0.11601787  0.38402484  1
  Cl  Cl499  1  0.00500988  0.44322363  0.39363854  1
  Cl  Cl500  1  0.00411025  0.77685479  0.38151060  1
  Cl  Cl501  1  0.51622742  0.11177588  0.37780374  1
  Cl  Cl502  1  0.50168353  0.44284063  0.37326980  1
  Cl  Cl503  1  0.51048853  0.77882163  0.37649500  1
  Cl  Cl504  1  0.36056285  0.14770325  0.75098319  1
  Cl  Cl505  1  0.35554113  0.48187597  0.75373570  1
  Cl  Cl506  1  0.35748611  0.81210166  0.74756196  1
  Cl  Cl507  1  0.85659540  0.14913490  0.75094936  1
  Cl  Cl508  1  0.85189171  0.48417046  0.74756758  1
  Cl  Cl509  1  0.85471313  0.81578938  0.74696500  1
  Cl  Cl510  1  0.14619888  0.18200053  0.24725475  1
  Cl  Cl511  1  0.13878103  0.52164797  0.24429546  1
  Cl  Cl512  1  0.14133935  0.85026482  0.24430092  1
  Cl  Cl513  1  0.64346685  0.18439862  0.24872683  1
  Cl  Cl514  1  0.64536051  0.51912568  0.25103679  1
  Cl  Cl515  1  0.64145071  0.85165828  0.25140586  1
  Cl  Cl516  1  0.14012263  0.14981244  0.75607589  1
  Cl  Cl517  1  0.13457820  0.48049962  0.75521953  1
  Cl  Cl518  1  0.13517714  0.81452053  0.75477707  1
  Cl  Cl519  1  0.63667470  0.14854175  0.74642227  1
  Cl  Cl520  1  0.63053434  0.47769700  0.75220880  1
  Cl  Cl521  1  0.63459807  0.81345648  0.76096280  1
  Cl  Cl522  1  0.36559295  0.18505206  0.25289954  1
  Cl  Cl523  1  0.36187442  0.51700987  0.25010365  1
  Cl  Cl524  1  0.36070256  0.84923172  0.25138135  1
  Cl  Cl525  1  0.86433227  0.18603557  0.24770196  1
  Cl  Cl526  1  0.86803552  0.51888187  0.24569003  1
  Cl  Cl527  1  0.85978278  0.85142830  0.25001822  1
  Cl  Cl528  1  0.10568510  0.31577328  0.75354786  1
  Cl  Cl529  1  0.10875250  0.64348364  0.76157803  1
  Cl  Cl530  1  0.10748506  0.98052346  0.75986411  1
  Cl  Cl531  1  0.61189721  0.31446221  0.75062831  1
  Cl  Cl532  1  0.60873253  0.64444149  0.75056225  1
  Cl  Cl533  1  0.60230651  0.98182182  0.74823060  1
  Cl  Cl534  1  0.39182115  0.01839671  0.24884422  1
  Cl  Cl535  1  0.39347486  0.35366681  0.24158308  1
  Cl  Cl536  1  0.39677916  0.68201478  0.24703391  1
  Cl  Cl537  1  0.88856467  0.01998081  0.24804227  1
  Cl  Cl538  1  0.88910346  0.35366801  0.25336763  1
  Cl  Cl539  1  0.89178239  0.68558518  0.24522166  1
  Cl  Cl540  1  0.38909689  0.31613635  0.75279754  1
  Cl  Cl541  1  0.38601266  0.64850488  0.74825233  1
  Cl  Cl542  1  0.38211436  0.97822399  0.75430175  1
  Cl  Cl543  1  0.88901511  0.31532327  0.75125833  1
  Cl  Cl544  1  0.88852675  0.65085871  0.75086955  1
  Cl  Cl545  1  0.88786172  0.98385299  0.74782323  1
  Cl  Cl546  1  0.10923785  0.01507798  0.25027944  1
  Cl  Cl547  1  0.11041459  0.34862895  0.24887494  1
  Cl  Cl548  1  0.11454488  0.68718767  0.24175725  1
  Cl  Cl549  1  0.60971818  0.01495043  0.24627214  1
  Cl  Cl550  1  0.61345862  0.35054899  0.24972388  1
  Cl  Cl551  1  0.61856839  0.68649078  0.24220477  1
