# generated using pymatgen
data_H8PbC4(N3Cl2)2
_symmetry_space_group_name_H-M   'P 1'
_cell_length_a   16.62539257
_cell_length_b   22.50480236
_cell_length_c   21.59010201
_cell_angle_alpha   90.00058175
_cell_angle_beta   90.00750026
_cell_angle_gamma   89.99940671
_symmetry_Int_Tables_number   1
_chemical_formula_structural   H8PbC4(N3Cl2)2
_chemical_formula_sum   'H192 Pb24 C96 N144 Cl96'
_cell_volume   8077.96194492
_cell_formula_units_Z   24
loop_
 _symmetry_equiv_pos_site_id
 _symmetry_equiv_pos_as_xyz
  1  'x, y, z'
loop_
 _atom_site_type_symbol
 _atom_site_label
 _atom_site_symmetry_multiplicity
 _atom_site_fract_x
 _atom_site_fract_y
 _atom_site_fract_z
 _atom_site_occupancy
  H  H0  1  0.00295470  0.02980933  0.68056340  1
  H  H1  1  0.00193722  0.36525997  0.68005846  1
  H  H2  1  -0.00150423  0.69854081  0.68329288  1
  H  H3  1  0.49367691  0.03262262  0.68088539  1
  H  H4  1  0.50460542  0.36459237  0.67680617  1
  H  H5  1  0.50093011  0.69760259  0.67818544  1
  H  H6  1  -0.00142932  0.30401432  0.17717931  1
  H  H7  1  0.00397621  0.63576810  0.18292843  1
  H  H8  1  -0.00389752  0.96926763  0.17873493  1
  H  H9  1  0.49612277  0.30163878  0.17870086  1
  H  H10  1  0.50760743  0.63293080  0.17829456  1
  H  H11  1  0.49530187  0.97007934  0.17977427  1
  H  H12  1  0.00753630  0.03215390  0.82350127  1
  H  H13  1  -0.01127164  0.36619657  0.82192473  1
  H  H14  1  -0.00839036  0.69760998  0.81799785  1
  H  H15  1  0.49203300  0.03071085  0.82333684  1
  H  H16  1  0.50429889  0.36475976  0.81848008  1
  H  H17  1  0.50570569  0.70037858  0.81874603  1
  H  H18  1  0.00803402  0.29961708  0.31861417  1
  H  H19  1  0.00083767  0.63534473  0.31964229  1
  H  H20  1  0.00617884  0.96932837  0.32005537  1
  H  H21  1  0.48901524  0.30070696  0.31753382  1
  H  H22  1  0.48992407  0.63486552  0.32477642  1
  H  H23  1  0.50481558  0.96733712  0.31783909  1
  H  H24  1  0.24909966  0.19925559  0.68408505  1
  H  H25  1  0.25495044  0.53339369  0.67865635  1
  H  H26  1  0.25616295  0.86425622  0.67912853  1
  H  H27  1  0.74980476  0.19748508  0.68059203  1
  H  H28  1  0.75176599  0.53043198  0.68018280  1
  H  H29  1  0.74682191  0.86496751  0.68202940  1
  H  H30  1  0.25172105  0.13414431  0.18027668  1
  H  H31  1  0.24964663  0.46768330  0.18147594  1
  H  H32  1  0.25889163  0.80240743  0.18197035  1
  H  H33  1  0.74484919  0.13520064  0.17883270  1
  H  H34  1  0.74591053  0.46646812  0.18002667  1
  H  H35  1  0.74441266  0.80165675  0.18081795  1
  H  H36  1  0.25385449  0.19752771  0.82075613  1
  H  H37  1  0.25044784  0.53153096  0.82094441  1
  H  H38  1  0.24739490  0.86490502  0.82051772  1
  H  H39  1  0.73896909  0.19880243  0.82298088  1
  H  H40  1  0.74823130  0.53094534  0.81686327  1
  H  H41  1  0.75652689  0.86480730  0.82041488  1
  H  H42  1  0.25892879  0.13510124  0.31694757  1
  H  H43  1  0.24589399  0.46907282  0.32182020  1
  H  H44  1  0.24250198  0.80407136  0.32120904  1
  H  H45  1  0.74852081  0.13727094  0.31961369  1
  H  H46  1  0.75012636  0.46983661  0.32149870  1
  H  H47  1  0.75972563  0.80195278  0.31764938  1
  H  H48  1  0.12565520  0.05180789  0.60875551  1
  H  H49  1  0.11527585  0.39094641  0.59924823  1
  H  H50  1  0.12333740  0.72056721  0.61451603  1
  H  H51  1  0.62956453  0.05210055  0.62060087  1
  H  H52  1  0.61410274  0.39348277  0.59596462  1
  H  H53  1  0.62446655  0.72032350  0.60722917  1
  H  H54  1  0.37418258  0.27771886  0.10652391  1
  H  H55  1  0.36868414  0.61691290  0.12190572  1
  H  H56  1  0.37846934  0.94402284  0.10404706  1
  H  H57  1  0.87330102  0.27984143  0.10664215  1
  H  H58  1  0.87455910  0.61325979  0.11512669  1
  H  H59  1  0.88274758  0.94250563  0.09962338  1
  H  H60  1  0.38381234  0.05878281  0.90489487  1
  H  H61  1  0.36887774  0.38296665  0.87641634  1
  H  H62  1  0.37650427  0.71910217  0.88538950  1
  H  H63  1  0.87712305  0.05410511  0.88840409  1
  H  H64  1  0.87489470  0.38902335  0.89886951  1
  H  H65  1  0.87963526  0.72388550  0.89824152  1
  H  H66  1  0.11991043  0.27932657  0.39794928  1
  H  H67  1  0.12952440  0.61284890  0.38571436  1
  H  H68  1  0.12237705  0.94331256  0.39665433  1
  H  H69  1  0.62546712  0.28299603  0.37817126  1
  H  H70  1  0.62805146  0.61689178  0.37826151  1
  H  H71  1  0.62013361  0.94279539  0.39534968  1
  H  H72  1  0.37498909  0.21967949  0.61560368  1
  H  H73  1  0.37134615  0.55725111  0.60114485  1
  H  H74  1  0.37581128  0.88750447  0.60444640  1
  H  H75  1  0.87440724  0.22114021  0.60835746  1
  H  H76  1  0.87101674  0.55368128  0.60657725  1
  H  H77  1  0.87897686  0.88556604  0.62098547  1
  H  H78  1  0.11845742  0.11470629  0.11841472  1
  H  H79  1  0.13055667  0.44599345  0.10810643  1
  H  H80  1  0.12258824  0.78298865  0.12140053  1
  H  H81  1  0.61934173  0.11373245  0.10961632  1
  H  H82  1  0.63201566  0.44225731  0.09993654  1
  H  H83  1  0.62520070  0.77859063  0.10578801  1
  H  H84  1  0.12420125  0.21889446  0.88569709  1
  H  H85  1  0.13478321  0.55398114  0.89996936  1
  H  H86  1  0.12358598  0.88971715  0.89255549  1
  H  H87  1  0.62967966  0.22505711  0.90485150  1
  H  H88  1  0.63195318  0.55519180  0.89262682  1
  H  H89  1  0.62074890  0.88458618  0.87841058  1
  H  H90  1  0.36965323  0.10948366  0.39754253  1
  H  H91  1  0.38509830  0.45145966  0.37714502  1
  H  H92  1  0.37726204  0.77989608  0.38070860  1
  H  H93  1  0.86996543  0.11276009  0.39428815  1
  H  H94  1  0.88267277  0.44592513  0.38299741  1
  H  H95  1  0.87175301  0.77777120  0.39849396  1
  H  H96  1  0.37770166  0.27740005  0.39887409  1
  H  H97  1  0.38259863  0.60991164  0.40625235  1
  H  H98  1  0.37135111  0.94767285  0.38259873  1
  H  H99  1  0.87220452  0.28340019  0.37784766  1
  H  H100  1  0.88070746  0.61057779  0.39443318  1
  H  H101  1  0.87398965  0.94712950  0.38343405  1
  H  H102  1  0.12568641  0.05603541  0.89895755  1
  H  H103  1  0.12217952  0.38372110  0.88127681  1
  H  H104  1  0.12722606  0.71831484  0.87896131  1
  H  H105  1  0.62971762  0.04964710  0.88022437  1
  H  H106  1  0.61680322  0.38691255  0.89813650  1
  H  H107  1  0.62468987  0.72362091  0.89390833  1
  H  H108  1  0.12320403  0.28012062  0.10800923  1
  H  H109  1  0.12339487  0.61160335  0.10888038  1
  H  H110  1  0.13093802  0.94957055  0.11778935  1
  H  H111  1  0.62342911  0.27909794  0.10904078  1
  H  H112  1  0.61421064  0.60548760  0.09504967  1
  H  H113  1  0.62677588  0.94719184  0.11507487  1
  H  H114  1  0.38141177  0.05463369  0.60088740  1
  H  H115  1  0.36792206  0.38312801  0.61808368  1
  H  H116  1  0.37567004  0.72083460  0.60744677  1
  H  H117  1  0.87607581  0.05346178  0.61189859  1
  H  H118  1  0.86829215  0.38547091  0.61706805  1
  H  H119  1  0.87362662  0.71918258  0.61418181  1
  H  H120  1  0.12253892  0.11513661  0.37723990  1
  H  H121  1  0.13896059  0.44140876  0.40528089  1
  H  H122  1  0.13024696  0.77818351  0.40262530  1
  H  H123  1  0.62168593  0.11263328  0.38903901  1
  H  H124  1  0.63482659  0.44426927  0.39950886  1
  H  H125  1  0.62384360  0.77989174  0.37825972  1
  H  H126  1  0.37264887  0.22188570  0.89788738  1
  H  H127  1  0.38274282  0.55233269  0.88366743  1
  H  H128  1  0.37231747  0.88753574  0.88997587  1
  H  H129  1  0.87625011  0.21849040  0.88066582  1
  H  H130  1  0.88069575  0.54882066  0.87942724  1
  H  H131  1  0.86852094  0.89337036  0.90049019  1
  H  H132  1  0.36682127  0.11222439  0.10384730  1
  H  H133  1  0.37976870  0.44723549  0.11606436  1
  H  H134  1  0.36994336  0.77802108  0.10010584  1
  H  H135  1  0.86800769  0.11066358  0.10708282  1
  H  H136  1  0.87989319  0.44766144  0.11642854  1
  H  H137  1  0.87309586  0.78145921  0.11472906  1
  H  H138  1  0.12524905  0.21897382  0.61384311  1
  H  H139  1  0.12309678  0.55341441  0.61334044  1
  H  H140  1  0.12693787  0.88717668  0.61264846  1
  H  H141  1  0.62580259  0.22178174  0.60801614  1
  H  H142  1  0.62199391  0.55304535  0.61680072  1
  H  H143  1  0.63005639  0.88646523  0.60533013  1
  H  H144  1  0.94944975  0.91728122  -0.00336836  1
  H  H145  1  0.82401273  0.73374080  0.01775957  1
  H  H146  1  0.30113284  0.08156207  0.50309638  1
  H  H147  1  0.91898601  0.25290519  0.00216182  1
  H  H148  1  0.68716950  0.91218310  0.49583038  1
  H  H149  1  0.39002000  0.41184395  0.98988836  1
  H  H150  1  0.92037687  0.08264081  0.50694389  1
  H  H151  1  0.21160551  0.41659072  0.50581378  1
  H  H152  1  0.18073705  0.41741719  -0.00187248  1
  H  H153  1  0.45784004  0.07409327  1.00643530  1
  H  H154  1  0.84872366  0.91309069  0.50769901  1
  H  H155  1  0.04628484  0.41697282  0.49725319  1
  H  H156  1  0.60674021  0.08543471  0.98598885  1
  H  H157  1  0.60005086  0.08131627  0.51342620  1
  H  H158  1  0.07844433  0.74633885  0.50190404  1
  H  H159  1  0.44781254  0.25282157  0.50562297  1
  H  H160  1  0.42398569  0.76446847  0.98319483  1
  H  H161  1  0.33130410  0.24339815  0.50219574  1
  H  H162  1  0.38967055  0.58304994  0.01389335  1
  H  H163  1  0.44506963  0.08023295  0.49297215  1
  H  H164  1  0.06820547  0.58159675  0.00140742  1
  H  H165  1  0.20230957  0.75660978  0.50463832  1
  H  H166  1  0.39324356  0.41834744  0.51065429  1
  H  H167  1  0.64738890  0.91733795  0.99065821  1
  H  H168  1  0.07825292  0.08155574  0.49961981  1
  H  H169  1  0.69938671  0.41779243  0.50293552  1
  H  H170  1  0.91888026  0.74297465  0.50076927  1
  H  H171  1  0.30790356  0.08645077  -0.00678936  1
  H  H172  1  0.53811526  0.59032959  -0.00672489  1
  H  H173  1  0.91709487  0.08421298  0.99486018  1
  H  H174  1  0.55643863  0.91448167  0.50284781  1
  H  H175  1  0.05602872  0.25469507  0.50773512  1
  H  H176  1  0.81986566  0.58397268  0.49826946  1
  H  H177  1  0.80299685  0.75316560  0.50516871  1
  H  H178  1  0.80185694  0.91578580  1.00314530  1
  H  H179  1  0.68856413  0.57818247  1.00294506  1
  H  H180  1  0.56367045  0.73101377  0.99939355  1
  H  H181  1  0.94792899  0.75086972  1.00405365  1
  H  H182  1  0.54121378  0.41065804  0.49340084  1
  H  H183  1  0.16134033  0.58123000  0.50686877  1
  H  H184  1  0.55347189  0.41094903  1.00669646  1
  H  H185  1  0.84990089  0.57621019  0.99204061  1
  H  H186  1  0.08000190  0.24997178  -0.00176731  1
  H  H187  1  0.30029120  0.75129133  -0.00511014  1
  H  H188  1  0.69994419  0.41241677  -0.00094749  1
  H  H189  1  0.68684830  0.77376501  0.00070611  1
  H  H190  1  0.65260442  0.58353083  0.50493244  1
  H  H191  1  0.17175425  0.24084564  0.50038524  1
  Pb  Pb192  1  0.25440271  0.04755410  0.75061094  1
  Pb  Pb193  1  0.24767312  0.37911367  0.74308083  1
  Pb  Pb194  1  0.24986313  0.71242193  0.74684780  1
  Pb  Pb195  1  0.75147861  0.04552286  0.75090016  1
  Pb  Pb196  1  0.74361745  0.38165587  0.75144504  1
  Pb  Pb197  1  0.75396273  0.71555004  0.75663736  1
  Pb  Pb198  1  0.24663304  0.28549944  0.25462390  1
  Pb  Pb199  1  0.24705788  0.61871799  0.25453058  1
  Pb  Pb200  1  0.24964177  0.95486955  0.25017226  1
  Pb  Pb201  1  0.74957803  0.28886614  0.24399849  1
  Pb  Pb202  1  0.75088066  0.62078867  0.24616391  1
  Pb  Pb203  1  0.74466427  0.95110830  0.24634453  1
  Pb  Pb204  1  -0.00349231  0.21453528  0.75118810  1
  Pb  Pb205  1  0.00133652  0.54512211  0.75124968  1
  Pb  Pb206  1  0.00490486  0.88162349  0.75851368  1
  Pb  Pb207  1  0.50052787  0.21297946  0.75218939  1
  Pb  Pb208  1  0.49695061  0.54893716  0.75503264  1
  Pb  Pb209  1  0.49999711  0.87913359  0.74569436  1
  Pb  Pb210  1  -0.00735334  0.11802871  0.25067003  1
  Pb  Pb211  1  0.00133012  0.45441293  0.25791708  1
  Pb  Pb212  1  -0.00013965  0.78876113  0.25559109  1
  Pb  Pb213  1  0.49930369  0.12118337  0.24899281  1
  Pb  Pb214  1  0.50266133  0.45305833  0.25176861  1
  Pb  Pb215  1  0.49439983  0.78463607  0.23887810  1
  C  C216  1  0.00123906  0.04552791  0.63295676  1
  C  C217  1  -0.00473730  0.37990635  0.63242790  1
  C  C218  1  -0.00147615  0.71270280  0.63520811  1
  C  C219  1  0.50217630  0.04716862  0.63323335  1
  C  C220  1  0.49514814  0.38015207  0.62963440  1
  C  C221  1  0.50012938  0.71231337  0.63054938  1
  C  C222  1  -0.00207062  0.28790628  0.12968593  1
  C  C223  1  0.00032048  0.62036394  0.13538266  1
  C  C224  1  0.00314858  0.95487921  0.13125079  1
  C  C225  1  0.49816492  0.28610478  0.13132717  1
  C  C226  1  0.49660268  0.61865888  0.13086353  1
  C  C227  1  0.50070573  0.95398331  0.13285374  1
  C  C228  1  0.00306461  0.04752396  0.87092347  1
  C  C229  1  -0.00462255  0.38002039  0.86964219  1
  C  C230  1  -0.00035999  0.71288687  0.86522958  1
  C  C231  1  0.50208816  0.04618654  0.87051813  1
  C  C232  1  0.49629318  0.37878736  0.86628643  1
  C  C233  1  0.50233710  0.71433727  0.86693196  1
  C  C234  1  0.00017769  0.28673045  0.36652198  1
  C  C235  1  0.00357350  0.61984869  0.36700267  1
  C  C236  1  0.00047570  0.95363488  0.36714657  1
  C  C237  1  0.49757583  0.28627494  0.36502061  1
  C  C238  1  0.50058192  0.62044693  0.37185041  1
  C  C239  1  0.49857962  0.95299117  0.36552485  1
  C  C240  1  0.24984435  0.21328823  0.63592400  1
  C  C241  1  0.24934868  0.54823240  0.63106466  1
  C  C242  1  0.25278290  0.87954111  0.63177683  1
  C  C243  1  0.75002720  0.21296890  0.63304818  1
  C  C244  1  0.74817419  0.54638128  0.63276013  1
  C  C245  1  0.75217337  0.87935147  0.63416729  1
  C  C246  1  0.24583590  0.12058897  0.13240612  1
  C  C247  1  0.25290959  0.45369418  0.13353382  1
  C  C248  1  0.25039352  0.78784146  0.13451890  1
  C  C249  1  0.74423788  0.12003812  0.13138239  1
  C  C250  1  0.75241045  0.45210203  0.13228268  1
  C  C251  1  0.74752203  0.78702257  0.13287843  1
  C  C252  1  0.25051068  0.21261735  0.86819995  1
  C  C253  1  0.25603914  0.54571234  0.86866395  1
  C  C254  1  0.24735134  0.88060479  0.86782600  1
  C  C255  1  0.74865231  0.21401099  0.86988613  1
  C  C256  1  0.75395144  0.54520502  0.86473236  1
  C  C257  1  0.74882521  0.87996312  0.86789981  1
  C  C258  1  0.24994588  0.12029395  0.36428589  1
  C  C259  1  0.25654770  0.45462361  0.36906778  1
  C  C260  1  0.24951023  0.78826290  0.36832937  1
  C  C261  1  0.74663419  0.12165850  0.36711090  1
  C  C262  1  0.75572234  0.45484814  0.36889016  1
  C  C263  1  0.75167566  0.78677686  0.36495380  1
  C  C264  1  0.04850634  0.40493941  0.95857880  1
  C  C265  1  0.22009715  0.42782648  0.03742339  1
  C  C266  1  0.31831055  0.43126573  0.45662837  1
  C  C267  1  0.47704414  0.26150348  0.46142924  1
  C  C268  1  0.96758346  0.40685498  0.96455118  1
  C  C269  1  0.47135514  0.92314458  0.03921530  1
  C  C270  1  0.03951827  0.73644519  0.54099979  1
  C  C271  1  0.52100835  0.40266945  0.96380994  1
  C  C272  1  0.28604301  0.90974436  0.95965083  1
  C  C273  1  0.77325138  0.76155797  0.46116604  1
  C  C274  1  0.29188121  0.23509643  0.54144471  1
  C  C275  1  0.70409887  0.09536847  0.03800507  1
  C  C276  1  0.03991988  0.07153543  0.53905902  1
  C  C277  1  0.56081726  0.59543009  0.45848465  1
  C  C278  1  0.27077238  0.09321002  0.45998698  1
  C  C279  1  0.30154444  0.42846985  0.04195435  1
  C  C280  1  0.69955005  0.57321120  0.54125264  1
  C  C281  1  0.48148270  0.59280818  0.46757123  1
  C  C282  1  0.27399053  0.09639979  0.03509368  1
  C  C283  1  0.72897066  0.24376800  0.96521558  1
  C  C284  1  0.28443854  0.90831650  0.53843119  1
  C  C285  1  0.72339952  0.56913013  0.96133855  1
  C  C286  1  0.03764921  0.07621384  0.96603045  1
  C  C287  1  0.94356389  0.26408019  0.45556620  1
  C  C288  1  0.97814280  0.73967020  0.96097559  1
  C  C289  1  0.03900001  0.26051510  0.03682403  1
  C  C290  1  0.95751406  0.73532260  0.54061681  1
  C  C291  1  0.80921286  0.42442618  0.45793991  1
  C  C292  1  0.20998467  0.23447024  0.54069482  1
  C  C293  1  0.04755654  0.59285023  0.45853045  1
  C  C294  1  0.20473631  0.23859413  0.95945475  1
  C  C295  1  0.69252746  0.90813758  0.95532207  1
  C  C296  1  0.19291730  0.09757184  0.04196673  1
  C  C297  1  0.72207741  0.90369219  0.53754429  1
  C  C298  1  0.02845401  0.92287215  0.46080831  1
  C  C299  1  0.80389123  0.90374187  0.54321667  1
  C  C300  1  0.30463431  0.56958811  0.95964875  1
  C  C301  1  0.78162847  0.57348049  0.53761795  1
  C  C302  1  0.47623940  0.07186807  0.53648216  1
  C  C303  1  0.53667270  0.73869457  0.53755662  1
  C  C304  1  0.03185764  0.59324887  0.04149265  1
  C  C305  1  0.02413976  0.26314851  0.46459684  1
  C  C306  1  0.46355575  0.25775095  0.03837024  1
  C  C307  1  0.52431350  0.92626990  0.46061500  1
  C  C308  1  0.43934788  0.40205990  0.95594453  1
  C  C309  1  0.27065907  0.76173890  0.03841676  1
  C  C310  1  0.80531926  0.56761612  0.95630546  1
  C  C311  1  0.05855026  0.92700596  0.04233785  1
  N  N312  1  0.22864645  0.75935788  0.46172183  1
  N  N313  1  0.95105666  0.92457646  0.45800505  1
  N  N314  1  0.53637663  0.74410645  0.95895175  1
  N  N315  1  0.24019286  0.42749810  0.46489119  1
  N  N316  1  0.71265725  0.75769018  0.04052296  1
  N  N317  1  0.78159716  0.09379185  0.46114390  1
  N  N318  1  0.20370901  0.57211036  0.54130108  1
  N  N319  1  0.80596766  0.24177417  0.95849976  1
  N  N320  1  0.05681753  0.73837636  0.95443628  1
  N  N321  1  0.69466260  0.76158526  0.45421351  1
  N  N322  1  0.28208792  0.23968420  0.96450175  1
  N  N323  1  0.19215931  0.76230417  0.04575261  1
  N  N324  1  0.44533853  0.92843310  0.45630588  1
  N  N325  1  0.95914006  0.25982572  0.03793469  1
  N  N326  1  0.55569736  0.26243168  0.45425426  1
  N  N327  1  0.55520746  0.07159781  0.54476396  1
  N  N328  1  0.95267343  0.59423850  0.04309984  1
  N  N329  1  0.78844888  0.24092945  0.53985819  1
  N  N330  1  0.22724011  0.57103404  0.96608492  1
  N  N331  1  0.20703030  0.90814658  0.53958770  1
  N  N332  1  0.96986735  0.59210762  0.46269875  1
  N  N333  1  0.56021363  0.06878435  0.95707435  1
  N  N334  1  0.72907162  0.42791419  0.03762784  1
  N  N335  1  0.98010744  0.92562462  0.03697455  1
  N  N336  1  0.77174355  0.91110507  0.96175318  1
  N  N337  1  0.95875963  0.07499001  0.96138863  1
  N  N338  1  0.70478363  0.09364740  0.45945516  1
  N  N339  1  0.48233306  0.08077368  0.96321374  1
  N  N340  1  0.54077119  0.25813668  0.03797403  1
  N  N341  1  0.78223383  0.09302623  0.03630585  1
  N  N342  1  0.73069667  0.42544070  0.46281375  1
  N  N343  1  0.43727204  0.59871080  0.04408408  1
  N  N344  1  0.71226870  0.24117092  0.53970858  1
  N  N345  1  0.45610062  0.73343698  0.95877517  1
  N  N346  1  0.96031642  0.07256417  0.54147955  1
  N  N347  1  0.43904814  0.40226293  0.54232906  1
  N  N348  1  0.51645139  0.41402857  0.53714306  1
  N  N349  1  0.19204243  0.09515605  0.45319561  1
  N  N350  1  0.54884061  0.92490953  0.04140673  1
  N  N351  1  0.01798964  0.40475251  0.53790118  1
  N  N352  1  0.51451828  0.58610014  0.03737172  1
  N  N353  1  0.30615544  0.75969033  0.45552840  1
  N  N354  1  0.79397610  0.76662014  0.04116815  1
  N  N355  1  0.45946791  0.73925049  0.53644541  1
  N  N356  1  0.80666739  0.42931049  0.04225683  1
  N  N357  1  0.20877358  0.91063490  0.96164107  1
  N  N358  1  0.94038224  0.40297514  0.54259669  1
  N  N359  1  0.28168409  0.57385283  0.53564753  1
  N  N360  1  0.06555853  0.05521616  0.59609168  1
  N  N361  1  0.05325074  0.39069648  0.59201082  1
  N  N362  1  0.06368631  0.72235122  0.60015388  1
  N  N363  1  0.57086888  0.05724431  0.60454629  1
  N  N364  1  0.55189914  0.39041459  0.58785369  1
  N  N365  1  0.56463538  0.72263626  0.59419474  1
  N  N366  1  0.43442132  0.27453798  0.09443622  1
  N  N367  1  0.42598546  0.60987453  0.10421679  1
  N  N368  1  0.43960282  0.94071819  0.09398078  1
  N  N369  1  0.93418248  0.27751749  0.09482887  1
  N  N370  1  0.93451445  0.61106465  0.10216503  1
  N  N371  1  0.94458365  0.94469475  0.09115092  1
  N  N372  1  0.44605265  0.05647137  0.91276112  1
  N  N373  1  0.42612094  0.38742507  0.89513975  1
  N  N374  1  0.43628688  0.72665962  0.89835836  1
  N  N375  1  0.93672391  0.05759795  0.90272313  1
  N  N376  1  0.93542155  0.39167383  0.91021149  1
  N  N377  1  0.94115697  0.72430522  0.90647992  1
  N  N378  1  0.05877947  0.27718568  0.40769118  1
  N  N379  1  0.07031846  0.60946433  0.40048513  1
  N  N380  1  0.06115512  0.94057000  0.40643295  1
  N  N381  1  0.56667323  0.27744552  0.39420472  1
  N  N382  1  0.57252309  0.61192368  0.39923397  1
  N  N383  1  0.55873301  0.94150064  0.40529214  1
  N  N384  1  0.31543711  0.22214734  0.60103419  1
  N  N385  1  0.30976874  0.55907474  0.59197120  1
  N  N386  1  0.31536062  0.89101819  0.59372171  1
  N  N387  1  0.81348357  0.22353276  0.59761083  1
  N  N388  1  0.81049081  0.55697365  0.59500179  1
  N  N389  1  0.82097815  0.88878114  0.60333793  1
  N  N390  1  0.17641975  0.11188761  0.10078883  1
  N  N391  1  0.19101864  0.44388957  0.09578201  1
  N  N392  1  0.18125839  0.77839932  0.10546786  1
  N  N393  1  0.67894732  0.11106166  0.09591627  1
  N  N394  1  0.69409817  0.44040358  0.09241386  1
  N  N395  1  0.68592989  0.78147291  0.09450622  1
  N  N396  1  0.18303082  0.22249465  0.90111391  1
  N  N397  1  0.19699766  0.55554378  0.90810262  1
  N  N398  1  0.18434659  0.89214110  0.90305728  1
  N  N399  1  0.69132048  0.22702215  0.91224112  1
  N  N400  1  0.69287571  0.55530245  0.90385287  1
  N  N401  1  0.67818055  0.89017089  0.89674902  1
  N  N402  1  0.30783695  0.10869859  0.40587933  1
  N  N403  1  0.32884860  0.44741217  0.39688155  1
  N  N404  1  0.31858060  0.77597264  0.39677495  1
  N  N405  1  0.80858554  0.11122070  0.40419366  1
  N  N406  1  0.82505735  0.44241473  0.39978902  1
  N  N407  1  0.81015485  0.77641911  0.40658839  1
  N  N408  1  0.43955229  0.27553914  0.40684970  1
  N  N409  1  0.44407429  0.60783923  0.41490280  1
  N  N410  1  0.43113587  0.94464015  0.39700961  1
  N  N411  1  0.92952394  0.27812164  0.39648606  1
  N  N412  1  0.94243601  0.60914893  0.40432935  1
  N  N413  1  0.93335946  0.94396069  0.39823111  1
  N  N414  1  0.06538796  0.05924029  0.91010027  1
  N  N415  1  0.06503046  0.38869732  0.90053029  1
  N  N416  1  0.06843648  0.72194832  0.89484169  1
  N  N417  1  0.57219453  0.05683780  0.89720611  1
  N  N418  1  0.55519465  0.38855043  0.90749755  1
  N  N419  1  0.56394857  0.72030717  0.90533142  1
  N  N420  1  0.06309853  0.27712010  0.09421352  1
  N  N421  1  0.06247711  0.60902291  0.09771101  1
  N  N422  1  0.07307792  0.94464709  0.10072787  1
  N  N423  1  0.56270058  0.27589900  0.09730881  1
  N  N424  1  0.55198767  0.60833130  0.08798192  1
  N  N425  1  0.56734972  0.94434804  0.10120187  1
  N  N426  1  0.44299523  0.05691303  0.59147750  1
  N  N427  1  0.42542812  0.39073841  0.60219673  1
  N  N428  1  0.43632444  0.72237908  0.59562189  1
  N  N429  1  0.93659077  0.05670200  0.59933115  1
  N  N430  1  0.92665714  0.38769006  0.60164554  1
  N  N431  1  0.93329973  0.72074980  0.59951029  1
  N  N432  1  0.18096026  0.11181234  0.39339311  1
  N  N433  1  0.20141268  0.44282699  0.41116090  1
  N  N434  1  0.19220584  0.77914963  0.40974800  1
  N  N435  1  0.68199719  0.11066818  0.40109560  1
  N  N436  1  0.69650753  0.44619778  0.40870489  1
  N  N437  1  0.68304270  0.77714225  0.39430683  1
  N  N438  1  0.31088128  0.22315822  0.90640624  1
  N  N439  1  0.32460114  0.55466448  0.90021987  1
  N  N440  1  0.31257608  0.89174221  0.90321353  1
  N  N441  1  0.81816308  0.22310377  0.89765099  1
  N  N442  1  0.82267392  0.55299676  0.89616030  1
  N  N443  1  0.80640274  0.89053555  0.90871510  1
  N  N444  1  0.30599874  0.11093274  0.09267502  1
  N  N445  1  0.32099324  0.44404893  0.10022419  1
  N  N446  1  0.30831883  0.77712611  0.09264526  1
  N  N447  1  0.80686368  0.10871358  0.09583890  1
  N  N448  1  0.82076736  0.44497745  0.10102826  1
  N  N449  1  0.81340419  0.77358979  0.10168408  1
  N  N450  1  0.18501239  0.22137111  0.59984528  1
  N  N451  1  0.18268320  0.55691536  0.59901308  1
  N  N452  1  0.18714445  0.89008878  0.59910904  1
  N  N453  1  0.68681392  0.22413899  0.59750418  1
  N  N454  1  0.68063921  0.55669058  0.60074429  1
  N  N455  1  0.69120450  0.88861634  0.59469881  1
  Cl  Cl456  1  0.25640711  0.05288947  0.61543721  1
  Cl  Cl457  1  0.23707367  0.39247388  0.60177219  1
  Cl  Cl458  1  0.24747485  0.72470697  0.61047050  1
  Cl  Cl459  1  0.75307054  0.05129469  0.61920677  1
  Cl  Cl460  1  0.73510123  0.39469095  0.60901904  1
  Cl  Cl461  1  0.74984572  0.72257598  0.62439682  1
  Cl  Cl462  1  0.24803190  0.28127457  0.12384302  1
  Cl  Cl463  1  0.24661412  0.61466448  0.12257005  1
  Cl  Cl464  1  0.25620174  0.95043783  0.11891960  1
  Cl  Cl465  1  0.74906023  0.28052102  0.10968344  1
  Cl  Cl466  1  0.73862243  0.61186306  0.11002399  1
  Cl  Cl467  1  0.75965103  0.93862174  0.10435313  1
  Cl  Cl468  1  0.26158663  0.05599825  0.88605191  1
  Cl  Cl469  1  0.24543146  0.38261405  0.87285291  1
  Cl  Cl470  1  0.25598693  0.71881968  0.88094054  1
  Cl  Cl471  1  0.75336535  0.05035680  0.88316741  1
  Cl  Cl472  1  0.74126134  0.38799025  0.88891561  1
  Cl  Cl473  1  0.74952247  0.72943013  0.89806993  1
  Cl  Cl474  1  0.25109173  0.28065664  0.39049301  1
  Cl  Cl475  1  0.25316364  0.61120326  0.38785398  1
  Cl  Cl476  1  0.24599778  0.94746853  0.38163819  1
  Cl  Cl477  1  0.74841963  0.29101259  0.37346747  1
  Cl  Cl478  1  0.75868383  0.61253858  0.37853437  1
  Cl  Cl479  1  0.74503629  0.94435607  0.37949593  1
  Cl  Cl480  1  -0.00103440  0.21901158  0.61796004  1
  Cl  Cl481  1  -0.00019002  0.55116238  0.61945847  1
  Cl  Cl482  1  0.00441601  0.88563017  0.62813632  1
  Cl  Cl483  1  0.50051215  0.22047474  0.61590308  1
  Cl  Cl484  1  0.49363944  0.55061413  0.62411618  1
  Cl  Cl485  1  0.50535451  0.88733665  0.61141306  1
  Cl  Cl486  1  -0.00861230  0.11149541  0.11534449  1
  Cl  Cl487  1  0.00408801  0.44717790  0.12703926  1
  Cl  Cl488  1  -0.00646560  0.78534534  0.11982784  1
  Cl  Cl489  1  0.49321040  0.10655478  0.11007724  1
  Cl  Cl490  1  0.51066424  0.44702938  0.11773675  1
  Cl  Cl491  1  0.50019611  0.77162305  0.09864546  1
  Cl  Cl492  1  0.00104896  0.21990451  0.88696380  1
  Cl  Cl493  1  0.01152914  0.55190112  0.88557771  1
  Cl  Cl494  1  -0.00924739  0.89420598  0.89708814  1
  Cl  Cl495  1  0.50014981  0.21948008  0.88396582  1
  Cl  Cl496  1  0.50893160  0.56381588  0.89462602  1
  Cl  Cl497  1  0.49572676  0.88197097  0.87847338  1
  Cl  Cl498  1  -0.00693400  0.11132767  0.38741297  1
  Cl  Cl499  1  0.01719277  0.44158826  0.39674782  1
  Cl  Cl500  1  0.00340057  0.77668354  0.39088887  1
  Cl  Cl501  1  0.49512277  0.10952112  0.38675779  1
  Cl  Cl502  1  0.51325446  0.43868962  0.39300428  1
  Cl  Cl503  1  0.50046220  0.78197166  0.36941529  1
  Cl  Cl504  1  0.36213954  0.14500272  0.74777460  1
  Cl  Cl505  1  0.36169975  0.47815625  0.74937917  1
  Cl  Cl506  1  0.36272115  0.81209721  0.75115968  1
  Cl  Cl507  1  0.86259665  0.14560028  0.75506412  1
  Cl  Cl508  1  0.86249880  0.47811996  0.74918111  1
  Cl  Cl509  1  0.85769216  0.81105847  0.75125955  1
  Cl  Cl510  1  0.13947852  0.18876377  0.25173255  1
  Cl  Cl511  1  0.14208726  0.52081035  0.25472710  1
  Cl  Cl512  1  0.13785671  0.85491272  0.24564897  1
  Cl  Cl513  1  0.63621978  0.18906724  0.25039136  1
  Cl  Cl514  1  0.63873491  0.52117478  0.25069520  1
  Cl  Cl515  1  0.64120865  0.85613316  0.24519853  1
  Cl  Cl516  1  0.13974552  0.14403037  0.75006958  1
  Cl  Cl517  1  0.14021208  0.48041621  0.74547229  1
  Cl  Cl518  1  0.13797352  0.81208542  0.75138373  1
  Cl  Cl519  1  0.63796621  0.14495112  0.75140573  1
  Cl  Cl520  1  0.64233145  0.47817136  0.75145808  1
  Cl  Cl521  1  0.63609097  0.81131346  0.75758106  1
  Cl  Cl522  1  0.36208126  0.18738114  0.25072669  1
  Cl  Cl523  1  0.36586786  0.52181661  0.24918056  1
  Cl  Cl524  1  0.36077915  0.85373622  0.25261255  1
  Cl  Cl525  1  0.86056529  0.18860097  0.24810264  1
  Cl  Cl526  1  0.86306000  0.52051861  0.24742775  1
  Cl  Cl527  1  0.86013215  0.85307315  0.24739667  1
  Cl  Cl528  1  0.11322619  0.31133943  0.74945012  1
  Cl  Cl529  1  0.11248085  0.64626165  0.75065009  1
  Cl  Cl530  1  0.10564844  0.97876639  0.75455589  1
  Cl  Cl531  1  0.60663947  0.31646541  0.74794256  1
  Cl  Cl532  1  0.60942617  0.64509407  0.75349909  1
  Cl  Cl533  1  0.61473439  0.97794346  0.75240944  1
  Cl  Cl534  1  0.38830639  0.02043362  0.25364817  1
  Cl  Cl535  1  0.38900109  0.35560102  0.25042010  1
  Cl  Cl536  1  0.39261382  0.68878005  0.24531452  1
  Cl  Cl537  1  0.89238649  0.02100714  0.25163951  1
  Cl  Cl538  1  0.88730012  0.35592865  0.25180675  1
  Cl  Cl539  1  0.88824118  0.68816931  0.24550740  1
  Cl  Cl540  1  0.38497742  0.31162037  0.74224646  1
  Cl  Cl541  1  0.38927357  0.64422162  0.75378325  1
  Cl  Cl542  1  0.39423274  0.98239343  0.75081999  1
  Cl  Cl543  1  0.89300794  0.31247341  0.75039092  1
  Cl  Cl544  1  0.88846517  0.64557397  0.75149101  1
  Cl  Cl545  1  0.88709359  0.97795161  0.75192567  1
  Cl  Cl546  1  0.11382193  0.02325290  0.24747177  1
  Cl  Cl547  1  0.11007779  0.35264284  0.25103055  1
  Cl  Cl548  1  0.11167789  0.68805614  0.25031543  1
  Cl  Cl549  1  0.61213331  0.02113751  0.24394521  1
  Cl  Cl550  1  0.61125057  0.35357572  0.24975814  1
  Cl  Cl551  1  0.61399493  0.68891390  0.24724812  1
