# generated using pymatgen
data_H8PbC4(N3Cl2)2
_symmetry_space_group_name_H-M   'P 1'
_cell_length_a   16.63170709
_cell_length_b   22.52620273
_cell_length_c   21.59985495
_cell_angle_alpha   89.99762314
_cell_angle_beta   90.02137277
_cell_angle_gamma   89.99672585
_symmetry_Int_Tables_number   1
_chemical_formula_structural   H8PbC4(N3Cl2)2
_chemical_formula_sum   'H192 Pb24 C96 N144 Cl96'
_cell_volume   8092.36791939
_cell_formula_units_Z   24
loop_
 _symmetry_equiv_pos_site_id
 _symmetry_equiv_pos_as_xyz
  1  'x, y, z'
loop_
 _atom_site_type_symbol
 _atom_site_label
 _atom_site_symmetry_multiplicity
 _atom_site_fract_x
 _atom_site_fract_y
 _atom_site_fract_z
 _atom_site_occupancy
  H  H0  1  -0.01397470  0.02712177  0.67232124  1
  H  H1  1  -0.02594693  0.36501071  0.65730298  1
  H  H2  1  0.00555707  0.69418457  0.67814617  1
  H  H3  1  0.50894884  0.02409081  0.67396214  1
  H  H4  1  0.49340514  0.36112970  0.67621283  1
  H  H5  1  0.49032555  0.70080453  0.68120920  1
  H  H6  1  0.01110001  0.30502473  0.17996950  1
  H  H7  1  -0.00035327  0.64565774  0.17612055  1
  H  H8  1  0.00458244  0.97557758  0.18143229  1
  H  H9  1  0.49407275  0.30401792  0.17756658  1
  H  H10  1  0.48333381  0.63962546  0.17534641  1
  H  H11  1  0.49039254  0.97086829  0.17638231  1
  H  H12  1  0.00757654  0.03216220  0.81849480  1
  H  H13  1  -0.01983287  0.36780475  0.84860865  1
  H  H14  1  0.00944329  0.69378761  0.82196206  1
  H  H15  1  0.49472558  0.02414507  0.82786483  1
  H  H16  1  0.50072895  0.36160186  0.82224355  1
  H  H17  1  0.48979576  0.69300232  0.82014705  1
  H  H18  1  -0.00454568  0.30210613  0.32437619  1
  H  H19  1  0.00704578  0.63925355  0.32747979  1
  H  H20  1  0.00328320  0.97111411  0.32299070  1
  H  H21  1  0.48881534  0.30617554  0.32673755  1
  H  H22  1  0.50367598  0.63067834  0.31109718  1
  H  H23  1  0.48635572  0.97064411  0.31980084  1
  H  H24  1  0.25450196  0.19274925  0.67754024  1
  H  H25  1  0.27141756  0.52969177  0.67424245  1
  H  H26  1  0.26213286  0.86373737  0.67681557  1
  H  H27  1  0.74273525  0.19558586  0.67669107  1
  H  H28  1  0.73145239  0.52976559  0.67625042  1
  H  H29  1  0.74234695  0.86210225  0.67573730  1
  H  H30  1  0.25920568  0.14116481  0.17793404  1
  H  H31  1  0.25413829  0.47249877  0.17811608  1
  H  H32  1  0.25055903  0.80213473  0.18046741  1
  H  H33  1  0.73508519  0.13898267  0.17616630  1
  H  H34  1  0.77654110  0.46891102  0.16126443  1
  H  H35  1  0.75469417  0.80341807  0.17646178  1
  H  H36  1  0.23643474  0.19970628  0.81531255  1
  H  H37  1  0.24713959  0.52202083  0.82154978  1
  H  H38  1  0.22952693  0.86499168  0.81898312  1
  H  H39  1  0.74553967  0.18951318  0.82293182  1
  H  H40  1  0.75462903  0.52860876  0.81946735  1
  H  H41  1  0.76637006  0.86196456  0.82129754  1
  H  H42  1  0.26704238  0.13943182  0.32511378  1
  H  H43  1  0.24965842  0.46899435  0.32169486  1
  H  H44  1  0.25806003  0.80315692  0.31846109  1
  H  H45  1  0.73814581  0.14102105  0.32456463  1
  H  H46  1  0.77803010  0.46464482  0.34037049  1
  H  H47  1  0.74910276  0.80395962  0.32423312  1
  H  H48  1  0.12368349  0.04824201  0.61693218  1
  H  H49  1  0.08220315  0.39972308  0.57743367  1
  H  H50  1  0.12959537  0.72287425  0.60907933  1
  H  H51  1  0.61448804  0.05739217  0.59183355  1
  H  H52  1  0.60628533  0.38904151  0.59762660  1
  H  H53  1  0.63039021  0.71694380  0.62618928  1
  H  H54  1  0.37138598  0.27924712  0.10854560  1
  H  H55  1  0.37820421  0.60992848  0.09281193  1
  H  H56  1  0.37899201  0.94081233  0.09964814  1
  H  H57  1  0.87040359  0.28784279  0.12881817  1
  H  H58  1  0.87779211  0.61275485  0.10557772  1
  H  H59  1  0.87715356  0.94933296  0.11579433  1
  H  H60  1  0.39148298  0.05754059  0.91280216  1
  H  H61  1  0.36120194  0.38620531  0.87635243  1
  H  H62  1  0.38726839  0.72136660  0.90364357  1
  H  H63  1  0.88400557  0.05709438  0.88990067  1
  H  H64  1  0.84184613  0.38535603  0.90039694  1
  H  H65  1  0.88247544  0.71870661  0.89113687  1
  H  H66  1  0.12962571  0.28272426  0.38548980  1
  H  H67  1  0.12531996  0.60860366  0.40159670  1
  H  H68  1  0.11528051  0.94217492  0.40212198  1
  H  H69  1  0.62777512  0.28270024  0.38023540  1
  H  H70  1  0.62572242  0.60996689  0.38333699  1
  H  H71  1  0.61607028  0.94820824  0.38714868  1
  H  H72  1  0.36543884  0.22182787  0.59572342  1
  H  H73  1  0.36403043  0.56143836  0.58314040  1
  H  H74  1  0.37817979  0.88986855  0.60004528  1
  H  H75  1  0.86412011  0.22285480  0.60397184  1
  H  H76  1  0.87497463  0.54802036  0.62775848  1
  H  H77  1  0.88163479  0.88484914  0.62288176  1
  H  H78  1  0.11709059  0.12085281  0.13009975  1
  H  H79  1  0.14072782  0.44341211  0.09839367  1
  H  H80  1  0.11753865  0.78251999  0.11840191  1
  H  H81  1  0.61824958  0.11220318  0.10026724  1
  H  H82  1  0.66626113  0.43891214  0.08352098  1
  H  H83  1  0.62077198  0.78168697  0.11971083  1
  H  H84  1  0.12911858  0.22811557  0.89720981  1
  H  H85  1  0.12645796  0.54929176  0.89436707  1
  H  H86  1  0.12860381  0.89018458  0.90707728  1
  H  H87  1  0.62692888  0.21933817  0.89623773  1
  H  H88  1  0.62591268  0.55298039  0.88523782  1
  H  H89  1  0.62417736  0.87912699  0.86850940  1
  H  H90  1  0.37420791  0.10725451  0.40852282  1
  H  H91  1  0.39037914  0.44755085  0.37427146  1
  H  H92  1  0.36763275  0.77995387  0.39982499  1
  H  H93  1  0.87705382  0.11594844  0.37668571  1
  H  H94  1  0.91218097  0.44497556  0.39822913  1
  H  H95  1  0.86925329  0.77589362  0.39808859  1
  H  H96  1  0.38237792  0.27197706  0.40659227  1
  H  H97  1  0.37677115  0.61339142  0.37927014  1
  H  H98  1  0.36805959  0.94419109  0.39679561  1
  H  H99  1  0.88243874  0.27173516  0.40207058  1
  H  H100  1  0.87831314  0.61220111  0.39227556  1
  H  H101  1  0.86851699  0.95084049  0.38196618  1
  H  H102  1  0.13262217  0.05489683  0.88860018  1
  H  H103  1  0.08630903  0.40044099  0.92990722  1
  H  H104  1  0.13118303  0.72150792  0.89549495  1
  H  H105  1  0.63481547  0.05240861  0.87796425  1
  H  H106  1  0.60781290  0.38639528  0.90458270  1
  H  H107  1  0.63207563  0.70996151  0.87035555  1
  H  H108  1  0.11574788  0.27842123  0.09672529  1
  H  H109  1  0.12614355  0.61545584  0.11008374  1
  H  H110  1  0.12667078  0.94359733  0.11124443  1
  H  H111  1  0.62058718  0.27937356  0.11053788  1
  H  H112  1  0.62228337  0.62037264  0.12552575  1
  H  H113  1  0.62672171  0.95244452  0.11793036  1
  H  H114  1  0.36975649  0.04953655  0.62357776  1
  H  H115  1  0.35991111  0.37947959  0.61368104  1
  H  H116  1  0.38465038  0.72773710  0.59836757  1
  H  H117  1  0.87793682  0.06180591  0.59318493  1
  H  H118  1  0.83600015  0.38717229  0.60440825  1
  H  H119  1  0.88103858  0.72133226  0.61012135  1
  H  H120  1  0.12884600  0.11585512  0.38162975  1
  H  H121  1  0.14775179  0.43968569  0.40762252  1
  H  H122  1  0.12094725  0.78554999  0.37423508  1
  H  H123  1  0.63179490  0.10875156  0.40632385  1
  H  H124  1  0.66486772  0.43366299  0.41640792  1
  H  H125  1  0.62136153  0.78040438  0.39142112  1
  H  H126  1  0.37529858  0.21691471  0.87309826  1
  H  H127  1  0.37521439  0.55377273  0.88569922  1
  H  H128  1  0.37256984  0.88192913  0.87056743  1
  H  H129  1  0.87542511  0.21906147  0.88624030  1
  H  H130  1  0.87448603  0.55317329  0.89374785  1
  H  H131  1  0.86727301  0.88980707  0.90756308  1
  H  H132  1  0.36070773  0.10622205  0.09264736  1
  H  H133  1  0.38842822  0.44792518  0.11555905  1
  H  H134  1  0.36614139  0.77683535  0.10589083  1
  H  H135  1  0.86614294  0.11766221  0.11566611  1
  H  H136  1  0.91355330  0.44833449  0.10440240  1
  H  H137  1  0.86768425  0.77680993  0.09871351  1
  H  H138  1  0.11929211  0.21730649  0.61788474  1
  H  H139  1  0.12564052  0.54891954  0.63036716  1
  H  H140  1  0.13004715  0.88405842  0.61720889  1
  H  H141  1  0.61574889  0.22009060  0.60758678  1
  H  H142  1  0.63303031  0.55881240  0.58824765  1
  H  H143  1  0.63499939  0.89233358  0.59382216  1
  H  H144  1  0.18107576  0.58659219  0.99861079  1
  H  H145  1  0.93422697  0.58274276  0.00276887  1
  H  H146  1  0.27383105  0.58469335  0.48916456  1
  H  H147  1  0.28212326  0.08231252  -0.00499926  1
  H  H148  1  0.83386292  0.08518354  0.00220078  1
  H  H149  1  0.14147766  0.75890148  0.48804191  1
  H  H150  1  0.72592924  0.40858388  -0.02271122  1
  H  H151  1  0.86080424  0.58556293  0.52184451  1
  H  H152  1  0.60764575  0.58730397  1.01096514  1
  H  H153  1  0.71765967  0.57355474  0.49090640  1
  H  H154  1  0.86205714  0.91490605  0.51264961  1
  H  H155  1  0.81162578  0.75063685  0.50213698  1
  H  H156  1  0.44155091  0.90904379  -0.00720750  1
  H  H157  1  0.09679768  0.08097750  0.50841476  1
  H  H158  1  0.04332976  0.25135613  -0.00833033  1
  H  H159  1  0.53876984  0.41975129  1.00816655  1
  H  H160  1  0.64417740  0.74766159  0.00524575  1
  H  H161  1  0.30141933  0.75474737  0.50700269  1
  H  H162  1  0.30805684  0.74792855  -0.00423107  1
  H  H163  1  0.41780405  0.24785034  -0.00222329  1
  H  H164  1  0.01243735  0.42180554  0.47534572  1
  H  H165  1  0.16093773  0.91792562  0.50382521  1
  H  H166  1  0.57820547  0.59069794  0.49550807  1
  H  H167  1  0.88482657  0.25799982  1.01499330  1
  H  H168  1  0.41713574  0.59379408  0.49322290  1
  H  H169  1  0.09783710  0.24518812  0.48969756  1
  H  H170  1  0.72303671  0.40676734  0.52439084  1
  H  H171  1  0.63131137  0.91050137  0.98367748  1
  H  H172  1  0.91995804  0.91348180  0.00660881  1
  H  H173  1  0.53811391  0.08673089  0.49318073  1
  H  H174  1  0.60965323  0.74755185  0.51828409  1
  H  H175  1  0.07303032  0.92008799  0.00561837  1
  H  H176  1  0.12802018  0.08688335  0.01679064  1
  H  H177  1  0.45636067  0.75729633  0.49414914  1
  H  H178  1  0.66176202  0.24768101  0.50305400  1
  H  H179  1  0.39280248  0.41505134  0.50705669  1
  H  H180  1  0.20882915  0.91257314  1.00889686  1
  H  H181  1  0.46236596  0.74974091  1.00826034  1
  H  H182  1  0.38478335  0.41450714  0.98521850  1
  H  H183  1  0.70675783  0.08106841  0.50588381  1
  H  H184  1  0.79011776  0.91687651  1.00997866  1
  H  H185  1  0.47256864  0.08633471  1.00997465  1
  H  H186  1  0.53964951  0.40856802  0.49292315  1
  H  H187  1  0.94912573  0.25305837  0.50450782  1
  H  H188  1  0.70584983  0.92508367  0.49129895  1
  H  H189  1  0.06857103  0.58434162  0.50465057  1
  H  H190  1  0.20110311  0.25780539  1.00065712  1
  H  H191  1  0.22484580  0.41589397  0.50735126  1
  Pb  Pb192  1  0.25395014  0.04957371  0.76285517  1
  Pb  Pb193  1  0.24006324  0.38201580  0.74487240  1
  Pb  Pb194  1  0.24895057  0.71594975  0.75082256  1
  Pb  Pb195  1  0.75140492  0.04904828  0.74026438  1
  Pb  Pb196  1  0.74262587  0.38240488  0.75308071  1
  Pb  Pb197  1  0.75613314  0.71610031  0.74506596  1
  Pb  Pb198  1  0.24876078  0.28589461  0.24733934  1
  Pb  Pb199  1  0.25177950  0.61709757  0.25004804  1
  Pb  Pb200  1  0.24367660  0.94753334  0.25132464  1
  Pb  Pb201  1  0.75011688  0.28357863  0.25567263  1
  Pb  Pb202  1  0.74747728  0.61299591  0.25439020  1
  Pb  Pb203  1  0.74861325  0.95332842  0.25202021  1
  Pb  Pb204  1  -0.00364845  0.21979060  0.74771138  1
  Pb  Pb205  1  -0.00076482  0.54574451  0.75732983  1
  Pb  Pb206  1  0.00383587  0.88436188  0.76513399  1
  Pb  Pb207  1  0.49875569  0.21528591  0.74656719  1
  Pb  Pb208  1  0.49674024  0.55023254  0.73634838  1
  Pb  Pb209  1  0.50132710  0.88194729  0.74080594  1
  Pb  Pb210  1  0.00008711  0.11910518  0.25503189  1
  Pb  Pb211  1  0.00420358  0.45210727  0.25207911  1
  Pb  Pb212  1  -0.00836921  0.78160123  0.25332843  1
  Pb  Pb213  1  0.49330802  0.11574556  0.25250618  1
  Pb  Pb214  1  0.51051926  0.44938765  0.25118326  1
  Pb  Pb215  1  0.50039082  0.78455229  0.25388416  1
  C  C216  1  -0.00367050  0.04474813  0.62636361  1
  C  C217  1  -0.03575496  0.38252255  0.61094687  1
  C  C218  1  0.00566300  0.71220228  0.63189231  1
  C  C219  1  0.49787217  0.04218494  0.62833120  1
  C  C220  1  0.48605888  0.37645485  0.62881441  1
  C  C221  1  0.50265981  0.71487160  0.63395875  1
  C  C222  1  -0.00156502  0.29093569  0.13280644  1
  C  C223  1  0.00091980  0.62642482  0.13014586  1
  C  C224  1  0.00339369  0.95755998  0.13474080  1
  C  C225  1  0.49484826  0.28798790  0.13030413  1
  C  C226  1  0.49566290  0.62326471  0.12914083  1
  C  C227  1  0.49830863  0.95494037  0.12937532  1
  C  C228  1  0.00792094  0.04749186  0.86587594  1
  C  C229  1  -0.03114519  0.38476090  0.89475399  1
  C  C230  1  0.00782052  0.71055163  0.86905291  1
  C  C231  1  0.50674759  0.04302089  0.87315969  1
  C  C232  1  0.48909962  0.37799398  0.86875327  1
  C  C233  1  0.50303075  0.70757574  0.86695517  1
  C  C234  1  0.00258784  0.28574567  0.37147955  1
  C  C235  1  0.00361232  0.62157919  0.37418004  1
  C  C236  1  -0.00431844  0.95495524  0.36972061  1
  C  C237  1  0.50011131  0.28720389  0.37179800  1
  C  C238  1  0.50191450  0.61881203  0.35979128  1
  C  C239  1  0.49016946  0.95508723  0.36727850  1
  C  C240  1  0.24643299  0.20931374  0.63077189  1
  C  C241  1  0.25399887  0.54593925  0.62886298  1
  C  C242  1  0.25601359  0.87921184  0.62959180  1
  C  C243  1  0.74046378  0.21237675  0.62968845  1
  C  C244  1  0.74680641  0.54558332  0.63004049  1
  C  C245  1  0.75364302  0.87907299  0.62936967  1
  C  C246  1  0.24575413  0.12411267  0.13196015  1
  C  C247  1  0.26129782  0.45598791  0.13117579  1
  C  C248  1  0.24495326  0.78740887  0.13297144  1
  C  C249  1  0.74046107  0.12341491  0.12888397  1
  C  C250  1  0.78566038  0.45290702  0.11438599  1
  C  C251  1  0.74696062  0.78744345  0.12943301  1
  C  C252  1  0.24731237  0.21436515  0.86248949  1
  C  C253  1  0.24968769  0.54096300  0.86762628  1
  C  C254  1  0.24387607  0.87876341  0.86587610  1
  C  C255  1  0.74963803  0.20813751  0.86889441  1
  C  C256  1  0.75142814  0.54447697  0.86662689  1
  C  C257  1  0.75196320  0.87666056  0.86796205  1
  C  C258  1  0.25696207  0.12202113  0.37132147  1
  C  C259  1  0.26286394  0.45370364  0.36823635  1
  C  C260  1  0.24843800  0.78923029  0.36603915  1
  C  C261  1  0.74896969  0.12372863  0.37044437  1
  C  C262  1  0.78543447  0.44868530  0.38755975  1
  C  C263  1  0.74671390  0.78692104  0.37121674  1
  C  C264  1  0.27367956  0.75957781  0.03690152  1
  C  C265  1  0.45705954  0.25870495  0.03643951  1
  C  C266  1  0.73460248  0.91152675  0.53435706  1
  C  C267  1  0.47485813  0.92313744  0.03359274  1
  C  C268  1  -0.00962051  0.41791666  0.99122930  1
  C  C269  1  0.70857396  0.09430225  0.03430586  1
  C  C270  1  0.78392302  0.57544344  0.95966949  1
  C  C271  1  0.78992702  0.09557797  0.03784169  1
  C  C272  1  0.97346504  0.08072670  0.53194576  1
  C  C273  1  0.77355704  0.75686199  0.03485175  1
  C  C274  1  0.47776457  0.59225902  0.03330042  1
  C  C275  1  0.48300405  0.25002845  0.46466430  1
  C  C276  1  0.27057464  0.76455895  0.46384505  1
  C  C277  1  0.68378432  0.90121438  0.95230632  1
  C  C278  1  0.76006424  0.42211812  0.01804878  1
  C  C279  1  0.90742189  0.41348552  0.98205971  1
  C  C280  1  0.71875105  0.24143899  0.96104543  1
  C  C281  1  0.53989586  0.59903129  0.45577711  1
  C  C282  1  0.55811193  0.59565978  0.04275394  1
  C  C283  1  0.75800984  0.41942171  0.48378282  1
  C  C284  1  0.81123954  0.09023333  0.45432255  1
  C  C285  1  0.23016332  0.24411313  0.95773536  1
  C  C286  1  0.21777986  0.57406627  0.95912499  1
  C  C287  1  0.69258407  0.75844564  0.04030221  1
  C  C288  1  0.48415331  0.74391847  0.53764155  1
  C  C289  1  0.18935786  0.76656080  0.45464461  1
  C  C290  1  0.84260044  0.42583979  0.02530081  1
  C  C291  1  0.01490557  0.26346829  0.03519001  1
  C  C292  1  0.50987011  0.40830980  0.96441083  1
  C  C293  1  0.28646009  0.90949980  0.53524259  1
  C  C294  1  0.56966397  0.73216323  0.95164505  1
  C  C295  1  0.76374690  0.90471328  0.96566365  1
  C  C296  1  0.17866521  0.09491418  0.04950746  1
  C  C297  1  0.23441430  0.90301536  0.96350089  1
  C  C298  1  0.04705608  0.07420987  0.95875423  1
  C  C299  1  0.20513195  0.90761437  0.53927002  1
  C  C300  1  0.95887195  0.92507005  0.04515922  1
  C  C301  1  0.84070069  0.42387902  0.47856688  1
  C  C302  1  0.94380494  0.92767264  0.45829829  1
  C  C303  1  0.53853937  0.25902405  0.03871363  1
  C  C304  1  0.45790482  0.60058803  0.45459543  1
  C  C305  1  0.96694639  0.74554840  0.54133891  1
  C  C306  1  0.55538965  0.92803361  0.04162122  1
  C  C307  1  0.43470956  0.07806698  0.54596327  1
  C  C308  1  0.93435966  0.26693173  0.04663146  1
  C  C309  1  0.90321400  0.41213469  0.52477995  1
  C  C310  1  0.19267633  0.76174553  0.04331043  1
  C  C311  1  0.49017155  0.73681866  0.96468360  1
  N  N312  1  0.53539869  0.92724148  0.45868317  1
  N  N313  1  0.81310608  0.90881775  0.54500606  1
  N  N314  1  0.25577876  0.57833237  0.53491014  1
  N  N315  1  0.23497086  0.42495222  0.03690285  1
  N  N316  1  0.96932004  0.07486280  0.96068725  1
  N  N317  1  0.51247292  0.07876108  0.53594167  1
  N  N318  1  0.79605249  0.24143626  0.95877227  1
  N  N319  1  0.57142040  0.07747451  0.95465886  1
  N  N320  1  0.73329375  0.08914400  0.46347387  1
  N  N321  1  0.24975015  0.42425594  0.46258820  1
  N  N322  1  0.73659361  0.57937525  0.53616606  1
  N  N323  1  0.96862125  0.59063399  0.04139696  1
  N  N324  1  0.05147336  0.07468943  0.54046511  1
  N  N325  1  0.31198368  0.90063849  0.95139422  1
  N  N326  1  0.81353243  0.56794080  0.54728611  1
  N  N327  1  0.31099964  0.42712553  0.04243382  1
  N  N328  1  0.43159283  0.40832338  0.95329278  1
  N  N329  1  0.27518790  0.08804956  0.46600840  1
  N  N330  1  0.03847522  0.92279848  0.04473306  1
  N  N331  1  0.49472960  0.07883935  0.96518499  1
  N  N332  1  0.26878080  0.23891368  0.53512386  1
  N  N333  1  0.18006968  0.57420829  0.54942189  1
  N  N334  1  0.97719608  0.24917884  0.46223336  1
  N  N335  1  0.77784123  0.75647577  0.46266099  1
  N  N336  1  0.30845604  0.23972895  0.94998079  1
  N  N337  1  -0.01674769  0.41855765  0.51814937  1
  N  N338  1  0.56231479  0.73920896  0.54816317  1
  N  N339  1  0.05476484  0.26294846  0.46006854  1
  N  N340  1  0.70105364  0.24143397  0.53979106  1
  N  N341  1  0.04471645  0.74581870  0.53986793  1
  N  N342  1  0.03346806  0.59106698  0.46596459  1
  N  N343  1  0.51211975  0.40891782  0.53658038  1
  N  N344  1  0.25677753  0.08924645  0.03841447  1
  N  N345  1  0.02092011  0.92469083  0.46617984  1
  N  N346  1  0.96648798  0.74068671  0.96065692  1
  N  N347  1  0.04262532  0.74159246  0.96191862  1
  N  N348  1  0.69952173  0.75977031  0.46220965  1
  N  N349  1  0.70629072  0.57481586  0.95807276  1
  N  N350  1  0.77933200  0.24223620  0.53717094  1
  N  N351  1  0.43480014  0.39760428  0.53962657  1
  N  N352  1  0.55985297  0.25387195  0.45717790  1
  N  N353  1  0.95506170  0.59486800  0.46504424  1
  N  N354  1  0.04690460  0.59203012  0.04123497  1
  N  N355  1  0.32647761  0.42929851  0.45338832  1
  N  N356  1  0.29689039  0.57614501  0.95672645  1
  N  N357  1  0.45914596  0.92607466  0.46170498  1
  N  N358  1  0.19278521  0.23625787  0.54206586  1
  N  N359  1  0.19973783  0.09102957  0.45732971  1
  N  N360  1  0.06609443  0.05172048  0.59835952  1
  N  N361  1  0.02024350  0.39582209  0.56968276  1
  N  N362  1  0.06902208  0.72475278  0.59743547  1
  N  N363  1  0.55248201  0.05462827  0.58575133  1
  N  N364  1  0.54453142  0.38631909  0.58838814  1
  N  N365  1  0.57345356  0.72105109  0.60728263  1
  N  N366  1  0.43094798  0.27666352  0.09480277  1
  N  N367  1  0.44000961  0.60883388  0.08515480  1
  N  N368  1  0.44018238  0.94036622  0.08978885  1
  N  N369  1  0.92564286  0.28396418  0.10714525  1
  N  N370  1  0.93903566  0.61398315  0.09391502  1
  N  N371  1  0.93680689  0.94505820  0.10146939  1
  N  N372  1  0.45383902  0.05566936  0.91708565  1
  N  N373  1  0.41890954  0.38834772  0.89490232  1
  N  N374  1  0.44924931  0.72111796  0.91042728  1
  N  N375  1  0.94510911  0.05766330  0.90149799  1
  N  N376  1  0.89740727  0.39300430  0.92081844  1
  N  N377  1  0.94329877  0.72148925  0.90315856  1
  N  N378  1  0.07112749  0.27581265  0.40085878  1
  N  N379  1  0.06427013  0.60994342  0.41191618  1
  N  N380  1  0.05317683  0.94217507  0.40954389  1
  N  N381  1  0.57042297  0.27648141  0.39768658  1
  N  N382  1  0.56582148  0.61032488  0.39656249  1
  N  N383  1  0.55592025  0.94480849  0.40006801  1
  N  N384  1  0.30332454  0.22225938  0.58997703  1
  N  N385  1  0.30206704  0.55831288  0.58184170  1
  N  N386  1  0.31718382  0.89234959  0.58964627  1
  N  N387  1  0.80307521  0.22492888  0.59354304  1
  N  N388  1  0.81938959  0.55678054  0.60793317  1
  N  N389  1  0.82435918  0.88767264  0.60307981  1
  N  N390  1  0.17203477  0.11482267  0.10826190  1
  N  N391  1  0.20303929  0.44275900  0.09161393  1
  N  N392  1  0.17567061  0.77826799  0.10123944  1
  N  N393  1  0.67884859  0.11080207  0.08932755  1
  N  N394  1  0.72706480  0.43906211  0.07378828  1
  N  N395  1  0.67747881  0.77753606  0.10053927  1
  N  N396  1  0.19111460  0.22823663  0.90460057  1
  N  N397  1  0.18710568  0.55285880  0.90478282  1
  N  N398  1  0.19100511  0.89005778  0.91134706  1
  N  N399  1  0.68791070  0.22156135  0.90692408  1
  N  N400  1  0.68582673  0.55536087  0.89922116  1
  N  N401  1  0.67833586  0.88385649  0.89160372  1
  N  N402  1  0.31213137  0.10761278  0.41299289  1
  N  N403  1  0.33447227  0.44485727  0.39374524  1
  N  N404  1  0.30610483  0.77846591  0.40809610  1
  N  N405  1  0.82096969  0.11072018  0.39633527  1
  N  N406  1  0.85524949  0.44249572  0.41756297  1
  N  N407  1  0.80787214  0.77518272  0.40835160  1
  N  N408  1  0.44409469  0.27001954  0.41355910  1
  N  N409  1  0.43571463  0.61295932  0.39463955  1
  N  N410  1  0.42963472  0.94358203  0.40543611  1
  N  N411  1  0.94400242  0.27412136  0.41125726  1
  N  N412  1  0.93750045  0.61105351  0.40681252  1
  N  N413  1  0.92591144  0.94546793  0.39940949  1
  N  N414  1  0.07308532  0.05807223  0.90128913  1
  N  N415  1  0.02541476  0.40029687  0.93844933  1
  N  N416  1  0.06993810  0.72277219  0.90536561  1
  N  N417  1  0.57823148  0.05655562  0.89690431  1
  N  N418  1  0.54581251  0.39036817  0.91166654  1
  N  N419  1  0.57713031  0.71485482  0.89236316  1
  N  N420  1  0.05369508  0.27865952  0.08923545  1
  N  N421  1  0.06609743  0.61243091  0.09754001  1
  N  N422  1  0.06589604  0.94617321  0.09885253  1
  N  N423  1  0.56103023  0.27655975  0.09535123  1
  N  N424  1  0.56768756  0.61470307  0.10369133  1
  N  N425  1  0.56945876  0.94693842  0.09957082  1
  N  N426  1  0.42549822  0.05608432  0.60331488  1
  N  N427  1  0.41774110  0.38706977  0.59927702  1
  N  N428  1  0.44672592  0.72849650  0.59078289  1
  N  N429  1  0.93910365  0.06256763  0.58517942  1
  N  N430  1  0.89229538  0.39184268  0.58400018  1
  N  N431  1  0.94090874  0.72530264  0.59696619  1
  N  N432  1  0.18706225  0.11165231  0.39847690  1
  N  N433  1  0.20997361  0.44266304  0.41237967  1
  N  N434  1  0.17729022  0.78148328  0.39387676  1
  N  N435  1  0.69376127  0.11200142  0.41285076  1
  N  N436  1  0.72624231  0.43501528  0.42730746  1
  N  N437  1  0.68105578  0.77650854  0.40438488  1
  N  N438  1  0.31740607  0.22154990  0.89046655  1
  N  N439  1  0.31504124  0.55565373  0.89931401  1
  N  N440  1  0.31589322  0.88579276  0.89074972  1
  N  N441  1  0.81574953  0.22038804  0.90033109  1
  N  N442  1  0.81367695  0.55666622  0.90444561  1
  N  N443  1  0.80525896  0.88940619  0.91268483  1
  N  N444  1  0.29812242  0.11018520  0.08820224  1
  N  N445  1  0.32904772  0.44676947  0.10053255  1
  N  N446  1  0.30536301  0.77573269  0.09415079  1
  N  N447  1  0.80843410  0.11384248  0.09780277  1
  N  N448  1  0.85584131  0.44536407  0.08585430  1
  N  N449  1  0.80635844  0.77437404  0.08843762  1
  N  N450  1  0.17756354  0.21814740  0.60135762  1
  N  N451  1  0.17994080  0.55632649  0.60863646  1
  N  N452  1  0.18754003  0.88873277  0.59904725  1
  N  N453  1  0.67609990  0.22217734  0.59527629  1
  N  N454  1  0.69523618  0.55535039  0.58423154  1
  N  N455  1  0.69715747  0.89366057  0.58685525  1
  Cl  Cl456  1  0.24562907  0.04638860  0.63266564  1
  Cl  Cl457  1  0.20894006  0.39607252  0.59517021  1
  Cl  Cl458  1  0.26020563  0.72378062  0.61529423  1
  Cl  Cl459  1  0.74018894  0.06090265  0.59987701  1
  Cl  Cl460  1  0.71855332  0.38667963  0.62093099  1
  Cl  Cl461  1  0.75889267  0.72248512  0.60766608  1
  Cl  Cl462  1  0.23849206  0.27483731  0.11175379  1
  Cl  Cl463  1  0.25233502  0.61213431  0.11709693  1
  Cl  Cl464  1  0.24990420  0.94104515  0.11421469  1
  Cl  Cl465  1  0.74230871  0.27916420  0.12562870  1
  Cl  Cl466  1  0.76006370  0.60570519  0.12389040  1
  Cl  Cl467  1  0.75471142  0.94891278  0.12000286  1
  Cl  Cl468  1  0.26806578  0.05895647  0.90172936  1
  Cl  Cl469  1  0.23129493  0.39026323  0.87364032  1
  Cl  Cl470  1  0.25899491  0.72308367  0.88514881  1
  Cl  Cl471  1  0.76211572  0.05859342  0.87204620  1
  Cl  Cl472  1  0.72169984  0.37582345  0.88371333  1
  Cl  Cl473  1  0.76120926  0.71602961  0.87545493  1
  Cl  Cl474  1  0.25503550  0.28358661  0.37951623  1
  Cl  Cl475  1  0.24985467  0.60286581  0.39387476  1
  Cl  Cl476  1  0.24178566  0.94147642  0.38576487  1
  Cl  Cl477  1  0.75909903  0.27536365  0.38903520  1
  Cl  Cl478  1  0.75143663  0.60080837  0.39479126  1
  Cl  Cl479  1  0.74003600  0.94843169  0.38777829  1
  Cl  Cl480  1  -0.01175203  0.22755493  0.60654788  1
  Cl  Cl481  1  -0.00151819  0.54714932  0.62263980  1
  Cl  Cl482  1  0.00361647  0.88370669  0.63404392  1
  Cl  Cl483  1  0.49146957  0.22120994  0.61052961  1
  Cl  Cl484  1  0.50029988  0.55817125  0.59883225  1
  Cl  Cl485  1  0.50858528  0.88772741  0.60995549  1
  Cl  Cl486  1  -0.00758766  0.11419928  0.12819044  1
  Cl  Cl487  1  0.02827342  0.44710854  0.12003114  1
  Cl  Cl488  1  -0.01027905  0.78126187  0.12124660  1
  Cl  Cl489  1  0.48341204  0.10524553  0.10397882  1
  Cl  Cl490  1  0.51952274  0.44174718  0.11634296  1
  Cl  Cl491  1  0.49029888  0.77471618  0.12209913  1
  Cl  Cl492  1  0.00487607  0.22750644  0.88165505  1
  Cl  Cl493  1  -0.00256410  0.55137319  0.89329598  1
  Cl  Cl494  1  0.00113609  0.89578676  0.90318087  1
  Cl  Cl495  1  0.50359375  0.22044290  0.87931819  1
  Cl  Cl496  1  0.50014865  0.55232232  0.86913585  1
  Cl  Cl497  1  0.49628321  0.88628427  0.87162534  1
  Cl  Cl498  1  0.00439509  0.11202542  0.39054047  1
  Cl  Cl499  1  0.03442489  0.44073596  0.38729819  1
  Cl  Cl500  1  -0.01034620  0.77813798  0.38584090  1
  Cl  Cl501  1  0.50621874  0.10558681  0.39675215  1
  Cl  Cl502  1  0.53967873  0.43099524  0.39831178  1
  Cl  Cl503  1  0.49515176  0.77767749  0.39019357  1
  Cl  Cl504  1  0.36240627  0.14633809  0.75611693  1
  Cl  Cl505  1  0.36209857  0.47802323  0.74294375  1
  Cl  Cl506  1  0.36211294  0.81648756  0.74891362  1
  Cl  Cl507  1  0.86364376  0.14950703  0.74147958  1
  Cl  Cl508  1  0.86301494  0.47749244  0.74038905  1
  Cl  Cl509  1  0.85452257  0.81830583  0.74564132  1
  Cl  Cl510  1  0.14230046  0.18270913  0.25516265  1
  Cl  Cl511  1  0.14993553  0.51264482  0.25155189  1
  Cl  Cl512  1  0.13817451  0.85279738  0.24612095  1
  Cl  Cl513  1  0.64276527  0.18386411  0.25347013  1
  Cl  Cl514  1  0.65151100  0.51432665  0.25424185  1
  Cl  Cl515  1  0.63902607  0.85103457  0.25348134  1
  Cl  Cl516  1  0.13961174  0.14735184  0.74660138  1
  Cl  Cl517  1  0.14100844  0.48702348  0.74596156  1
  Cl  Cl518  1  0.13892369  0.81460011  0.74857699  1
  Cl  Cl519  1  0.64118086  0.15085678  0.74848789  1
  Cl  Cl520  1  0.64656313  0.48338726  0.75385517  1
  Cl  Cl521  1  0.63400052  0.80992981  0.75050503  1
  Cl  Cl522  1  0.36475187  0.18661090  0.24586053  1
  Cl  Cl523  1  0.37406780  0.52242253  0.26186064  1
  Cl  Cl524  1  0.36051799  0.84977331  0.25118230  1
  Cl  Cl525  1  0.86614876  0.18747203  0.25576423  1
  Cl  Cl526  1  0.86781180  0.51781744  0.26414682  1
  Cl  Cl527  1  0.85557813  0.84986505  0.25204887  1
  Cl  Cl528  1  0.10500751  0.32041239  0.73866779  1
  Cl  Cl529  1  0.11105752  0.64751783  0.74760791  1
  Cl  Cl530  1  0.10845084  0.97936884  0.75484875  1
  Cl  Cl531  1  0.60014731  0.32132265  0.74737389  1
  Cl  Cl532  1  0.61907325  0.64525789  0.74180863  1
  Cl  Cl533  1  0.61514512  0.98121551  0.75323559  1
  Cl  Cl534  1  0.38978726  0.02123775  0.24806879  1
  Cl  Cl535  1  0.39361552  0.35699681  0.25361253  1
  Cl  Cl536  1  0.38898308  0.68390334  0.25450330  1
  Cl  Cl537  1  0.88792928  0.01892897  0.25991071  1
  Cl  Cl538  1  0.88703269  0.35583718  0.24795539  1
  Cl  Cl539  1  0.89410804  0.68315144  0.25977551  1
  Cl  Cl540  1  0.38059627  0.31246203  0.74864778  1
  Cl  Cl541  1  0.39563278  0.64757347  0.74589499  1
  Cl  Cl542  1  0.39149678  0.98343286  0.75066247  1
  Cl  Cl543  1  0.89238803  0.31552988  0.74649173  1
  Cl  Cl544  1  0.89166447  0.64796732  0.74453142  1
  Cl  Cl545  1  0.88936324  0.98244400  0.74477710  1
  Cl  Cl546  1  0.10981285  0.01757964  0.25151340  1
  Cl  Cl547  1  0.10587019  0.34534235  0.25521891  1
  Cl  Cl548  1  0.11322940  0.68466905  0.25231947  1
  Cl  Cl549  1  0.60967674  0.01806367  0.24481503  1
  Cl  Cl550  1  0.61172232  0.34728922  0.25449831  1
  Cl  Cl551  1  0.61393580  0.68387512  0.24423591  1
