# generated using pymatgen
data_H8PbC4(N3Cl2)2
_symmetry_space_group_name_H-M   'P 1'
_cell_length_a   16.62239047
_cell_length_b   22.51215940
_cell_length_c   21.59263982
_cell_angle_alpha   89.99947411
_cell_angle_beta   90.00964959
_cell_angle_gamma   89.99875839
_symmetry_Int_Tables_number   1
_chemical_formula_structural   H8PbC4(N3Cl2)2
_chemical_formula_sum   'H192 Pb24 C96 N144 Cl96'
_cell_volume   8080.09317974
_cell_formula_units_Z   24
loop_
 _symmetry_equiv_pos_site_id
 _symmetry_equiv_pos_as_xyz
  1  'x, y, z'
loop_
 _atom_site_type_symbol
 _atom_site_label
 _atom_site_symmetry_multiplicity
 _atom_site_fract_x
 _atom_site_fract_y
 _atom_site_fract_z
 _atom_site_occupancy
  H  H0  1  0.01452592  0.02945571  0.67835882  1
  H  H1  1  -0.00633078  0.36240595  0.68075452  1
  H  H2  1  -0.00720003  0.69790029  0.67965358  1
  H  H3  1  0.48412977  0.03025854  0.67412255  1
  H  H4  1  0.51192812  0.36489375  0.67605666  1
  H  H5  1  0.49554479  0.69629397  0.67703104  1
  H  H6  1  0.00630450  0.30245073  0.18040241  1
  H  H7  1  -0.00656262  0.63674145  0.17627866  1
  H  H8  1  -0.00631956  0.97079001  0.17592086  1
  H  H9  1  0.50175013  0.30209033  0.18259586  1
  H  H10  1  0.50113035  0.63870983  0.17629504  1
  H  H11  1  0.49851698  0.97290643  0.17745750  1
  H  H12  1  -0.00876953  0.02692597  0.81852406  1
  H  H13  1  0.00721535  0.36582896  0.82544674  1
  H  H14  1  0.00970496  0.69525578  0.82303479  1
  H  H15  1  0.50082442  0.02653138  0.82360580  1
  H  H16  1  0.48789549  0.36340219  0.82050439  1
  H  H17  1  0.49273915  0.69764265  0.82161656  1
  H  H18  1  -0.00453926  0.30333000  0.32062578  1
  H  H19  1  0.01616541  0.63724740  0.32323710  1
  H  H20  1  -0.00826209  0.96711009  0.32239507  1
  H  H21  1  0.49834314  0.30407231  0.31828586  1
  H  H22  1  0.48519054  0.63449366  0.32039848  1
  H  H23  1  0.50078539  0.96863180  0.32198884  1
  H  H24  1  0.25844685  0.20772915  0.67994630  1
  H  H25  1  0.25356280  0.52836802  0.68210094  1
  H  H26  1  0.25691421  0.86374878  0.68319235  1
  H  H27  1  0.75495014  0.19501848  0.67905911  1
  H  H28  1  0.74752221  0.53034729  0.67621537  1
  H  H29  1  0.75431871  0.86656709  0.67227927  1
  H  H30  1  0.26288210  0.13418136  0.17674443  1
  H  H31  1  0.26512456  0.47087106  0.17612730  1
  H  H32  1  0.23599465  0.80288272  0.18113597  1
  H  H33  1  0.75391045  0.13690325  0.18029764  1
  H  H34  1  0.73671802  0.46680154  0.17743009  1
  H  H35  1  0.76590950  0.80343000  0.17180218  1
  H  H36  1  0.24363166  0.19116874  0.82139393  1
  H  H37  1  0.25669826  0.53049945  0.82418070  1
  H  H38  1  0.25495354  0.86495982  0.82369355  1
  H  H39  1  0.74505794  0.19746220  0.81868330  1
  H  H40  1  0.75617459  0.53094801  0.82291368  1
  H  H41  1  0.75673353  0.86405774  0.82418027  1
  H  H42  1  0.24801452  0.13504056  0.31726771  1
  H  H43  1  0.25220066  0.46886616  0.32054937  1
  H  H44  1  0.24789775  0.80352952  0.32244525  1
  H  H45  1  0.74919799  0.13580151  0.32487733  1
  H  H46  1  0.75216767  0.46793395  0.32589494  1
  H  H47  1  0.75297913  0.80550603  0.32158630  1
  H  H48  1  0.11681910  0.05871230  0.59329997  1
  H  H49  1  0.12068217  0.38525614  0.61285167  1
  H  H50  1  0.13263511  0.71794079  0.62434683  1
  H  H51  1  0.62919052  0.04479533  0.62694016  1
  H  H52  1  0.61858051  0.39303110  0.59268127  1
  H  H53  1  0.63081499  0.71722901  0.61674590  1
  H  H54  1  0.36936447  0.27909588  0.12218786  1
  H  H55  1  0.38520696  0.61091824  0.09884374  1
  H  H56  1  0.38420708  0.94395532  0.09931205  1
  H  H57  1  0.86670840  0.28507553  0.12615096  1
  H  H58  1  0.88367036  0.61016214  0.09375941  1
  H  H59  1  0.88813174  0.93985595  0.09184325  1
  H  H60  1  0.38007612  0.05462897  0.89585011  1
  H  H61  1  0.38296656  0.39336567  0.90589793  1
  H  H62  1  0.37983779  0.72254970  0.89934800  1
  H  H63  1  0.87829438  0.05292373  0.90031238  1
  H  H64  1  0.87696251  0.38833089  0.88930381  1
  H  H65  1  0.87430529  0.71843649  0.88013441  1
  H  H66  1  0.13070346  0.28195697  0.38246905  1
  H  H67  1  0.11414073  0.60500010  0.41097071  1
  H  H68  1  0.12713700  0.94875284  0.37834759  1
  H  H69  1  0.63198084  0.28617901  0.37903613  1
  H  H70  1  0.62687904  0.61732699  0.36876629  1
  H  H71  1  0.63901540  0.94977628  0.37707005  1
  H  H72  1  0.36552780  0.22591266  0.59470571  1
  H  H73  1  0.37739044  0.55570941  0.61175644  1
  H  H74  1  0.36654887  0.88677441  0.60083965  1
  H  H75  1  0.87094337  0.22219063  0.60296500  1
  H  H76  1  0.87502352  0.55169929  0.60948415  1
  H  H77  1  0.86159182  0.89277220  0.58970633  1
  H  H78  1  0.12380251  0.11762166  0.12537525  1
  H  H79  1  0.12175318  0.45412682  0.12686013  1
  H  H80  1  0.13215728  0.77636091  0.09758425  1
  H  H81  1  0.61867862  0.11279748  0.11870005  1
  H  H82  1  0.63239274  0.44195638  0.09339909  1
  H  H83  1  0.62420544  0.78384845  0.12141900  1
  H  H84  1  0.13420951  0.22226953  0.90319137  1
  H  H85  1  0.11901655  0.55139808  0.87949131  1
  H  H86  1  0.11866237  0.88425287  0.88399264  1
  H  H87  1  0.63473580  0.22123576  0.89889305  1
  H  H88  1  0.61671089  0.55042517  0.87652503  1
  H  H89  1  0.62261426  0.88386512  0.88162429  1
  H  H90  1  0.37187641  0.11254144  0.38824384  1
  H  H91  1  0.38087710  0.44463213  0.38750316  1
  H  H92  1  0.36589699  0.77709326  0.39854139  1
  H  H93  1  0.87011824  0.11039811  0.39811133  1
  H  H94  1  0.87379849  0.44757285  0.39722700  1
  H  H95  1  0.86565336  0.77978750  0.40026516  1
  H  H96  1  0.38344898  0.27886304  0.39509794  1
  H  H97  1  0.38317075  0.60983435  0.40617351  1
  H  H98  1  0.39127457  0.94202339  0.40214826  1
  H  H99  1  0.88347816  0.27827422  0.40285925  1
  H  H100  1  0.87236495  0.61760227  0.36882675  1
  H  H101  1  0.88070330  0.94291065  0.40248337  1
  H  H102  1  0.12568053  0.05113649  0.87978620  1
  H  H103  1  0.12501509  0.39155707  0.90044063  1
  H  H104  1  0.12158262  0.72412855  0.90276135  1
  H  H105  1  0.62877335  0.05120365  0.89201638  1
  H  H106  1  0.62744485  0.38497109  0.87492595  1
  H  H107  1  0.62783312  0.71814080  0.88028311  1
  H  H108  1  0.11352957  0.27503238  0.09923373  1
  H  H109  1  0.13015912  0.61359298  0.11752024  1
  H  H110  1  0.13372334  0.95131379  0.12264873  1
  H  H111  1  0.61796185  0.28018421  0.10653458  1
  H  H112  1  0.63332660  0.61518681  0.11191637  1
  H  H113  1  0.63205478  0.94763102  0.11753348  1
  H  H114  1  0.38825283  0.06240715  0.58535232  1
  H  H115  1  0.37271805  0.38366374  0.62071962  1
  H  H116  1  0.38375768  0.72492745  0.59813907  1
  H  H117  1  0.87233112  0.04679562  0.62688883  1
  H  H118  1  0.87144668  0.38796019  0.60647714  1
  H  H119  1  0.88638550  0.72541537  0.59656884  1
  H  H120  1  0.12392403  0.11125414  0.38732630  1
  H  H121  1  0.13237609  0.44459051  0.39558909  1
  H  H122  1  0.11782148  0.77975518  0.38805044  1
  H  H123  1  0.62165381  0.11189632  0.39183419  1
  H  H124  1  0.62543799  0.44829890  0.39184490  1
  H  H125  1  0.61765136  0.78155578  0.38093962  1
  H  H126  1  0.37970409  0.21636656  0.87787864  1
  H  H127  1  0.36577626  0.56047648  0.90505824  1
  H  H128  1  0.36550660  0.89071385  0.90576214  1
  H  H129  1  0.88137282  0.21621600  0.87439402  1
  H  H130  1  0.86196978  0.55870796  0.90769761  1
  H  H131  1  0.86974538  0.88794689  0.90294028  1
  H  H132  1  0.36839197  0.10677796  0.09357377  1
  H  H133  1  0.36430003  0.43826081  0.08935890  1
  H  H134  1  0.37730033  0.78691733  0.12986458  1
  H  H135  1  0.86563577  0.10946352  0.09933981  1
  H  H136  1  0.87715530  0.45059122  0.12553799  1
  H  H137  1  0.86772694  0.77401111  0.08622199  1
  H  H138  1  0.11945271  0.21780616  0.62173098  1
  H  H139  1  0.12770604  0.55248409  0.61422967  1
  H  H140  1  0.11941598  0.88547719  0.62462009  1
  H  H141  1  0.62278434  0.21931491  0.61595023  1
  H  H142  1  0.62604390  0.55264081  0.60430995  1
  H  H143  1  0.61611853  0.88324701  0.61988568  1
  H  H144  1  0.33752447  0.41762465  0.49347380  1
  H  H145  1  0.28038167  0.42161068  -0.00855339  1
  H  H146  1  0.87742057  0.58352130  0.48210668  1
  H  H147  1  0.90964850  0.41732169  0.99714947  1
  H  H148  1  0.32616601  0.57558475  0.50459706  1
  H  H149  1  0.17980550  0.06487439  0.48237719  1
  H  H150  1  0.04343192  0.24539962  -0.00666533  1
  H  H151  1  0.17263617  0.57825048  0.50222609  1
  H  H152  1  0.14760576  0.91452366  0.99231848  1
  H  H153  1  0.63787599  0.75298918  0.01072252  1
  H  H154  1  0.29566942  0.58895528  1.00548676  1
  H  H155  1  0.56004016  0.25358306  -0.00339434  1
  H  H156  1  0.31669712  0.10702444  0.49548542  1
  H  H157  1  0.58313397  0.08198734  0.99540900  1
  H  H158  1  0.28717234  0.25879298  0.49721118  1
  H  H159  1  0.70065445  0.24802190  1.00636375  1
  H  H160  1  0.10394905  0.91752509  0.49300128  1
  H  H161  1  0.88892877  0.07683664  0.51865038  1
  H  H162  1  0.20593905  0.75021809  -0.00797554  1
  H  H163  1  0.13932280  0.08649404  1.01017064  1
  H  H164  1  0.45889287  0.58415025  0.51037375  1
  H  H165  1  0.05199672  0.75168485  1.00440176  1
  H  H166  1  0.46143246  0.41731301  1.00487532  1
  H  H167  1  0.04156504  0.08531742  0.49018513  1
  H  H168  1  0.64639485  0.91374149  0.99629319  1
  H  H169  1  0.20829051  0.24561082  1.00384042  1
  H  H170  1  0.45942765  0.91112808  0.50819062  1
  H  H171  1  0.62187365  0.08010606  0.51915221  1
  H  H172  1  0.39941000  0.25031478  0.00959353  1
  H  H173  1  0.95946001  0.75694803  0.49428822  1
  H  H174  1  0.13379555  0.41791689  0.02075978  1
  H  H175  1  0.07506262  0.41549694  0.50302462  1
  H  H176  1  0.86268231  0.24581157  0.98977196  1
  H  H177  1  0.59911274  0.58563457  0.00584417  1
  H  H178  1  0.15915381  0.75190905  0.49467709  1
  H  H179  1  0.60407185  0.25818821  0.49168488  1
  H  H180  1  0.47548343  0.07621137  0.48843540  1
  H  H181  1  0.44328570  0.25334270  0.50435927  1
  H  H182  1  0.03172054  0.58512396  0.50877210  1
  H  H183  1  0.29655456  0.91418149  0.49584604  1
  H  H184  1  0.64708120  0.75385184  0.48864620  1
  H  H185  1  0.70179897  0.41438307  -0.01056974  1
  H  H186  1  0.10166211  0.58649913  0.00858834  1
  H  H187  1  0.43718938  0.75389006  1.00578725  1
  H  H188  1  0.80172327  0.75033087  0.50715504  1
  H  H189  1  0.14311360  0.24315757  0.51181095  1
  H  H190  1  0.61989066  0.58550624  0.48224836  1
  H  H191  1  0.62850987  0.91689191  0.49996282  1
  Pb  Pb192  1  0.25510541  0.04991447  0.73835490  1
  Pb  Pb193  1  0.24698236  0.38213197  0.75447347  1
  Pb  Pb194  1  0.25051055  0.71353599  0.75242238  1
  Pb  Pb195  1  0.74871662  0.04552387  0.75719527  1
  Pb  Pb196  1  0.75150195  0.37949714  0.74405424  1
  Pb  Pb197  1  0.74709989  0.71630554  0.74416428  1
  Pb  Pb198  1  0.24644277  0.28323123  0.24878505  1
  Pb  Pb199  1  0.25167388  0.61994236  0.25792061  1
  Pb  Pb200  1  0.25356260  0.95231795  0.25367545  1
  Pb  Pb201  1  0.74968047  0.28764766  0.25395756  1
  Pb  Pb202  1  0.75010125  0.61894686  0.24110829  1
  Pb  Pb203  1  0.75382741  0.95239431  0.24478108  1
  Pb  Pb204  1  -0.00000526  0.21274341  0.75159050  1
  Pb  Pb205  1  -0.00559018  0.54938826  0.74927261  1
  Pb  Pb206  1  -0.00289208  0.88054932  0.74636771  1
  Pb  Pb207  1  0.50337096  0.21618077  0.74800845  1
  Pb  Pb208  1  0.49941552  0.54685248  0.75193433  1
  Pb  Pb209  1  0.49417310  0.88022451  0.75121576  1
  Pb  Pb210  1  -0.00570969  0.11698300  0.25185652  1
  Pb  Pb211  1  0.00064259  0.45378237  0.25414986  1
  Pb  Pb212  1  -0.00347215  0.78393121  0.24324840  1
  Pb  Pb213  1  0.50023700  0.11882127  0.25003922  1
  Pb  Pb214  1  0.49868890  0.45282555  0.23986159  1
  Pb  Pb215  1  0.50089725  0.78633920  0.25665713  1
  C  C216  1  0.00064724  0.04463721  0.63168325  1
  C  C217  1  -0.00486616  0.37854641  0.63342709  1
  C  C218  1  0.00438563  0.71325362  0.63276879  1
  C  C219  1  0.50083126  0.04564288  0.62806057  1
  C  C220  1  0.50070075  0.38030348  0.62944408  1
  C  C221  1  0.50381563  0.71232167  0.63029604  1
  C  C222  1  -0.00437731  0.28767839  0.13328099  1
  C  C223  1  0.00296611  0.62071779  0.12949429  1
  C  C224  1  0.00505104  0.95440083  0.12965346  1
  C  C225  1  0.49592730  0.28710972  0.13499286  1
  C  C226  1  0.50685754  0.62150849  0.12954651  1
  C  C227  1  0.50482925  0.95557457  0.13107631  1
  C  C228  1  -0.00176415  0.04308635  0.86556224  1
  C  C229  1  0.00271907  0.38167844  0.87281776  1
  C  C230  1  0.00209695  0.71118809  0.86995055  1
  C  C231  1  0.50357422  0.04376846  0.87041259  1
  C  C232  1  0.49911258  0.37905209  0.86727010  1
  C  C233  1  0.49977161  0.71254359  0.86907328  1
  C  C234  1  0.00332342  0.28813660  0.36802277  1
  C  C235  1  0.00102625  0.62135045  0.36942840  1
  C  C236  1  0.00072963  0.95301861  0.36985429  1
  C  C237  1  0.50488631  0.28904281  0.36583052  1
  C  C238  1  0.49897126  0.62031204  0.36737047  1
  C  C239  1  0.51032492  0.95319171  0.36903092  1
  C  C240  1  0.24745906  0.21855948  0.63152918  1
  C  C241  1  0.25342003  0.54444028  0.63464574  1
  C  C242  1  0.24714449  0.87852416  0.63593051  1
  C  C243  1  0.74913167  0.21194586  0.63246957  1
  C  C244  1  0.74959677  0.54473316  0.62843001  1
  C  C245  1  0.74333012  0.88095741  0.62504300  1
  C  C246  1  0.25066864  0.11995598  0.12973198  1
  C  C247  1  0.25010338  0.45482883  0.12995590  1
  C  C248  1  0.24859152  0.78889260  0.13410803  1
  C  C249  1  0.74603303  0.12086190  0.13322145  1
  C  C250  1  0.74861677  0.45331799  0.13007777  1
  C  C251  1  0.75212004  0.78757649  0.12560631  1
  C  C252  1  0.25213178  0.20892419  0.86767149  1
  C  C253  1  0.24750420  0.54716687  0.87084248  1
  C  C254  1  0.24602023  0.87996987  0.87092351  1
  C  C255  1  0.75430964  0.21159012  0.86629564  1
  C  C256  1  0.74500343  0.54645106  0.86952317  1
  C  C257  1  0.74898029  0.87891819  0.87152620  1
  C  C258  1  0.24799510  0.12015424  0.36520119  1
  C  C259  1  0.25544926  0.45301940  0.36794355  1
  C  C260  1  0.24344802  0.78715053  0.36957900  1
  C  C261  1  0.74714901  0.12004050  0.37219645  1
  C  C262  1  0.75043690  0.45453462  0.37420822  1
  C  C263  1  0.74472965  0.78941733  0.36867233  1
  C  C264  1  0.81357400  0.42985077  0.04426888  1
  C  C265  1  0.55459441  0.92502114  0.04291947  1
  C  C266  1  0.70501446  0.09381030  0.46454242  1
  C  C267  1  0.78726533  0.43090043  0.46791680  1
  C  C268  1  0.55546978  0.73880500  0.95786879  1
  C  C269  1  0.01333690  0.25830472  0.03606937  1
  C  C270  1  0.77558042  0.90667785  0.96724594  1
  C  C271  1  0.06367155  0.92715092  0.04376624  1
  C  C272  1  0.68201262  0.90669829  0.53810375  1
  C  C273  1  0.05700837  0.92678363  0.45897399  1
  C  C274  1  0.21063681  0.57130036  0.54247845  1
  C  C275  1  0.93105369  0.59292813  0.45082573  1
  C  C276  1  0.70665550  0.43141065  0.46620428  1
  C  C277  1  0.47675580  0.26363281  0.46245017  1
  C  C278  1  0.01529852  0.07359730  0.53469595  1
  C  C279  1  0.26682008  0.90482457  0.53983269  1
  C  C280  1  0.68673108  0.57292332  0.95589234  1
  C  C281  1  0.94436771  0.74220832  0.95687534  1
  C  C282  1  0.57083911  0.92805231  0.45634922  1
  C  C283  1  0.26922726  0.09164923  0.03292805  1
  C  C284  1  0.73345269  0.42619804  0.03177980  1
  C  C285  1  0.76676908  0.75661680  0.02827993  1
  C  C286  1  0.48606879  0.59378018  0.46573512  1
  C  C287  1  0.48988141  0.92435739  0.46572897  1
  C  C288  1  0.03535650  0.40562270  0.54166320  1
  C  C289  1  0.76271624  0.90991458  0.52914399  1
  C  C290  1  0.81319640  0.23589616  0.95490947  1
  C  C291  1  0.93304694  0.26203729  0.04674931  1
  C  C292  1  0.48055734  0.74410332  0.53598371  1
  C  C293  1  0.71264973  0.57065161  0.53429262  1
  C  C294  1  0.69438068  0.90512836  0.96162623  1
  C  C295  1  0.51774061  0.41116626  0.53400403  1
  C  C296  1  0.52597710  0.26208753  0.03863962  1
  C  C297  1  0.77710561  0.24485859  0.53947228  1
  C  C298  1  0.98826891  0.74333271  0.53738654  1
  C  C299  1  0.97605623  0.92505984  0.46584229  1
  C  C300  1  0.73181705  0.23741692  0.96349178  1
  C  C301  1  0.77082281  0.76071405  0.46404210  1
  C  C302  1  0.31415758  0.76539491  0.04884028  1
  C  C303  1  0.18731114  0.57519259  0.95751884  1
  C  C304  1  0.23426756  0.76162303  0.03594065  1
  C  C305  1  0.55850758  0.26628333  0.45649386  1
  C  C306  1  0.79378245  0.57014089  0.53602806  1
  C  C307  1  0.18869644  0.09491982  0.04238119  1
  C  C308  1  0.56636700  0.59507085  0.45206612  1
  C  C309  1  0.03573456  0.40845470  0.96876067  1
  C  C310  1  0.47443248  0.74120603  0.96568757  1
  C  C311  1  0.44416244  0.26090788  0.04472664  1
  N  N312  1  0.18845965  0.23143711  0.54326354  1
  N  N313  1  0.29029193  0.57447276  0.54306553  1
  N  N314  1  0.29707503  0.42605841  0.45795559  1
  N  N315  1  0.76301663  0.57630750  0.96701126  1
  N  N316  1  0.26576357  0.57830348  0.96524860  1
  N  N317  1  0.68981753  0.76083127  0.04102470  1
  N  N318  1  0.97966875  0.25915920  0.46369024  1
  N  N319  1  0.27780987  0.75891164  0.46388874  1
  N  N320  1  0.57014158  0.06589001  0.54594688  1
  N  N321  1  0.19982762  0.75945757  0.45888258  1
  N  N322  1  0.26686092  0.23203786  0.53291692  1
  N  N323  1  0.04964314  0.07300636  0.95386998  1
  N  N324  1  0.06660394  0.74001894  0.54631348  1
  N  N325  1  0.20728655  0.09847506  0.45828976  1
  N  N326  1  0.31155946  0.23819437  0.95349245  1
  N  N327  1  0.93754114  0.07018233  0.54755135  1
  N  N328  1  0.55380361  0.59403905  0.04096010  1
  N  N329  1  0.28848949  0.09175582  0.45626395  1
  N  N330  1  0.25989773  0.41887368  0.03699800  1
  N  N331  1  0.55772923  0.74129700  0.54115113  1
  N  N332  1  0.05574394  0.59282063  0.04309354  1
  N  N333  1  0.18357546  0.43323187  0.04686632  1
  N  N334  1  0.44094805  0.40786681  0.54173350  1
  N  N335  1  0.97399912  0.07377517  0.96055925  1
  N  N336  1  0.95616178  0.40694055  0.53948764  1
  N  N337  1  0.76993088  0.09178515  0.03752101  1
  N  N338  1  0.69197832  0.75997640  0.45559807  1
  N  N339  1  0.02279786  0.74312932  0.96347156  1
  N  N340  1  0.18843965  0.90568314  0.54841289  1
  N  N341  1  0.48564276  0.40948323  0.96117019  1
  N  N342  1  0.78302017  0.09203845  0.46742464  1
  N  N343  1  0.69983129  0.24388054  0.54268228  1
  N  N344  1  0.00873869  0.58934624  0.46454551  1
  N  N345  1  0.69386077  0.09327643  0.04386293  1
  N  N346  1  0.49432845  0.07986693  0.53417178  1
  N  N347  1  0.95663511  0.40806433  0.96356361  1
  N  N348  1  0.56272379  0.40604195  0.95223474  1
  N  N349  1  0.21862982  0.42620005  0.46211253  1
  N  N350  1  0.54374245  0.07395815  0.95952315  1
  N  N351  1  0.46555230  0.07488224  0.96286166  1
  N  N352  1  0.05585744  0.26069280  0.45709693  1
  N  N353  1  0.23416375  0.24114800  0.96062286  1
  N  N354  1  0.19416846  0.90594458  0.95815594  1
  N  N355  1  0.47596607  0.59323208  0.03462954  1
  N  N356  1  0.98735584  0.92265630  0.03286735  1
  N  N357  1  0.97842622  0.59115514  0.03404921  1
  N  N358  1  0.47761344  0.92297814  0.03576598  1
  N  N359  1  0.27145161  0.90814938  0.96670230  1
  N  N360  1  0.05507026  0.05812863  0.58714642  1
  N  N361  1  0.06096327  0.38887724  0.59911683  1
  N  N362  1  0.07494605  0.72163830  0.60612033  1
  N  N363  1  0.57424281  0.05389957  0.60632805  1
  N  N364  1  0.55654022  0.39448655  0.58642035  1
  N  N365  1  0.57239606  0.72124456  0.60102707  1
  N  N366  1  0.42707066  0.27627623  0.10471939  1
  N  N367  1  0.44710630  0.60990146  0.09018297  1
  N  N368  1  0.44636752  0.94276880  0.09191265  1
  N  N369  1  0.92261870  0.27962490  0.10566224  1
  N  N370  1  0.94583911  0.60783898  0.08818609  1
  N  N371  1  0.95084113  0.94023970  0.08748198  1
  N  N372  1  0.44097660  0.05665764  0.90671376  1
  N  N373  1  0.44529592  0.39066464  0.91073779  1
  N  N374  1  0.44088566  0.72418825  0.90900094  1
  N  N375  1  0.94047961  0.05486391  0.90606719  1
  N  N376  1  0.93640856  0.39143404  0.90453796  1
  N  N377  1  0.93138442  0.72289866  0.89886151  1
  N  N378  1  0.07178972  0.27825450  0.39761877  1
  N  N379  1  0.05214989  0.61033062  0.41514341  1
  N  N380  1  0.07105807  0.94417991  0.39813749  1
  N  N381  1  0.57433882  0.28168759  0.39645037  1
  N  N382  1  0.57219889  0.61134457  0.39101435  1
  N  N383  1  0.58222803  0.94529886  0.39681700  1
  N  N384  1  0.30302820  0.22969167  0.58906484  1
  N  N385  1  0.31659858  0.55447268  0.59907757  1
  N  N386  1  0.30423474  0.88860778  0.59329477  1
  N  N387  1  0.80975397  0.22540008  0.59329539  1
  N  N388  1  0.81589571  0.55457909  0.59430400  1
  N  N389  1  0.79958133  0.89407768  0.58173276  1
  N  N390  1  0.17869578  0.11241692  0.10375757  1
  N  N391  1  0.17742531  0.44578182  0.10717180  1
  N  N392  1  0.19418204  0.77629102  0.09055002  1
  N  N393  1  0.67786164  0.11141844  0.10326517  1
  N  N394  1  0.69390902  0.44130935  0.08672814  1
  N  N395  1  0.68044119  0.77991327  0.10089749  1
  N  N396  1  0.19661530  0.22043645  0.90972798  1
  N  N397  1  0.17569158  0.55693256  0.89872894  1
  N  N398  1  0.17733167  0.88938978  0.89998247  1
  N  N399  1  0.69638159  0.22231869  0.90797812  1
  N  N400  1  0.67298347  0.55535843  0.89624577  1
  N  N401  1  0.67940203  0.88789345  0.90064772  1
  N  N402  1  0.31175574  0.11565273  0.40164716  1
  N  N403  1  0.32066596  0.44292030  0.40130774  1
  N  N404  1  0.30436664  0.77540708  0.40774902  1
  N  N405  1  0.80904576  0.10920835  0.40864820  1
  N  N406  1  0.81446159  0.44478073  0.41169592  1
  N  N407  1  0.80415266  0.77828156  0.40987257  1
  N  N408  1  0.44470303  0.27752159  0.40537959  1
  N  N409  1  0.44509789  0.60953488  0.41239493  1
  N  N410  1  0.45320305  0.94043094  0.41042978  1
  N  N411  1  0.94596806  0.27642178  0.40885105  1
  N  N412  1  0.92679830  0.61118207  0.39155284  1
  N  N413  1  0.94229543  0.94100702  0.41220047  1
  N  N414  1  0.06640040  0.05438324  0.89510134  1
  N  N415  1  0.06453118  0.39282896  0.91212019  1
  N  N416  1  0.05964910  0.72220470  0.91068810  1
  N  N417  1  0.56833686  0.05436680  0.90405891  1
  N  N418  1  0.57029310  0.38891564  0.89336005  1
  N  N419  1  0.57023690  0.72198068  0.89904202  1
  N  N420  1  0.05149597  0.27480006  0.09118486  1
  N  N421  1  0.07199032  0.61160435  0.10072223  1
  N  N422  1  0.07724191  0.94581735  0.10313053  1
  N  N423  1  0.55682148  0.27823309  0.09523898  1
  N  N424  1  0.57369100  0.61073002  0.09846858  1
  N  N425  1  0.57393627  0.94393924  0.10094834  1
  N  N426  1  0.45065866  0.05768096  0.58193279  1
  N  N427  1  0.43031688  0.38856645  0.60265437  1
  N  N428  1  0.44532992  0.72644695  0.58945032  1
  N  N429  1  0.92896434  0.05207518  0.60687339  1
  N  N430  1  0.93286605  0.38999262  0.59691968  1
  N  N431  1  0.94872331  0.72651505  0.58990244  1
  N  N432  1  0.18436427  0.10535860  0.39844327  1
  N  N433  1  0.19365143  0.44212404  0.40548699  1
  N  N434  1  0.17745622  0.77724204  0.40212399  1
  N  N435  1  0.68104588  0.11004484  0.40642517  1
  N  N436  1  0.68387621  0.44542826  0.40892270  1
  N  N437  1  0.67620172  0.77870009  0.39734309  1
  N  N438  1  0.32206791  0.22086010  0.89482332  1
  N  N439  1  0.30356322  0.55965482  0.91201479  1
  N  N440  1  0.30347815  0.89163184  0.91232866  1
  N  N441  1  0.82523875  0.22004033  0.89429000  1
  N  N442  1  0.79947617  0.55921423  0.91196448  1
  N  N443  1  0.80854353  0.89089992  0.91313460  1
  N  N444  1  0.30665083  0.10677233  0.08540786  1
  N  N445  1  0.30178544  0.44237154  0.08495387  1
  N  N446  1  0.32214316  0.78158906  0.10808917  1
  N  N447  1  0.80349160  0.10868226  0.09249127  1
  N  N448  1  0.82174641  0.44597781  0.10382214  1
  N  N449  1  0.80589825  0.77320705  0.08055743  1
  N  N450  1  0.17690578  0.22195335  0.60344717  1
  N  N451  1  0.18746087  0.55456938  0.59972373  1
  N  N452  1  0.17767919  0.88923922  0.60823752  1
  N  N453  1  0.68208099  0.22324165  0.60186586  1
  N  N454  1  0.68615820  0.55523457  0.59132204  1
  N  N455  1  0.67143206  0.88877266  0.59861623  1
  Cl  Cl456  1  0.25953277  0.06418737  0.59569825  1
  Cl  Cl457  1  0.24690402  0.38315416  0.62201882  1
  Cl  Cl458  1  0.26020004  0.71904863  0.61981732  1
  Cl  Cl459  1  0.75077538  0.04801048  0.62453359  1
  Cl  Cl460  1  0.74435446  0.38844434  0.61113694  1
  Cl  Cl461  1  0.76243150  0.72378601  0.60858056  1
  Cl  Cl462  1  0.23708123  0.27394424  0.10947855  1
  Cl  Cl463  1  0.26080879  0.60858551  0.11152482  1
  Cl  Cl464  1  0.26098986  0.94805708  0.12163648  1
  Cl  Cl465  1  0.73857816  0.27989213  0.12048174  1
  Cl  Cl466  1  0.75739402  0.61667537  0.10956165  1
  Cl  Cl467  1  0.76226220  0.93962266  0.10995671  1
  Cl  Cl468  1  0.25404143  0.05306414  0.87213315  1
  Cl  Cl469  1  0.25877341  0.39756544  0.89830995  1
  Cl  Cl470  1  0.24536204  0.72200443  0.88855466  1
  Cl  Cl471  1  0.75283488  0.05134615  0.88887873  1
  Cl  Cl472  1  0.75412453  0.38778852  0.87790349  1
  Cl  Cl473  1  0.75104375  0.72049219  0.87571462  1
  Cl  Cl474  1  0.25843037  0.27698129  0.39312715  1
  Cl  Cl475  1  0.24870648  0.60445921  0.39699304  1
  Cl  Cl476  1  0.26631388  0.94615752  0.38943846  1
  Cl  Cl477  1  0.76165271  0.28230526  0.38597917  1
  Cl  Cl478  1  0.75095418  0.62026402  0.37105768  1
  Cl  Cl479  1  0.76331110  0.94718607  0.37651287  1
  Cl  Cl480  1  -0.00546184  0.21609536  0.62032240  1
  Cl  Cl481  1  0.00491574  0.55957132  0.60952099  1
  Cl  Cl482  1  -0.01468285  0.88922715  0.61294364  1
  Cl  Cl483  1  0.48716339  0.22073041  0.61226280  1
  Cl  Cl484  1  0.49923472  0.55519812  0.61675254  1
  Cl  Cl485  1  0.48544179  0.88613938  0.61571429  1
  Cl  Cl486  1  -0.01247773  0.11319477  0.12370236  1
  Cl  Cl487  1  0.00072506  0.44635717  0.11870598  1
  Cl  Cl488  1  0.00366342  0.77278230  0.10457067  1
  Cl  Cl489  1  0.49403236  0.10718900  0.11793472  1
  Cl  Cl490  1  0.48727972  0.43964517  0.09945743  1
  Cl  Cl491  1  0.50239026  0.78101028  0.12481784  1
  Cl  Cl492  1  0.01582893  0.22494558  0.88647888  1
  Cl  Cl493  1  -0.00963511  0.55204335  0.88116472  1
  Cl  Cl494  1  -0.00493045  0.87957230  0.87886187  1
  Cl  Cl495  1  0.51000432  0.22056606  0.88205213  1
  Cl  Cl496  1  0.48795637  0.55536434  0.88419134  1
  Cl  Cl497  1  0.48902912  0.88823234  0.87918903  1
  Cl  Cl498  1  -0.00083896  0.10945728  0.38963611  1
  Cl  Cl499  1  0.00807128  0.44842722  0.38627845  1
  Cl  Cl500  1  -0.00897084  0.77716752  0.38249470  1
  Cl  Cl501  1  0.49421187  0.10203097  0.39163958  1
  Cl  Cl502  1  0.49988718  0.44624597  0.37164956  1
  Cl  Cl503  1  0.48964623  0.77622499  0.38878061  1
  Cl  Cl504  1  0.35250599  0.14974001  0.74890966  1
  Cl  Cl505  1  0.36016990  0.48132448  0.74990114  1
  Cl  Cl506  1  0.35265754  0.81949452  0.75442019  1
  Cl  Cl507  1  0.85963466  0.14751652  0.75234010  1
  Cl  Cl508  1  0.85981985  0.48210853  0.74510244  1
  Cl  Cl509  1  0.85734921  0.81643138  0.75155274  1
  Cl  Cl510  1  0.14132359  0.18701945  0.25152872  1
  Cl  Cl511  1  0.13984627  0.51998843  0.24403442  1
  Cl  Cl512  1  0.14304060  0.85267714  0.25586541  1
  Cl  Cl513  1  0.63500328  0.18804357  0.25512067  1
  Cl  Cl514  1  0.63949421  0.51838760  0.24768165  1
  Cl  Cl515  1  0.63654075  0.85515949  0.25296013  1
  Cl  Cl516  1  0.13571324  0.14604537  0.74067792  1
  Cl  Cl517  1  0.14189876  0.47929995  0.75625913  1
  Cl  Cl518  1  0.13094402  0.80936799  0.74305184  1
  Cl  Cl519  1  0.63893540  0.14745064  0.74447601  1
  Cl  Cl520  1  0.63753941  0.47925531  0.75590578  1
  Cl  Cl521  1  0.64018356  0.81112744  0.74503298  1
  Cl  Cl522  1  0.36082737  0.18379973  0.25087391  1
  Cl  Cl523  1  0.35867231  0.51732061  0.24873963  1
  Cl  Cl524  1  0.36280041  0.85031498  0.24872088  1
  Cl  Cl525  1  0.85598746  0.18322457  0.25255462  1
  Cl  Cl526  1  0.86151041  0.51850954  0.24838836  1
  Cl  Cl527  1  0.85630700  0.84595534  0.24785772  1
  Cl  Cl528  1  0.11231683  0.31332536  0.74899928  1
  Cl  Cl529  1  0.11680733  0.64343842  0.74389563  1
  Cl  Cl530  1  0.10979465  0.97777024  0.74695329  1
  Cl  Cl531  1  0.60798834  0.31427534  0.75054186  1
  Cl  Cl532  1  0.61307994  0.64679258  0.75087577  1
  Cl  Cl533  1  0.61100103  0.97854618  0.74531429  1
  Cl  Cl534  1  0.39332673  0.01739418  0.25619980  1
  Cl  Cl535  1  0.38462208  0.35324023  0.24612136  1
  Cl  Cl536  1  0.39211983  0.68341439  0.24617009  1
  Cl  Cl537  1  0.89842304  0.01345933  0.25074002  1
  Cl  Cl538  1  0.89018405  0.35266767  0.24217086  1
  Cl  Cl539  1  0.89494355  0.68356029  0.24859970  1
  Cl  Cl540  1  0.38680493  0.31435856  0.74981545  1
  Cl  Cl541  1  0.39226746  0.65042775  0.74829995  1
  Cl  Cl542  1  0.39398713  0.98620263  0.74697346  1
  Cl  Cl543  1  0.89245028  0.31595868  0.75588519  1
  Cl  Cl544  1  0.89630865  0.64844155  0.75146553  1
  Cl  Cl545  1  0.88841060  0.98267829  0.74918406  1
  Cl  Cl546  1  0.11814009  0.02283549  0.25538601  1
  Cl  Cl547  1  0.11517170  0.35409948  0.25408847  1
  Cl  Cl548  1  0.11325374  0.68522054  0.24826381  1
  Cl  Cl549  1  0.61657792  0.02115038  0.25029479  1
  Cl  Cl550  1  0.60725587  0.35122418  0.25044253  1
  Cl  Cl551  1  0.61335880  0.68620727  0.25251561  1
