# generated using pymatgen
data_H8PbC4(N3Cl2)2
_symmetry_space_group_name_H-M   'P 1'
_cell_length_a   16.62804898
_cell_length_b   22.51761462
_cell_length_c   21.59451403
_cell_angle_alpha   89.99991265
_cell_angle_beta   90.00339189
_cell_angle_gamma   89.99196011
_symmetry_Int_Tables_number   1
_chemical_formula_structural   H8PbC4(N3Cl2)2
_chemical_formula_sum   'H192 Pb24 C96 N144 Cl96'
_cell_volume   8085.50420036
_cell_formula_units_Z   24
loop_
 _symmetry_equiv_pos_site_id
 _symmetry_equiv_pos_as_xyz
  1  'x, y, z'
loop_
 _atom_site_type_symbol
 _atom_site_label
 _atom_site_symmetry_multiplicity
 _atom_site_fract_x
 _atom_site_fract_y
 _atom_site_fract_z
 _atom_site_occupancy
  H  H0  1  -0.00223931  0.02752171  0.67881062  1
  H  H1  1  0.00960721  0.36300621  0.67870156  1
  H  H2  1  0.00835878  0.69064640  0.67902968  1
  H  H3  1  0.50311682  0.02839832  0.67568420  1
  H  H4  1  0.48871826  0.36121196  0.67733958  1
  H  H5  1  0.48759200  0.69997524  0.67807609  1
  H  H6  1  -0.00524336  0.30177417  0.18147444  1
  H  H7  1  0.01284602  0.63811772  0.17770542  1
  H  H8  1  0.01540598  0.97207932  0.18198525  1
  H  H9  1  0.49713825  0.30725180  0.17737837  1
  H  H10  1  0.48802039  0.63547604  0.17898183  1
  H  H11  1  0.49266491  0.96864093  0.17801234  1
  H  H12  1  -0.01513435  0.03200699  0.82479888  1
  H  H13  1  -0.00371952  0.36350013  0.82304644  1
  H  H14  1  0.00274382  0.69737528  0.82278331  1
  H  H15  1  0.50689213  0.02980554  0.82063238  1
  H  H16  1  0.50073865  0.36070406  0.82354936  1
  H  H17  1  0.50062633  0.69372715  0.82101029  1
  H  H18  1  0.00861039  0.30365700  0.31934447  1
  H  H19  1  -0.02001062  0.63656280  0.32846238  1
  H  H20  1  -0.01102269  0.96922732  0.32295074  1
  H  H21  1  0.49928359  0.30549871  0.31993706  1
  H  H22  1  0.51248707  0.63806665  0.32289183  1
  H  H23  1  0.50347270  0.97174525  0.32340700  1
  H  H24  1  0.26175103  0.19419700  0.67520165  1
  H  H25  1  0.25976488  0.53353087  0.67539733  1
  H  H26  1  0.25707762  0.86372948  0.68283674  1
  H  H27  1  0.75465436  0.19710906  0.68321891  1
  H  H28  1  0.73803135  0.52480457  0.67667567  1
  H  H29  1  0.75916298  0.86414171  0.67695403  1
  H  H30  1  0.26948981  0.13389143  0.17468173  1
  H  H31  1  0.26038600  0.46531406  0.17700020  1
  H  H32  1  0.24569318  0.80417349  0.17949906  1
  H  H33  1  0.74036232  0.13645011  0.17689589  1
  H  H34  1  0.75051024  0.47238780  0.17809501  1
  H  H35  1  0.74686040  0.80459821  0.17859826  1
  H  H36  1  0.24886633  0.19252600  0.81914897  1
  H  H37  1  0.24047718  0.52531777  0.82134034  1
  H  H38  1  0.25498777  0.86167429  0.81731458  1
  H  H39  1  0.75987834  0.19848699  0.82086144  1
  H  H40  1  0.75416169  0.52826317  0.82405865  1
  H  H41  1  0.76279762  0.86387911  0.81939576  1
  H  H42  1  0.26759462  0.13325907  0.32474220  1
  H  H43  1  0.24771115  0.47113441  0.32098951  1
  H  H44  1  0.23910653  0.80188106  0.31661141  1
  H  H45  1  0.74251305  0.13497647  0.32118854  1
  H  H46  1  0.74645451  0.46938356  0.31782719  1
  H  H47  1  0.76261117  0.80253597  0.32169665  1
  H  H48  1  0.11904656  0.05444548  0.60641734  1
  H  H49  1  0.11268908  0.39098458  0.59451671  1
  H  H50  1  0.12649162  0.71919112  0.60348723  1
  H  H51  1  0.61511092  0.05691854  0.59535971  1
  H  H52  1  0.61630284  0.38822905  0.60985492  1
  H  H53  1  0.62737935  0.71963999  0.62356776  1
  H  H54  1  0.37953706  0.27678878  0.10364994  1
  H  H55  1  0.37036296  0.60705615  0.10445671  1
  H  H56  1  0.38319348  0.94526525  0.09592790  1
  H  H57  1  0.88286681  0.27664616  0.10019906  1
  H  H58  1  0.86890228  0.61799265  0.13182926  1
  H  H59  1  0.88477367  0.94906565  0.11588516  1
  H  H60  1  0.37104545  0.05023574  0.88196779  1
  H  H61  1  0.38140032  0.38916067  0.89665042  1
  H  H62  1  0.36549318  0.71999465  0.87925235  1
  H  H63  1  0.87593259  0.05935594  0.90598834  1
  H  H64  1  0.88306274  0.39137737  0.90149326  1
  H  H65  1  0.86877651  0.71995796  0.88209247  1
  H  H66  1  0.12823525  0.27743556  0.39311757  1
  H  H67  1  0.12367581  0.61656715  0.37506581  1
  H  H68  1  0.12746023  0.95479809  0.37559171  1
  H  H69  1  0.62512916  0.28226439  0.38922041  1
  H  H70  1  0.61399071  0.60422452  0.40769740  1
  H  H71  1  0.63339071  0.94597757  0.38952348  1
  H  H72  1  0.37135356  0.22217864  0.59420413  1
  H  H73  1  0.36969075  0.55701860  0.59484100  1
  H  H74  1  0.37051111  0.88955324  0.60182872  1
  H  H75  1  0.87544337  0.22348044  0.61111252  1
  H  H76  1  0.87669242  0.55087293  0.62370042  1
  H  H77  1  0.86743354  0.89221015  0.59505621  1
  H  H78  1  0.12760660  0.11919280  0.12573693  1
  H  H79  1  0.11959984  0.44827492  0.12486902  1
  H  H80  1  0.13636342  0.77505261  0.09889924  1
  H  H81  1  0.62877627  0.10884753  0.09663096  1
  H  H82  1  0.61678875  0.44762851  0.11686216  1
  H  H83  1  0.63636615  0.77551947  0.09720219  1
  H  H84  1  0.11910772  0.21639705  0.88625589  1
  H  H85  1  0.13761793  0.55957773  0.90605540  1
  H  H86  1  0.12250428  0.88384086  0.88149958  1
  H  H87  1  0.61853190  0.21545963  0.86983704  1
  H  H88  1  0.62754277  0.55491778  0.89087106  1
  H  H89  1  0.62579513  0.88442647  0.87895603  1
  H  H90  1  0.37647731  0.11022827  0.40564600  1
  H  H91  1  0.38284674  0.44965073  0.38130260  1
  H  H92  1  0.36944880  0.78041974  0.37930496  1
  H  H93  1  0.88156474  0.11391042  0.37634320  1
  H  H94  1  0.87788336  0.44878973  0.38374364  1
  H  H95  1  0.86812240  0.77534917  0.40555592  1
  H  H96  1  0.37588951  0.27849814  0.39119108  1
  H  H97  1  0.37058331  0.61600511  0.37076473  1
  H  H98  1  0.38438927  0.94596957  0.39817968  1
  H  H99  1  0.87944106  0.28090241  0.38629250  1
  H  H100  1  0.88197947  0.60245962  0.41475547  1
  H  H101  1  0.88261031  0.94063357  0.40545049  1
  H  H102  1  0.12151841  0.04883711  0.87895742  1
  H  H103  1  0.13159841  0.38674363  0.88204451  1
  H  H104  1  0.11602033  0.72473596  0.90152527  1
  H  H105  1  0.61912941  0.05652690  0.90062038  1
  H  H106  1  0.62948535  0.38741397  0.89032536  1
  H  H107  1  0.61334178  0.72171971  0.89937280  1
  H  H108  1  0.13055633  0.28087319  0.12377279  1
  H  H109  1  0.11083122  0.60551549  0.08982151  1
  H  H110  1  0.13377624  0.94861219  0.10546484  1
  H  H111  1  0.62782208  0.28307567  0.11361653  1
  H  H112  1  0.61842597  0.61236191  0.11411048  1
  H  H113  1  0.62942505  0.95134112  0.12356790  1
  H  H114  1  0.36819537  0.05244767  0.61542809  1
  H  H115  1  0.36788143  0.38799835  0.60218059  1
  H  H116  1  0.38132400  0.72525521  0.59507572  1
  H  H117  1  0.86990236  0.05161980  0.61050320  1
  H  H118  1  0.86839488  0.38157937  0.62979789  1
  H  H119  1  0.87827873  0.72016149  0.61864365  1
  H  H120  1  0.13086389  0.11662964  0.37994887  1
  H  H121  1  0.13606189  0.44274551  0.40203806  1
  H  H122  1  0.12063507  0.78232268  0.39249995  1
  H  H123  1  0.63476852  0.10898571  0.40376433  1
  H  H124  1  0.63018286  0.44492005  0.39686805  1
  H  H125  1  0.62245918  0.78206263  0.37628182  1
  H  H126  1  0.36797077  0.21960283  0.89290710  1
  H  H127  1  0.38171504  0.54645192  0.87037597  1
  H  H128  1  0.37096333  0.88936505  0.89316972  1
  H  H129  1  0.86274267  0.22415325  0.90605701  1
  H  H130  1  0.87638568  0.55553195  0.89439353  1
  H  H131  1  0.87346791  0.89033594  0.90019069  1
  H  H132  1  0.37061611  0.10764221  0.08931258  1
  H  H133  1  0.36372246  0.43888303  0.09035682  1
  H  H134  1  0.38292932  0.78329381  0.12177222  1
  H  H135  1  0.87641801  0.11426736  0.11903082  1
  H  H136  1  0.86473592  0.44320233  0.10167555  1
  H  H137  1  0.88228043  0.77844473  0.12082126  1
  H  H138  1  0.12460173  0.21689576  0.61826758  1
  H  H139  1  0.12276212  0.55165860  0.61909131  1
  H  H140  1  0.12276763  0.88569278  0.61891159  1
  H  H141  1  0.62640774  0.21871455  0.61434425  1
  H  H142  1  0.63215817  0.55528583  0.59192804  1
  H  H143  1  0.62122195  0.88524977  0.62075798  1
  H  H144  1  0.06492209  0.73604290  0.49785246  1
  H  H145  1  0.53462252  0.57801697  0.50508452  1
  H  H146  1  0.60891620  0.91937149  1.00919317  1
  H  H147  1  0.39520849  0.74853964  0.98735509  1
  H  H148  1  0.70932549  0.74930620  -0.00365521  1
  H  H149  1  0.20748363  0.41397979  0.50256015  1
  H  H150  1  0.70477764  0.08123715  0.50875740  1
  H  H151  1  0.54408039  0.08280714  0.49346330  1
  H  H152  1  0.55126159  0.08414787  1.00622755  1
  H  H153  1  0.79330108  0.74920426  0.50949508  1
  H  H154  1  0.94665617  0.42206459  1.00719460  1
  H  H155  1  0.07640933  0.91961290  -0.00056215  1
  H  H156  1  0.60525396  0.74755967  0.51388759  1
  H  H157  1  0.80540239  0.92149779  1.00387186  1
  H  H158  1  0.59124127  0.91915987  0.49481360  1
  H  H159  1  0.06850344  0.08466993  0.49950166  1
  H  H160  1  0.04880820  0.75150641  1.00432879  1
  H  H161  1  0.30791424  0.58288017  0.48783494  1
  H  H162  1  0.21388989  0.58152536  1.00459263  1
  H  H163  1  0.07366312  0.24741872  0.50000023  1
  H  H164  1  0.33462607  0.75732453  0.49434859  1
  H  H165  1  0.67163122  0.57910131  0.99792229  1
  H  H166  1  0.36923087  0.57736752  0.98428810  1
  H  H167  1  0.45293356  0.75241667  0.48959607  1
  H  H168  1  0.30980199  0.92460692  0.99784223  1
  H  H169  1  0.54953167  0.75285119  1.00523563  1
  H  H170  1  0.02693036  0.58195864  -0.00717970  1
  H  H171  1  0.62969783  0.24490991  -0.01576905  1
  H  H172  1  0.20634058  0.74839650  -0.00623518  1
  H  H173  1  0.82195088  0.25466517  0.50357069  1
  H  H174  1  0.58595478  0.41526980  0.99492947  1
  H  H175  1  0.10511566  0.08262294  0.99370014  1
  H  H176  1  0.04032386  0.42061391  0.49173887  1
  H  H177  1  0.10477304  0.24946330  0.01170565  1
  H  H178  1  0.31189907  0.24981184  1.00002372  1
  H  H179  1  0.11429119  0.58340922  0.48629934  1
  H  H180  1  0.71058781  0.58020800  0.49327531  1
  H  H181  1  0.85888944  0.08432064  0.48429412  1
  H  H182  1  0.69858054  0.08182274  -0.00513033  1
  H  H183  1  0.17662888  0.76960935  0.50540543  1
  H  H184  1  0.78866592  0.25346767  1.00883040  1
  H  H185  1  0.83134479  0.58492141  1.00349846  1
  H  H186  1  0.94954247  0.24316774  0.00115796  1
  H  H187  1  0.57790490  0.25172046  0.49787247  1
  H  H188  1  0.11096351  0.92154790  0.49012889  1
  H  H189  1  0.88061105  0.41348272  0.51588948  1
  H  H190  1  0.91492017  0.75708727  0.50836774  1
  H  H191  1  0.10397785  0.41465006  0.99190173  1
  Pb  Pb192  1  0.24462987  0.04665504  0.74771222  1
  Pb  Pb193  1  0.25061597  0.38207380  0.74012144  1
  Pb  Pb194  1  0.24734349  0.71347208  0.74550276  1
  Pb  Pb195  1  0.74968280  0.05076953  0.75363584  1
  Pb  Pb196  1  0.74633738  0.38021895  0.75677653  1
  Pb  Pb197  1  0.74592061  0.71403984  0.75572656  1
  Pb  Pb198  1  0.25695060  0.28274369  0.24826864  1
  Pb  Pb199  1  0.25014264  0.61711433  0.23560299  1
  Pb  Pb200  1  0.25445884  0.95397155  0.24421108  1
  Pb  Pb201  1  0.74862564  0.28506772  0.25025825  1
  Pb  Pb202  1  0.74582900  0.61668974  0.25911981  1
  Pb  Pb203  1  0.75917568  0.94848331  0.25410564  1
  Pb  Pb204  1  0.00038693  0.21697586  0.75818769  1
  Pb  Pb205  1  -0.00191485  0.54674995  0.76116068  1
  Pb  Pb206  1  -0.00490430  0.88060249  0.75013221  1
  Pb  Pb207  1  0.49388190  0.21410633  0.74704092  1
  Pb  Pb208  1  0.50103593  0.54706370  0.73834871  1
  Pb  Pb209  1  0.49803389  0.88356654  0.74762722  1
  Pb  Pb210  1  0.00265055  0.11984990  0.25136818  1
  Pb  Pb211  1  -0.00067334  0.44992361  0.24853836  1
  Pb  Pb212  1  0.00751700  0.78158171  0.25215116  1
  Pb  Pb213  1  0.50636666  0.11352997  0.24863769  1
  Pb  Pb214  1  0.49861885  0.45243058  0.24472687  1
  Pb  Pb215  1  0.50171204  0.78566880  0.24621553  1
  C  C216  1  -0.00468511  0.04389152  0.63153791  1
  C  C217  1  -0.00385084  0.37837151  0.63211216  1
  C  C218  1  0.00498046  0.70833207  0.63221941  1
  C  C219  1  0.49590859  0.04459087  0.62868247  1
  C  C220  1  0.49074801  0.37843623  0.63048145  1
  C  C221  1  0.49957856  0.71435344  0.63084154  1
  C  C222  1  0.00267667  0.28653693  0.13402648  1
  C  C223  1  -0.00223518  0.62228847  0.13173580  1
  C  C224  1  0.01118036  0.95643172  0.13456142  1
  C  C225  1  0.50176962  0.28975700  0.13105764  1
  C  C226  1  0.49247561  0.61919437  0.13208171  1
  C  C227  1  0.50272198  0.95465708  0.13068813  1
  C  C228  1  -0.00510051  0.04682242  0.87191146  1
  C  C229  1  0.00425734  0.37963240  0.87017627  1
  C  C230  1  -0.00400756  0.71274221  0.86996480  1
  C  C231  1  0.49889946  0.04479773  0.86801677  1
  C  C232  1  0.50439107  0.37811453  0.87024056  1
  C  C233  1  0.49245952  0.71073311  0.86772945  1
  C  C234  1  0.00519553  0.28751448  0.36662639  1
  C  C235  1  -0.00413062  0.61964272  0.37386746  1
  C  C236  1  0.00064297  0.95439719  0.36979248  1
  C  C237  1  0.50008689  0.28880963  0.36698584  1
  C  C238  1  0.49912103  0.62120213  0.36872443  1
  C  C239  1  0.50761594  0.95492260  0.37031256  1
  C  C240  1  0.25217344  0.21060163  0.62872103  1
  C  C241  1  0.25102429  0.54718725  0.62770652  1
  C  C242  1  0.24998434  0.87916583  0.63549088  1
  C  C243  1  0.75195922  0.21260013  0.63570999  1
  C  C244  1  0.74853911  0.54212021  0.63052359  1
  C  C245  1  0.74885526  0.88027992  0.63055684  1
  C  C246  1  0.25555061  0.12000249  0.12792722  1
  C  C247  1  0.24776100  0.45122455  0.13010831  1
  C  C248  1  0.25551284  0.78794238  0.13278828  1
  C  C249  1  0.74828520  0.12092060  0.12983248  1
  C  C250  1  0.74356665  0.45504619  0.13180566  1
  C  C251  1  0.75504147  0.78757092  0.13201624  1
  C  C252  1  0.24491562  0.20915022  0.86628526  1
  C  C253  1  0.25313925  0.54224714  0.86751477  1
  C  C254  1  0.24919721  0.87799138  0.86435606  1
  C  C255  1  0.74630017  0.21280174  0.86777579  1
  C  C256  1  0.75238507  0.54551813  0.87110195  1
  C  C257  1  0.75378139  0.87972815  0.86638800  1
  C  C258  1  0.25807563  0.12020129  0.37241085  1
  C  C259  1  0.25525171  0.45473204  0.36786627  1
  C  C260  1  0.24320631  0.78856316  0.36483640  1
  C  C261  1  0.75368552  0.11960882  0.36819125  1
  C  C262  1  0.75159198  0.45472675  0.36555223  1
  C  C263  1  0.75057997  0.78727303  0.36855490  1
  C  C264  1  0.29243435  0.76729692  0.45735364  1
  C  C265  1  0.76039765  0.24066958  0.96542480  1
  C  C266  1  0.21071063  0.77039833  0.46241743  1
  C  C267  1  0.48020489  0.92684002  0.03424353  1
  C  C268  1  0.05921028  0.25967830  0.04632568  1
  C  C269  1  0.27584956  0.23869754  0.95942573  1
  C  C270  1  0.18741917  0.42679061  0.04400419  1
  C  C271  1  0.02918862  0.07282597  0.53860847  1
  C  C272  1  0.93072266  0.40426441  0.54712510  1
  C  C273  1  0.77464956  0.90903254  0.96131532  1
  C  C274  1  0.27247315  0.24184885  0.53404843  1
  C  C275  1  0.26824225  0.09248229  0.03093642  1
  C  C276  1  0.27991748  0.09518670  0.46868037  1
  C  C277  1  0.73349987  0.09172754  0.46479619  1
  C  C278  1  0.79110905  0.57487031  0.96401277  1
  C  C279  1  0.19188274  0.57019135  0.53903359  1
  C  C280  1  0.76949006  0.42219810  0.03826982  1
  C  C281  1  0.56097129  0.92849231  0.04240452  1
  C  C282  1  0.80616470  0.09001324  0.04279817  1
  C  C283  1  0.97834183  0.40973976  0.96499046  1
  C  C284  1  0.95561990  0.74113266  0.54408775  1
  C  C285  1  0.52068487  0.07259603  0.96328496  1
  C  C286  1  0.05402339  0.07313295  0.96019773  1
  C  C287  1  0.47198759  0.25556868  0.03890067  1
  C  C288  1  0.19954950  0.09742638  0.46018999  1
  C  C289  1  0.43159835  0.59018420  0.45131684  1
  C  C290  1  0.98137422  0.92434072  0.46596197  1
  C  C291  1  0.93992895  0.74298582  0.95811928  1
  C  C292  1  0.76777408  0.91198828  0.53563011  1
  C  C293  1  0.97319341  0.07624512  0.96781163  1
  C  C294  1  0.92700337  0.59438032  0.04984560  1
  C  C295  1  0.46193431  0.58893251  0.03818921  1
  C  C296  1  0.04058305  0.92933836  0.04029625  1
  C  C297  1  0.78480114  0.24167063  0.54275599  1
  C  C298  1  0.76585917  0.75999440  0.46501543  1
  C  C299  1  0.31883344  0.56995825  0.95130648  1
  C  C300  1  0.18918761  0.09632580  0.04332728  1
  C  C301  1  0.51855743  0.74143801  0.96249259  1
  C  C302  1  0.48032058  0.74173743  0.53395839  1
  C  C303  1  0.68005992  0.23704396  0.95288650  1
  C  C304  1  0.98499525  0.58478284  0.46996361  1
  C  C305  1  0.53837911  0.26125961  0.45902345  1
  C  C306  1  0.23617583  0.75949866  0.03723156  1
  C  C307  1  0.27604327  0.90958118  0.95750052  1
  C  C308  1  0.27279327  0.57273189  0.52966721  1
  C  C309  1  0.01122768  0.40784921  0.53492266  1
  C  C310  1  0.03649496  0.25904920  0.46017103  1
  C  C311  1  0.06193952  0.92941206  0.45738416  1
  N  N312  1  0.00394484  0.59042706  0.03680184  1
  N  N313  1  0.69604200  0.90688689  0.95427317  1
  N  N314  1  0.81122016  0.57349189  0.54676036  1
  N  N315  1  0.45917349  0.25879733  0.45989795  1
  N  N316  1  0.05734556  0.40799216  0.95753249  1
  N  N317  1  0.53317099  0.41035087  0.53975359  1
  N  N318  1  0.54599912  0.40877356  0.95893559  1
  N  N319  1  0.43963948  0.07394350  0.54156363  1
  N  N320  1  0.53988087  0.59095015  0.03988547  1
  N  N321  1  0.19665880  0.23833732  0.95709661  1
  N  N322  1  0.45698965  0.41034958  0.53758313  1
  N  N323  1  0.50928132  0.58704768  0.46237209  1
  N  N324  1  0.27560669  0.90797291  0.53998884  1
  N  N325  1  0.68777176  0.76143434  0.45501929  1
  N  N326  1  0.73421524  0.57444712  0.53744597  1
  N  N327  1  0.72770358  0.08943243  0.03605194  1
  N  N328  1  0.19995259  0.90655178  0.54573367  1
  N  N329  1  0.72309870  0.42743582  0.46085495  1
  N  N330  1  0.69213583  0.42434302  0.04207403  1
  N  N331  1  0.06143541  0.59127604  0.45642052  1
  N  N332  1  0.70548041  0.23940787  0.54329634  1
  N  N333  1  0.81178503  0.09203518  0.45381494  1
  N  N334  1  0.71135431  0.57564325  0.96165258  1
  N  N335  1  0.31463460  0.76144156  0.04517065  1
  N  N336  1  0.81300841  0.75658339  0.04600276  1
  N  N337  1  0.73543904  0.75549728  0.03938258  1
  N  N338  1  0.23473663  0.42548813  0.46126066  1
  N  N339  1  0.69087154  0.90970340  0.54293583  1
  N  N340  1  0.46776257  0.40932794  0.96292077  1
  N  N341  1  0.55034571  0.92621026  0.45923688  1
  N  N342  1  0.24046046  0.57558242  0.96163670  1
  N  N343  1  0.01845974  0.74314269  0.96389027  1
  N  N344  1  0.96144547  0.92862760  0.04342780  1
  N  N345  1  0.94981761  0.07168521  0.53918004  1
  N  N346  1  0.31217146  0.42824876  0.45585248  1
  N  N347  1  0.98023660  0.25878949  0.03914369  1
  N  N348  1  0.26347738  0.42355676  0.03177323  1
  N  N349  1  0.43973705  0.74151578  0.95419307  1
  N  N350  1  0.19693942  0.90643322  0.95419142  1
  N  N351  1  0.47225589  0.92599262  0.46396266  1
  N  N352  1  0.03510263  0.73916135  0.53929384  1
  N  N353  1  0.55847969  0.73952676  0.54480329  1
  N  N354  1  0.54940810  0.25740719  0.04148104  1
  N  N355  1  0.79896808  0.42908765  0.45649782  1
  N  N356  1  0.19539349  0.24023359  0.54045781  1
  N  N357  1  0.44199782  0.07075626  0.95698460  1
  N  N358  1  0.95703748  0.26004881  0.45839628  1
  N  N359  1  0.51715746  0.07558134  0.53593210  1
  N  N360  1  0.05812890  0.05622310  0.59492084  1
  N  N361  1  0.05049123  0.39165866  0.58842112  1
  N  N362  1  0.06533477  0.71574776  0.59300038  1
  N  N363  1  0.55333042  0.05560803  0.58779591  1
  N  N364  1  0.55563305  0.39070563  0.59727606  1
  N  N365  1  0.57023657  0.72236197  0.60431878  1
  N  N366  1  0.44062888  0.27498726  0.09308977  1
  N  N367  1  0.43086946  0.60567122  0.09399803  1
  N  N368  1  0.44509000  0.94273220  0.08748809  1
  N  N369  1  0.94527066  0.27471275  0.09343887  1
  N  N370  1  0.92297959  0.61270403  0.10905465  1
  N  N371  1  0.94503188  0.94561247  0.10229536  1
  N  N372  1  0.43029716  0.05359712  0.89774697  1
  N  N373  1  0.44238167  0.39099101  0.90705526  1
  N  N374  1  0.42378321  0.72104323  0.89645775  1
  N  N375  1  0.93740781  0.06047048  0.91457049  1
  N  N376  1  0.94479290  0.39250522  0.91073419  1
  N  N377  1  0.92580197  0.72447886  0.89987946  1
  N  N378  1  0.06727224  0.27559775  0.40418104  1
  N  N379  1  0.06852612  0.61296757  0.39724642  1
  N  N380  1  0.07236438  0.94788276  0.39648637  1
  N  N381  1  0.56513892  0.27887742  0.40214692  1
  N  N382  1  0.55192964  0.60869579  0.41257152  1
  N  N383  1  0.57332492  0.94426583  0.40279713  1
  N  N384  1  0.30967176  0.22433872  0.58680514  1
  N  N385  1  0.30849359  0.55817364  0.58641095  1
  N  N386  1  0.30824245  0.89087386  0.59530840  1
  N  N387  1  0.81479973  0.22519966  0.59904768  1
  N  N388  1  0.81945435  0.55473255  0.60524438  1
  N  N389  1  0.80557656  0.89412713  0.58806607  1
  N  N390  1  0.18179841  0.11293630  0.10295066  1
  N  N391  1  0.17505011  0.44336681  0.10412248  1
  N  N392  1  0.19849214  0.77524788  0.09082515  1
  N  N393  1  0.69083500  0.11040295  0.08884684  1
  N  N394  1  0.67591535  0.44491671  0.10172171  1
  N  N395  1  0.69859589  0.77653667  0.09037710  1
  N  N396  1  0.17897589  0.21958146  0.89880050  1
  N  N397  1  0.19999509  0.55549918  0.91095965  1
  N  N398  1  0.18207883  0.88718580  0.89585489  1
  N  N399  1  0.67300485  0.22010656  0.89237310  1
  N  N400  1  0.68775770  0.55532580  0.90512913  1
  N  N401  1  0.68452212  0.88902541  0.89491207  1
  N  N402  1  0.31546393  0.10893298  0.41519227  1
  N  N403  1  0.32446411  0.44557620  0.39727395  1
  N  N404  1  0.31117339  0.77856380  0.39658197  1
  N  N405  1  0.82385877  0.10933295  0.39447149  1
  N  N406  1  0.81839923  0.44587715  0.39761714  1
  N  N407  1  0.80592688  0.77553691  0.41217796  1
  N  N408  1  0.43703838  0.27615829  0.40220138  1
  N  N409  1  0.42541482  0.61039283  0.39287833  1
  N  N410  1  0.44601345  0.94328177  0.40799878  1
  N  N411  1  0.93951450  0.27770868  0.39974993  1
  N  N412  1  0.94381233  0.60263626  0.41919320  1
  N  N413  1  0.94451068  0.93947484  0.41315680  1
  N  N414  1  0.06565994  0.05472350  0.89936696  1
  N  N415  1  0.07301425  0.38842894  0.89946017  1
  N  N416  1  0.05426271  0.72274208  0.91027075  1
  N  N417  1  0.55737287  0.05700053  0.90897977  1
  N  N418  1  0.56957571  0.38869637  0.90342274  1
  N  N419  1  0.55163571  0.72300782  0.90862101  1
  N  N420  1  0.07339627  0.27721859  0.10507360  1
  N  N421  1  0.04865628  0.61036189  0.08642520  1
  N  N422  1  0.07265710  0.94572640  0.09596386  1
  N  N423  1  0.56842752  0.27865098  0.09970563  1
  N  N424  1  0.55849893  0.61045041  0.09962332  1
  N  N425  1  0.57354090  0.94575503  0.10336238  1
  N  N426  1  0.42693936  0.05599102  0.59980498  1
  N  N427  1  0.42907370  0.39042240  0.59364917  1
  N  N428  1  0.44317120  0.72601962  0.58728894  1
  N  N429  1  0.93015957  0.05343412  0.59775011  1
  N  N430  1  0.92303325  0.38623668  0.60741637  1
  N  N431  1  0.93696461  0.72349063  0.60198740  1
  N  N432  1  0.18674113  0.11242549  0.40098510  1
  N  N433  1  0.19822727  0.44205519  0.40847983  1
  N  N434  1  0.18121829  0.78300325  0.40424989  1
  N  N435  1  0.69703654  0.10842530  0.41157645  1
  N  N436  1  0.69218101  0.44326670  0.40463147  1
  N  N437  1  0.67984653  0.77840391  0.39480225  1
  N  N438  1  0.30670479  0.22149756  0.90395650  1
  N  N439  1  0.32647627  0.55125845  0.89215498  1
  N  N440  1  0.30961797  0.89189994  0.90289603  1
  N  N441  1  0.80041506  0.22525887  0.91197253  1
  N  N442  1  0.81650230  0.55781940  0.90705820  1
  N  N443  1  0.81149741  0.89268527  0.90765448  1
  N  N444  1  0.30888636  0.10694320  0.08274885  1
  N  N445  1  0.30107583  0.43912402  0.08666766  1
  N  N446  1  0.32514769  0.77937780  0.10474820  1
  N  N447  1  0.81894643  0.10903013  0.10102537  1
  N  N448  1  0.80333712  0.44074818  0.09210306  1
  N  N449  1  0.82452590  0.77488545  0.10441969  1
  N  N450  1  0.18285111  0.22032153  0.60085585  1
  N  N451  1  0.17952747  0.55504557  0.59879641  1
  N  N452  1  0.18239731  0.88894562  0.60479773  1
  N  N453  1  0.68681590  0.22158137  0.60167225  1
  N  N454  1  0.69439875  0.55339506  0.58717980  1
  N  N455  1  0.67910117  0.89014533  0.60349357  1
  Cl  Cl456  1  0.24303266  0.05586770  0.61563752  1
  Cl  Cl457  1  0.23589168  0.39143736  0.60118964  1
  Cl  Cl458  1  0.25328701  0.72518912  0.61087354  1
  Cl  Cl459  1  0.73963070  0.05704070  0.61428019  1
  Cl  Cl460  1  0.73775476  0.38661830  0.62661599  1
  Cl  Cl461  1  0.75472337  0.72162833  0.62029950  1
  Cl  Cl462  1  0.25930004  0.27497667  0.11389363  1
  Cl  Cl463  1  0.23593110  0.60518772  0.09847596  1
  Cl  Cl464  1  0.26059925  0.94632859  0.10807221  1
  Cl  Cl465  1  0.76036954  0.27984080  0.11470861  1
  Cl  Cl466  1  0.74142505  0.60945847  0.12170010  1
  Cl  Cl467  1  0.76100719  0.94950249  0.11995716  1
  Cl  Cl468  1  0.24858563  0.05172564  0.87786759  1
  Cl  Cl469  1  0.25622306  0.38858467  0.87168643  1
  Cl  Cl470  1  0.23790526  0.72330935  0.88577714  1
  Cl  Cl471  1  0.74502906  0.05913423  0.89334047  1
  Cl  Cl472  1  0.75726268  0.39293173  0.89083834  1
  Cl  Cl473  1  0.73583370  0.72427805  0.89404080  1
  Cl  Cl474  1  0.25187718  0.28004301  0.38070525  1
  Cl  Cl475  1  0.24720124  0.61300685  0.36686583  1
  Cl  Cl476  1  0.26385592  0.94973848  0.37397456  1
  Cl  Cl477  1  0.75220632  0.27980321  0.38252817  1
  Cl  Cl478  1  0.74112935  0.60430888  0.39934581  1
  Cl  Cl479  1  0.75766551  0.94469172  0.38893385  1
  Cl  Cl480  1  -0.00050853  0.22109388  0.62613134  1
  Cl  Cl481  1  0.00011655  0.55701611  0.63048631  1
  Cl  Cl482  1  -0.00700144  0.88651906  0.61641791  1
  Cl  Cl483  1  0.49901984  0.21942284  0.61358710  1
  Cl  Cl484  1  0.50809589  0.56240780  0.59994007  1
  Cl  Cl485  1  0.49371266  0.88622376  0.61324940  1
  Cl  Cl486  1  -0.00185938  0.11764249  0.12147409  1
  Cl  Cl487  1  -0.01173967  0.44681771  0.11263665  1
  Cl  Cl488  1  0.01464018  0.77194442  0.11201848  1
  Cl  Cl489  1  0.50571122  0.10977794  0.11289603  1
  Cl  Cl490  1  0.48952261  0.44248639  0.11109477  1
  Cl  Cl491  1  0.51451307  0.77474446  0.10996344  1
  Cl  Cl492  1  -0.01424785  0.22497795  0.89735277  1
  Cl  Cl493  1  0.01336238  0.56103414  0.90050028  1
  Cl  Cl494  1  -0.00391246  0.88424635  0.88443733  1
  Cl  Cl495  1  0.48824754  0.22044102  0.87877958  1
  Cl  Cl496  1  0.50731754  0.55456076  0.87064202  1
  Cl  Cl497  1  0.49652484  0.88353788  0.87934304  1
  Cl  Cl498  1  0.00448804  0.11172564  0.38399277  1
  Cl  Cl499  1  0.01328546  0.44820565  0.38354227  1
  Cl  Cl500  1  -0.00629942  0.77007788  0.39347429  1
  Cl  Cl501  1  0.51260659  0.10524670  0.39203075  1
  Cl  Cl502  1  0.50977497  0.45111004  0.37697729  1
  Cl  Cl503  1  0.49457147  0.77629336  0.38013254  1
  Cl  Cl504  1  0.35573381  0.14772326  0.74774497  1
  Cl  Cl505  1  0.35830036  0.48389757  0.74586177  1
  Cl  Cl506  1  0.35576352  0.81289395  0.75166552  1
  Cl  Cl507  1  0.85238958  0.14692961  0.75449840  1
  Cl  Cl508  1  0.86293609  0.47894709  0.74752375  1
  Cl  Cl509  1  0.85559307  0.81537964  0.75075901  1
  Cl  Cl510  1  0.13704745  0.18771581  0.24629652  1
  Cl  Cl511  1  0.13753786  0.52224651  0.24165093  1
  Cl  Cl512  1  0.14065373  0.85348697  0.24694458  1
  Cl  Cl513  1  0.64857459  0.18553012  0.25034981  1
  Cl  Cl514  1  0.64848833  0.51808167  0.25003971  1
  Cl  Cl515  1  0.63766064  0.85363700  0.25779668  1
  Cl  Cl516  1  0.13440069  0.14947214  0.75045127  1
  Cl  Cl517  1  0.13736372  0.48242543  0.74858639  1
  Cl  Cl518  1  0.13203350  0.81231889  0.74751480  1
  Cl  Cl519  1  0.63178536  0.14771254  0.75499495  1
  Cl  Cl520  1  0.64250097  0.48513770  0.75445362  1
  Cl  Cl521  1  0.63352201  0.81426643  0.74491043  1
  Cl  Cl522  1  0.35874400  0.18241988  0.25151266  1
  Cl  Cl523  1  0.35822870  0.51718817  0.24841410  1
  Cl  Cl524  1  0.36257990  0.85029793  0.24427114  1
  Cl  Cl525  1  0.86831173  0.18850949  0.25387955  1
  Cl  Cl526  1  0.86684166  0.52142366  0.25392884  1
  Cl  Cl527  1  0.85889555  0.85022612  0.24567030  1
  Cl  Cl528  1  0.10245482  0.31521581  0.75630156  1
  Cl  Cl529  1  0.10748204  0.64814568  0.75221984  1
  Cl  Cl530  1  0.10652474  0.98058307  0.75571354  1
  Cl  Cl531  1  0.60868801  0.31323564  0.75703542  1
  Cl  Cl532  1  0.60851076  0.65028479  0.74355364  1
  Cl  Cl533  1  0.60326280  0.97929653  0.74758937  1
  Cl  Cl534  1  0.40014046  0.01662029  0.24947870  1
  Cl  Cl535  1  0.39347210  0.35083887  0.25326659  1
  Cl  Cl536  1  0.38750916  0.68566692  0.24934588  1
  Cl  Cl537  1  0.89214918  0.01922158  0.25182087  1
  Cl  Cl538  1  0.89794241  0.35307061  0.25542743  1
  Cl  Cl539  1  0.89244572  0.68603831  0.24487717  1
  Cl  Cl540  1  0.38842863  0.31842295  0.74793519  1
  Cl  Cl541  1  0.38931308  0.64872032  0.75044767  1
  Cl  Cl542  1  0.38447626  0.98237550  0.74886281  1
  Cl  Cl543  1  0.88378636  0.31432175  0.74669156  1
  Cl  Cl544  1  0.88503929  0.64710605  0.75963780  1
  Cl  Cl545  1  0.88687322  0.98420817  0.75154286  1
  Cl  Cl546  1  0.11387649  0.01912573  0.25646200  1
  Cl  Cl547  1  0.11645088  0.35562969  0.23980084  1
  Cl  Cl548  1  0.11198778  0.68804446  0.25901888  1
  Cl  Cl549  1  0.61572140  0.02188084  0.24471695  1
  Cl  Cl550  1  0.61188348  0.35163942  0.24015953  1
  Cl  Cl551  1  0.60929125  0.68252059  0.25088865  1
