# generated using pymatgen
data_H8PbC4(N3Cl2)2
_symmetry_space_group_name_H-M   'P 1'
_cell_length_a   16.64297058
_cell_length_b   22.54484531
_cell_length_c   21.61144785
_cell_angle_alpha   90.00054820
_cell_angle_beta   90.09038192
_cell_angle_gamma   89.99203703
_symmetry_Int_Tables_number   1
_chemical_formula_structural   H8PbC4(N3Cl2)2
_chemical_formula_sum   'H192 Pb24 C96 N144 Cl96'
_cell_volume   8108.89027813
_cell_formula_units_Z   24
loop_
 _symmetry_equiv_pos_site_id
 _symmetry_equiv_pos_as_xyz
  1  'x, y, z'
loop_
 _atom_site_type_symbol
 _atom_site_label
 _atom_site_symmetry_multiplicity
 _atom_site_fract_x
 _atom_site_fract_y
 _atom_site_fract_z
 _atom_site_occupancy
  H  H0  1  0.00729801  0.02994064  0.68225107  1
  H  H1  1  -0.00711108  0.36673194  0.67925933  1
  H  H2  1  -0.01526634  0.68639505  0.67159034  1
  H  H3  1  0.49923247  0.02023206  0.67160234  1
  H  H4  1  0.49672709  0.36229188  0.68242728  1
  H  H5  1  0.47434367  0.70198079  0.66142343  1
  H  H6  1  -0.01944593  0.30502963  0.17877492  1
  H  H7  1  -0.00006398  0.63994943  0.17705307  1
  H  H8  1  -0.02340874  0.97081311  0.18147389  1
  H  H9  1  0.52325150  0.31541898  0.17675442  1
  H  H10  1  0.49110192  0.64170974  0.17719331  1
  H  H11  1  0.51165237  0.96881290  0.18022282  1
  H  H12  1  -0.00813695  0.02523380  0.81911751  1
  H  H13  1  -0.00723973  0.35513425  0.82296141  1
  H  H14  1  0.00424480  0.69515280  0.84191092  1
  H  H15  1  0.49894873  0.03285261  0.81986243  1
  H  H16  1  0.51549583  0.36079932  0.82512407  1
  H  H17  1  0.51739153  0.68900131  0.81579698  1
  H  H18  1  -0.01558139  0.31716128  0.32040370  1
  H  H19  1  0.01079816  0.64215323  0.32433758  1
  H  H20  1  -0.00027170  0.98117792  0.32958901  1
  H  H21  1  0.49710989  0.30381976  0.32500760  1
  H  H22  1  0.48957613  0.64615032  0.32261760  1
  H  H23  1  0.49815677  0.97171990  0.32250741  1
  H  H24  1  0.22964515  0.18794384  0.66973244  1
  H  H25  1  0.25706597  0.52378317  0.67326583  1
  H  H26  1  0.23239028  0.85806628  0.67433238  1
  H  H27  1  0.77731534  0.19977254  0.68225601  1
  H  H28  1  0.75044132  0.52833637  0.68154476  1
  H  H29  1  0.75826972  0.85981262  0.67577887  1
  H  H30  1  0.24790069  0.14732565  0.17691015  1
  H  H31  1  0.23888059  0.46786588  0.17774752  1
  H  H32  1  0.24212657  0.80050303  0.14272240  1
  H  H33  1  0.76444869  0.13663604  0.18407146  1
  H  H34  1  0.76479295  0.47795342  0.16908739  1
  H  H35  1  0.74829190  0.80256347  0.18606497  1
  H  H36  1  0.25795471  0.19158475  0.82111274  1
  H  H37  1  0.23860463  0.52190483  0.82855623  1
  H  H38  1  0.26451786  0.86815874  0.82592684  1
  H  H39  1  0.74641736  0.19644586  0.81483115  1
  H  H40  1  0.75542958  0.51900114  0.82936080  1
  H  H41  1  0.74199582  0.85386919  0.82111486  1
  H  H42  1  0.24417373  0.13251706  0.31852203  1
  H  H43  1  0.26280307  0.46782315  0.31828591  1
  H  H44  1  0.28099413  0.80206367  0.34292378  1
  H  H45  1  0.73675631  0.13831923  0.32058881  1
  H  H46  1  0.73168293  0.47511693  0.32408776  1
  H  H47  1  0.74078328  0.81090824  0.32929103  1
  H  H48  1  0.11987615  0.05601852  0.60120527  1
  H  H49  1  0.11928226  0.38460778  0.61118293  1
  H  H50  1  0.10535346  0.72099911  0.60443391  1
  H  H51  1  0.61358164  0.05806331  0.60020580  1
  H  H52  1  0.61272159  0.38748117  0.60749054  1
  H  H53  1  0.58205289  0.73172776  0.58114705  1
  H  H54  1  0.38036218  0.28927127  0.13169273  1
  H  H55  1  0.36299146  0.61745774  0.10810552  1
  H  H56  1  0.37184463  0.95195274  0.12596629  1
  H  H57  1  0.88290735  0.27857147  0.09099666  1
  H  H58  1  0.86404881  0.61106948  0.12178628  1
  H  H59  1  0.87652182  0.94010869  0.09472009  1
  H  H60  1  0.38108876  0.05271095  0.89513588  1
  H  H61  1  0.37900455  0.38345461  0.88163543  1
  H  H62  1  0.39809699  0.72318041  0.88587070  1
  H  H63  1  0.88522383  0.05741000  0.89898209  1
  H  H64  1  0.87143539  0.38990837  0.89312833  1
  H  H65  1  0.90641555  0.73541986  0.92433779  1
  H  H66  1  0.11407445  0.28367224  0.37809817  1
  H  H67  1  0.12846610  0.60982689  0.39945891  1
  H  H68  1  0.13416078  0.94842173  0.38384271  1
  H  H69  1  0.61768487  0.27628977  0.39807902  1
  H  H70  1  0.63069860  0.62228629  0.36969692  1
  H  H71  1  0.63285619  0.94671684  0.38312716  1
  H  H72  1  0.37757957  0.20842495  0.63370065  1
  H  H73  1  0.35968201  0.55792754  0.58821760  1
  H  H74  1  0.36617507  0.88503782  0.61531413  1
  H  H75  1  0.87451125  0.22519030  0.59345715  1
  H  H76  1  0.87118701  0.55668506  0.60836730  1
  H  H77  1  0.86241707  0.89150609  0.59358601  1
  H  H78  1  0.12332130  0.11663674  0.10906277  1
  H  H79  1  0.12867081  0.44261055  0.09721950  1
  H  H80  1  0.09973547  0.78072188  0.09818303  1
  H  H81  1  0.62413541  0.11766447  0.12876149  1
  H  H82  1  0.63077641  0.44699695  0.11225219  1
  H  H83  1  0.61160918  0.78457330  0.12986286  1
  H  H84  1  0.12775572  0.22070723  0.88436280  1
  H  H85  1  0.14409352  0.56086149  0.91486732  1
  H  H86  1  0.13055390  0.88557119  0.88355093  1
  H  H87  1  0.62727086  0.22118186  0.88782118  1
  H  H88  1  0.63042358  0.55048368  0.89678841  1
  H  H89  1  0.62359583  0.88391079  0.89564989  1
  H  H90  1  0.38095599  0.11409961  0.37977326  1
  H  H91  1  0.37869932  0.44305780  0.39786360  1
  H  H92  1  0.41339259  0.77827827  0.40221066  1
  H  H93  1  0.87708349  0.11792292  0.37005263  1
  H  H94  1  0.87601333  0.45364325  0.36986977  1
  H  H95  1  0.88567070  0.78943303  0.37127437  1
  H  H96  1  0.37029307  0.27913039  0.39371381  1
  H  H97  1  0.38705910  0.60860331  0.40592811  1
  H  H98  1  0.38603095  0.94005182  0.40251080  1
  H  H99  1  0.86642361  0.28329046  0.39365171  1
  H  H100  1  0.88110992  0.61417134  0.38838226  1
  H  H101  1  0.88760561  0.94271465  0.40334249  1
  H  H102  1  0.13093820  0.04313719  0.87189443  1
  H  H103  1  0.11988360  0.38568137  0.88636063  1
  H  H104  1  0.14487643  0.71575225  0.88551618  1
  H  H105  1  0.62978617  0.05186253  0.88359822  1
  H  H106  1  0.62510804  0.39642368  0.90280101  1
  H  H107  1  0.64420981  0.71715159  0.88559219  1
  H  H108  1  0.12395322  0.28728322  0.13505176  1
  H  H109  1  0.10897920  0.60701350  0.09607175  1
  H  H110  1  0.12004715  0.95189764  0.13156769  1
  H  H111  1  0.62170955  0.28065422  0.09164154  1
  H  H112  1  0.61037440  0.60849908  0.10468935  1
  H  H113  1  0.61812289  0.94301265  0.09843399  1
  H  H114  1  0.36648576  0.04713531  0.61158387  1
  H  H115  1  0.36429368  0.38158410  0.61992299  1
  H  H116  1  0.33656391  0.72194334  0.60853701  1
  H  H117  1  0.87283669  0.05180616  0.61892667  1
  H  H118  1  0.87075365  0.39066715  0.60936256  1
  H  H119  1  0.85780045  0.71681219  0.60533171  1
  H  H120  1  0.13459920  0.10655867  0.40146748  1
  H  H121  1  0.13075830  0.44732965  0.38099899  1
  H  H122  1  0.16549458  0.77464168  0.41773835  1
  H  H123  1  0.63243269  0.10924024  0.40337743  1
  H  H124  1  0.63604823  0.44152457  0.41289914  1
  H  H125  1  0.64618382  0.77033690  0.41423197  1
  H  H126  1  0.37450788  0.22124041  0.89871285  1
  H  H127  1  0.38441030  0.54146123  0.87282881  1
  H  H128  1  0.37724575  0.89174754  0.90565238  1
  H  H129  1  0.87597385  0.22198700  0.87712912  1
  H  H130  1  0.87758843  0.55547682  0.89596908  1
  H  H131  1  0.87185343  0.88697995  0.88006679  1
  H  H132  1  0.37153073  0.11221902  0.11219349  1
  H  H133  1  0.37560633  0.44967673  0.12209561  1
  H  H134  1  0.34194789  0.76844898  0.05933103  1
  H  H135  1  0.86960946  0.11004059  0.09992384  1
  H  H136  1  0.87848807  0.44278650  0.09447269  1
  H  H137  1  0.85800954  0.77510196  0.10704319  1
  H  H138  1  0.14136467  0.23026908  0.58094750  1
  H  H139  1  0.11651995  0.55243075  0.62464632  1
  H  H140  1  0.11878448  0.89022040  0.59763403  1
  H  H141  1  0.63291803  0.21349060  0.63724664  1
  H  H142  1  0.62376244  0.55374322  0.61243245  1
  H  H143  1  0.61710633  0.88317931  0.62502904  1
  H  H144  1  0.95580627  0.90971297  0.50426078  1
  H  H145  1  0.95516493  0.09009554  1.00286042  1
  H  H146  1  0.51769863  0.76169184  0.47616747  1
  H  H147  1  0.41304538  0.25144846  0.50006527  1
  H  H148  1  0.11917968  0.25757580  1.02008240  1
  H  H149  1  0.39892730  0.23883247  0.03396273  1
  H  H150  1  0.23310883  0.25488011  0.48870140  1
  H  H151  1  0.55531720  0.41495246  0.49768413  1
  H  H152  1  0.63713489  0.24150528  0.52260663  1
  H  H153  1  0.78913584  0.92719007  0.49257488  1
  H  H154  1  0.15621681  0.91741414  -0.00186338  1
  H  H155  1  0.27698485  0.58813721  0.49253704  1
  H  H156  1  0.46469608  0.58220546  0.50319947  1
  H  H157  1  0.54784580  0.91442011  -0.00759088  1
  H  H158  1  0.59694172  0.07964462  -0.00407958  1
  H  H159  1  0.07937065  0.23928551  0.48468751  1
  H  H160  1  0.43355714  0.07815918  1.00473346  1
  H  H161  1  0.68497439  0.58131398  1.00150259  1
  H  H162  1  0.89922962  0.74695930  0.49745948  1
  H  H163  1  0.11417308  0.07679533  -0.01580350  1
  H  H164  1  0.95807556  0.91113379  -0.00503834  1
  H  H165  1  0.40093261  0.08220268  0.50626464  1
  H  H166  1  0.35360631  0.42035861  1.00819076  1
  H  H167  1  0.63609793  0.91427082  0.51643472  1
  H  H168  1  0.61709730  0.58372508  0.48060188  1
  H  H169  1  0.98568103  0.75667369  1.02411794  1
  H  H170  1  0.79333093  0.74403848  0.00112620  1
  H  H171  1  0.37490359  0.58380578  0.97793520  1
  H  H172  1  0.19202951  0.41305264  -0.00799117  1
  H  H173  1  0.83426956  0.93016729  0.98751704  1
  H  H174  1  0.73116529  0.74496923  0.51101167  1
  H  H175  1  0.79333512  0.24665917  0.49069409  1
  H  H176  1  0.53727687  0.26127967  -0.00399658  1
  H  H177  1  0.70437987  0.07975401  0.50694073  1
  H  H178  1  0.63296446  0.75171480  0.01781799  1
  H  H179  1  0.21969962  0.74289784  0.52496431  1
  H  H180  1  0.83888577  0.25241262  0.98993698  1
  H  H181  1  0.92876795  0.25919895  0.49725612  1
  H  H182  1  0.68454203  0.90813623  0.99954596  1
  H  H183  1  0.72353583  0.41727554  0.50828688  1
  H  H184  1  0.91688595  0.42163365  0.49911266  1
  H  H185  1  0.79504022  0.08091812  -0.00237802  1
  H  H186  1  0.86338501  0.08623443  0.48384379  1
  H  H187  1  0.23125227  0.58384994  1.00968242  1
  H  H188  1  0.03428390  0.57720766  -0.00304272  1
  H  H189  1  0.16523490  0.41922881  0.49257726  1
  H  H190  1  0.96363186  0.25378555  -0.01150808  1
  H  H191  1  0.67891701  0.24854756  0.99725114  1
  Pb  Pb192  1  0.24966915  0.04702303  0.74821531  1
  Pb  Pb193  1  0.24334848  0.38426456  0.75030477  1
  Pb  Pb194  1  0.24690177  0.71627653  0.75675220  1
  Pb  Pb195  1  0.74867108  0.05013451  0.75257993  1
  Pb  Pb196  1  0.74725700  0.38282806  0.74586707  1
  Pb  Pb197  1  0.74618836  0.71435663  0.74913211  1
  Pb  Pb198  1  0.25285531  0.28630019  0.25963923  1
  Pb  Pb199  1  0.25716116  0.61356363  0.25246959  1
  Pb  Pb200  1  0.25256602  0.94615110  0.25695566  1
  Pb  Pb201  1  0.75290360  0.28239346  0.24291527  1
  Pb  Pb202  1  0.75014749  0.62145399  0.24403701  1
  Pb  Pb203  1  0.75712554  0.94711718  0.24251627  1
  Pb  Pb204  1  0.00262329  0.21674376  0.73330977  1
  Pb  Pb205  1  -0.00354697  0.55102260  0.76401065  1
  Pb  Pb206  1  -0.00363114  0.88055352  0.74180647  1
  Pb  Pb207  1  0.49385348  0.21709023  0.76174445  1
  Pb  Pb208  1  0.49791849  0.54948489  0.73823437  1
  Pb  Pb209  1  0.49667410  0.88220693  0.75561277  1
  Pb  Pb210  1  0.00674649  0.11605276  0.24754626  1
  Pb  Pb211  1  0.00237750  0.45260017  0.24064776  1
  Pb  Pb212  1  0.01174784  0.78191734  0.25836869  1
  Pb  Pb213  1  0.50139504  0.11486520  0.25499664  1
  Pb  Pb214  1  0.50823271  0.45168846  0.25833053  1
  Pb  Pb215  1  0.49449503  0.78653188  0.24242612  1
  C  C216  1  -0.00019966  0.04493873  0.63484094  1
  C  C217  1  -0.00628862  0.38119102  0.63151849  1
  C  C218  1  -0.01784158  0.70576399  0.62583872  1
  C  C219  1  0.49277105  0.03980115  0.62612181  1
  C  C220  1  0.49149763  0.37690806  0.63488787  1
  C  C221  1  0.46384499  0.71773208  0.61449691  1
  C  C222  1  -0.00335262  0.29064670  0.13236766  1
  C  C223  1  -0.00879189  0.62079584  0.13155729  1
  C  C224  1  -0.00851892  0.95493617  0.13537379  1
  C  C225  1  0.50814997  0.29592636  0.13214278  1
  C  C226  1  0.48790962  0.62485605  0.13019555  1
  C  C227  1  0.50054983  0.95439346  0.13316562  1
  C  C228  1  0.00323817  0.04187956  0.86550058  1
  C  C229  1  -0.00572153  0.37594610  0.86798202  1
  C  C230  1  0.01895997  0.71359414  0.88705537  1
  C  C231  1  0.50364453  0.04641040  0.86801211  1
  C  C232  1  0.50622606  0.37922095  0.87064583  1
  C  C233  1  0.51947987  0.70732726  0.86214952  1
  C  C234  1  -0.01207389  0.29640076  0.36569539  1
  C  C235  1  0.00707747  0.62321640  0.37042169  1
  C  C236  1  0.00701063  0.95975431  0.37394239  1
  C  C237  1  0.49445012  0.28727012  0.37211032  1
  C  C238  1  0.50229652  0.62654329  0.36757312  1
  C  C239  1  0.50576371  0.95492604  0.36926435  1
  C  C240  1  0.24930314  0.20701724  0.62619739  1
  C  C241  1  0.24476665  0.54313109  0.62832420  1
  C  C242  1  0.23939723  0.87726127  0.62882428  1
  C  C243  1  0.76083594  0.21302601  0.63554961  1
  C  C244  1  0.74829614  0.54530963  0.63458929  1
  C  C245  1  0.74503982  0.87754694  0.63006545  1
  C  C246  1  0.24735665  0.12652011  0.13197986  1
  C  C247  1  0.24825831  0.45363903  0.13024130  1
  C  C248  1  0.22656451  0.78314455  0.09732994  1
  C  C249  1  0.75218696  0.12153568  0.13722719  1
  C  C250  1  0.75779602  0.45684572  0.12451629  1
  C  C251  1  0.73881624  0.78739690  0.13886322  1
  C  C252  1  0.25345289  0.20862726  0.86796645  1
  C  C253  1  0.25615390  0.54078263  0.87291957  1
  C  C254  1  0.25653266  0.88173503  0.87364917  1
  C  C255  1  0.75007013  0.21225111  0.86218035  1
  C  C256  1  0.75415197  0.54048289  0.87407707  1
  C  C257  1  0.74531218  0.87321487  0.86721177  1
  C  C258  1  0.25335261  0.11808585  0.36596805  1
  C  C259  1  0.25766739  0.45329583  0.36593905  1
  C  C260  1  0.28689778  0.78531968  0.38998784  1
  C  C261  1  0.74953373  0.12208894  0.36695653  1
  C  C262  1  0.74763492  0.45821164  0.36950343  1
  C  C263  1  0.75759820  0.79169035  0.37354062  1
  C  C264  1  0.98794312  0.26410424  0.03392596  1
  C  C265  1  0.52056064  0.40390416  0.53872675  1
  C  C266  1  0.03776345  0.25714176  0.45054871  1
  C  C267  1  0.43952207  0.40210725  0.54482497  1
  C  C268  1  0.25626699  0.75509775  0.48538456  1
  C  C269  1  0.71568154  0.23865156  0.95706940  1
  C  C270  1  0.76682524  0.09291761  0.04145221  1
  C  C271  1  0.98462528  0.07490776  0.96089395  1
  C  C272  1  0.79745899  0.23966715  0.95341797  1
  C  C273  1  0.43843220  0.92967054  0.04698213  1
  C  C274  1  0.95675022  0.41004745  0.53731999  1
  C  C275  1  0.22506511  0.42541466  0.03366267  1
  C  C276  1  0.68039677  0.76077297  0.05126130  1
  C  C277  1  0.03665291  0.41273400  0.95584608  1
  C  C278  1  0.73323075  0.09205691  0.46368670  1
  C  C279  1  0.76161519  0.75720991  0.04294731  1
  C  C280  1  0.06736784  0.26673184  0.04945853  1
  C  C281  1  0.48524273  0.74897735  0.51795868  1
  C  C282  1  0.56794838  0.59313182  0.44861698  1
  C  C283  1  0.20231228  0.90759733  0.96391825  1
  C  C284  1  0.82970663  0.75920744  0.45238537  1
  C  C285  1  0.06537264  0.06884992  0.95157064  1
  C  C286  1  0.68948923  0.23398177  0.55188483  1
  C  C287  1  0.23914107  0.75144891  0.00026307  1
  C  C288  1  0.81384020  0.09524509  0.45210666  1
  C  C289  1  0.08918356  0.74437067  0.96933704  1
  C  C290  1  0.47097007  0.06984279  0.96433701  1
  C  C291  1  0.98264536  0.92467093  0.03964446  1
  C  C292  1  0.55286004  0.06994034  0.96005708  1
  C  C293  1  0.15725998  0.75667072  0.01129834  1
  C  C294  1  0.51842487  0.92626231  0.03565635  1
  C  C295  1  0.40302907  0.74484822  0.52622874  1
  C  C296  1  0.20995594  0.42863031  0.45634129  1
  C  C297  1  0.79383715  0.91124269  0.95309969  1
  C  C298  1  0.06306575  0.91886059  0.45680310  1
  C  C299  1  0.28499231  0.08652586  0.04422506  1
  C  C300  1  0.32745821  0.23841348  0.55021908  1
  C  C301  1  0.33924784  0.75764574  0.48099235  1
  C  C302  1  0.28324790  0.90932058  0.96952300  1
  C  C303  1  0.78236955  0.41615492  0.03497416  1
  C  C304  1  0.03816040  0.40769592  0.53934933  1
  C  C305  1  0.02036113  0.74183360  0.53480165  1
  C  C306  1  0.76181671  0.91257665  0.53584106  1
  C  C307  1  0.21496458  0.91497077  0.53752511  1
  C  C308  1  0.52254148  0.08051210  0.53529326  1
  C  C309  1  0.30640576  0.42843478  0.04202669  1
  C  C310  1  0.76887328  0.23708443  0.53627234  1
  C  C311  1  0.52665060  0.41722489  0.96247451  1
  N  N312  1  0.28887234  0.42703704  0.46228660  1
  N  N313  1  0.53240620  0.25856091  0.46527878  1
  N  N314  1  0.00928759  0.58463597  0.04054027  1
  N  N315  1  0.44554572  0.59902968  0.03797551  1
  N  N316  1  0.25583759  0.58116674  0.53741508  1
  N  N317  1  0.30782494  0.09272997  0.45483531  1
  N  N318  1  0.05990096  0.92832936  0.05193807  1
  N  N319  1  0.25012475  0.58222994  0.96333354  1
  N  N320  1  0.51932046  0.25510480  0.04129627  1
  N  N321  1  0.44988270  0.41234822  0.95718973  1
  N  N322  1  0.70525466  0.41726554  0.03923883  1
  N  N323  1  0.95843493  0.25906092  0.45580856  1
  N  N324  1  0.03745603  0.58467697  0.46132159  1
  N  N325  1  0.68385214  0.90933583  0.54750486  1
  N  N326  1  0.93208142  0.58589404  0.04778207  1
  N  N327  1  0.94918410  0.07120593  0.54483421  1
  N  N328  1  0.48176687  0.92278089  0.46350546  1
  N  N329  1  0.79607662  0.57969671  0.96200544  1
  N  N330  1  0.95947702  0.41388904  0.95925240  1
  N  N331  1  0.94204229  0.73824264  0.53564635  1
  N  N332  1  0.74313712  0.42506288  0.46301795  1
  N  N333  1  0.29184799  0.91292061  0.54170082  1
  N  N334  1  0.71464300  0.90786865  0.95821258  1
  N  N335  1  0.02481052  0.07267596  0.53902535  1
  N  N336  1  0.75309857  0.75319188  0.46581330  1
  N  N337  1  0.17928466  0.58009922  0.54843676  1
  N  N338  1  0.48988229  0.58883215  0.45976441  1
  N  N339  1  0.45428176  0.25931021  0.46255076  1
  N  N340  1  0.52171553  0.59401160  0.03727874  1
  N  N341  1  1.01008223  0.75228017  0.97966587  1
  N  N342  1  0.70642356  0.57379051  0.54254106  1
  N  N343  1  0.98466167  0.91872904  0.46316565  1
  N  N344  1  0.68886634  0.09529916  0.05113537  1
  N  N345  1  0.23210725  0.09007434  0.46212228  1
  N  N346  1  0.25195995  0.24530507  0.53379252  1
  N  N347  1  0.96146679  0.58598681  0.45791707  1
  N  N348  1  0.71819549  0.57679026  0.96170117  1
  N  N349  1  0.55957295  0.73778677  0.95358575  1
  N  N350  1  0.44418577  0.07474272  0.53998921  1
  N  N351  1  0.32558786  0.56705563  0.95281938  1
  N  N352  1  0.28283384  0.23720601  0.96294337  1
  N  N353  1  0.44124682  0.26750831  0.05130885  1
  N  N354  1  0.81894764  0.42997406  0.45019687  1
  N  N355  1  0.55761560  0.92570809  0.45751240  1
  N  N356  1  0.48376929  0.74078140  0.95416756  1
  N  N357  1  0.20686575  0.23773348  0.95820144  1
  N  N358  1  0.78245457  0.57512639  0.54111843  1
  N  N359  1  0.20758324  0.08883004  0.04190490  1
  N  N360  1  0.05775111  0.05592544  0.59437300  1
  N  N361  1  0.06009125  0.39037254  0.59614388  1
  N  N362  1  0.04553816  0.72206504  0.59034521  1
  N  N363  1  0.55289981  0.05927400  0.58873078  1
  N  N364  1  0.55196099  0.38801209  0.59607354  1
  N  N365  1  0.52061021  0.73172176  0.57281775  1
  N  N366  1  0.43602613  0.28103235  0.11192616  1
  N  N367  1  0.42294397  0.61828040  0.09540732  1
  N  N368  1  0.42815510  0.94624691  0.10581241  1
  N  N369  1  0.94494324  0.27891133  0.08614817  1
  N  N370  1  0.92145105  0.60707121  0.10504712  1
  N  N371  1  0.93896310  0.94073927  0.09052403  1
  N  N372  1  0.44191498  0.05531964  0.90666048  1
  N  N373  1  0.43685492  0.38840017  0.89865708  1
  N  N374  1  0.45741662  0.72200772  0.89715170  1
  N  N375  1  0.94719343  0.05805444  0.90673009  1
  N  N376  1  0.93274226  0.39049911  0.90338182  1
  N  N377  1  0.96749920  0.72882110  0.93073599  1
  N  N378  1  0.05601873  0.27882175  0.39423879  1
  N  N379  1  0.06732991  0.60866357  0.40759392  1
  N  N380  1  0.07688697  0.94349318  0.40126248  1
  N  N381  1  0.55676794  0.27524356  0.40879568  1
  N  N382  1  0.57567011  0.61466325  0.39072004  1
  N  N383  1  0.57405961  0.94566004  0.39920136  1
  N  N384  1  0.32600488  0.21655684  0.60828521  1
  N  N385  1  0.29719713  0.55645947  0.58445429  1
  N  N386  1  0.30728423  0.88879294  0.59966585  1
  N  N387  1  0.81227836  0.22394720  0.58906842  1
  N  N388  1  0.80996606  0.55696271  0.59785204  1
  N  N389  1  0.80023201  0.89357427  0.58735937  1
  N  N390  1  0.18379927  0.11410130  0.09762880  1
  N  N391  1  0.19037417  0.44134015  0.08893798  1
  N  N392  1  0.15322651  0.77656957  0.07369577  1
  N  N393  1  0.68142192  0.11285638  0.11090865  1
  N  N394  1  0.68981729  0.44319184  0.09625094  1
  N  N395  1  0.66780315  0.77944586  0.11066927  1
  N  N396  1  0.18707658  0.21980272  0.89960482  1
  N  N397  1  0.20655295  0.55589314  0.91829993  1
  N  N398  1  0.18700309  0.89001097  0.90302135  1
  N  N399  1  0.68748581  0.22178253  0.89994473  1
  N  N400  1  0.69104099  0.55116315  0.90938589  1
  N  N401  1  0.68500936  0.88161994  0.90615296  1
  N  N402  1  0.32232582  0.10979813  0.39523401  1
  N  N403  1  0.31698437  0.44235221  0.40540196  1
  N  N404  1  0.35558767  0.77652069  0.42052002  1
  N  N405  1  0.82235791  0.11362744  0.39197872  1
  N  N406  1  0.82107009  0.44859348  0.39130972  1
  N  N407  1  0.83293005  0.78138226  0.39426635  1
  N  N408  1  0.43023956  0.27764112  0.40640043  1
  N  N409  1  0.44945007  0.61268307  0.41097123  1
  N  N410  1  0.44824408  0.94126606  0.40928131  1
  N  N411  1  0.92791386  0.28635862  0.40441026  1
  N  N412  1  0.94109574  0.60936390  0.40139889  1
  N  N413  1  0.94886529  0.94577701  0.41304889  1
  N  N414  1  0.07526707  0.04869724  0.89230722  1
  N  N415  1  0.06074956  0.39030589  0.90063009  1
  N  N416  1  0.09340435  0.72232149  0.90985709  1
  N  N417  1  0.57162409  0.05541373  0.90004806  1
  N  N418  1  0.56362214  0.39701566  0.91087823  1
  N  N419  1  0.58355128  0.71635312  0.89737301  1
  N  N420  1  0.07109427  0.28300546  0.11044331  1
  N  N421  1  0.04688407  0.60832465  0.08987476  1
  N  N422  1  0.06371971  0.94697994  0.11145915  1
  N  N423  1  0.55954877  0.28390861  0.08711345  1
  N  N424  1  0.54909217  0.60987345  0.09426579  1
  N  N425  1  0.55649911  0.94200718  0.09076559  1
  N  N426  1  0.42515998  0.04819974  0.59536049  1
  N  N427  1  0.42236863  0.38625456  0.60289139  1
  N  N428  1  0.39237917  0.72478753  0.58732665  1
  N  N429  1  0.93202943  0.05436257  0.60423191  1
  N  N430  1  0.93028395  0.39323842  0.59592771  1
  N  N431  1  0.91732181  0.71521759  0.59190735  1
  N  N432  1  0.19696273  0.10592133  0.40738823  1
  N  N433  1  0.18936121  0.44445282  0.39744564  1
  N  N434  1  0.22633088  0.77214354  0.42872740  1
  N  N435  1  0.69454883  0.10871183  0.41017640  1
  N  N436  1  0.69823892  0.44468789  0.41523719  1
  N  N437  1  0.70809674  0.77653609  0.41844350  1
  N  N438  1  0.31313177  0.21909200  0.90708242  1
  N  N439  1  0.32979066  0.55095075  0.89336593  1
  N  N440  1  0.31596890  0.89350050  0.91542415  1
  N  N441  1  0.81758589  0.22308375  0.89427252  1
  N  N442  1  0.81781509  0.55843500  0.90652482  1
  N  N443  1  0.81299361  0.89081734  0.89633334  1
  N  N444  1  0.31160560  0.10914469  0.09874402  1
  N  N445  1  0.31926255  0.44576607  0.10206835  1
  N  N446  1  0.28020088  0.76742762  0.05319161  1
  N  N447  1  0.80722950  0.10877500  0.09392264  1
  N  N448  1  0.81732618  0.43976318  0.08601881  1
  N  N449  1  0.79652896  0.77404542  0.09794639  1
  N  N450  1  0.20271158  0.22273230  0.57941228  1
  N  N451  1  0.17306712  0.55757474  0.60553255  1
  N  N452  1  0.17982757  0.89345181  0.58975390  1
  N  N453  1  0.68623769  0.21943742  0.61339962  1
  N  N454  1  0.68360604  0.55623712  0.60061533  1
  N  N455  1  0.67380589  0.88628388  0.60494035  1
  Cl  Cl456  1  0.24258691  0.05873815  0.61579125  1
  Cl  Cl457  1  0.24003554  0.37995553  0.61806617  1
  Cl  Cl458  1  0.21929324  0.72426963  0.63011107  1
  Cl  Cl459  1  0.74000315  0.05415540  0.61858018  1
  Cl  Cl460  1  0.73663034  0.39596314  0.60392314  1
  Cl  Cl461  1  0.72137314  0.72887041  0.60225661  1
  Cl  Cl462  1  0.25734198  0.27890087  0.13258013  1
  Cl  Cl463  1  0.23224312  0.60589664  0.10247496  1
  Cl  Cl464  1  0.24822717  0.95278228  0.12585927  1
  Cl  Cl465  1  0.75021725  0.27532747  0.10678127  1
  Cl  Cl466  1  0.73191290  0.60328731  0.10909046  1
  Cl  Cl467  1  0.74921701  0.93869623  0.10052480  1
  Cl  Cl468  1  0.25952246  0.05161963  0.87853941  1
  Cl  Cl469  1  0.24611267  0.38822165  0.88332811  1
  Cl  Cl470  1  0.28064901  0.73012596  0.93291708  1
  Cl  Cl471  1  0.76186774  0.05496457  0.88805573  1
  Cl  Cl472  1  0.74808243  0.39353743  0.87827944  1
  Cl  Cl473  1  0.77193337  0.72821594  0.88432895  1
  Cl  Cl474  1  0.24206697  0.27556654  0.39727852  1
  Cl  Cl475  1  0.26377730  0.60525782  0.39674834  1
  Cl  Cl476  1  0.26216192  0.93474693  0.38972165  1
  Cl  Cl477  1  0.74419597  0.27580002  0.38223021  1
  Cl  Cl478  1  0.75836892  0.62156304  0.37457686  1
  Cl  Cl479  1  0.76216288  0.93816236  0.38384907  1
  Cl  Cl480  1  0.00491193  0.23068995  0.59544582  1
  Cl  Cl481  1  -0.00842998  0.55843927  0.63306471  1
  Cl  Cl482  1  -0.01242273  0.88689124  0.60148769  1
  Cl  Cl483  1  0.50422662  0.21312806  0.63172914  1
  Cl  Cl484  1  0.48248678  0.56198972  0.59825397  1
  Cl  Cl485  1  0.49300422  0.88665743  0.62527672  1
  Cl  Cl486  1  -0.00726197  0.11181998  0.11206447  1
  Cl  Cl487  1  0.00480713  0.44337921  0.10875422  1
  Cl  Cl488  1  -0.02016984  0.77538769  0.11567267  1
  Cl  Cl489  1  0.49383926  0.11624717  0.12230561  1
  Cl  Cl490  1  0.50727185  0.44278911  0.12762020  1
  Cl  Cl491  1  0.46921212  0.77851519  0.11600497  1
  Cl  Cl492  1  0.00169739  0.22958323  0.86778449  1
  Cl  Cl493  1  0.02321039  0.56341795  0.90323463  1
  Cl  Cl494  1  -0.00569983  0.88625416  0.87628216  1
  Cl  Cl495  1  0.50027458  0.23336369  0.89899891  1
  Cl  Cl496  1  0.51146576  0.55231417  0.87051864  1
  Cl  Cl497  1  0.50109263  0.89017664  0.89059907  1
  Cl  Cl498  1  0.01349961  0.11189515  0.37916456  1
  Cl  Cl499  1  0.00474643  0.44251096  0.37264828  1
  Cl  Cl500  1  0.03508261  0.77996336  0.39000312  1
  Cl  Cl501  1  0.50820138  0.10932310  0.39047860  1
  Cl  Cl502  1  0.51017434  0.44350467  0.39519347  1
  Cl  Cl503  1  0.53200544  0.77481977  0.37765703  1
  Cl  Cl504  1  0.36088791  0.14830965  0.74736096  1
  Cl  Cl505  1  0.36823128  0.47714726  0.75318039  1
  Cl  Cl506  1  0.35423055  0.81820740  0.74771309  1
  Cl  Cl507  1  0.87023765  0.14471169  0.75165370  1
  Cl  Cl508  1  0.86079265  0.48216751  0.75792839  1
  Cl  Cl509  1  0.86167462  0.81277552  0.73887695  1
  Cl  Cl510  1  0.14307690  0.18500212  0.24931967  1
  Cl  Cl511  1  0.14586185  0.51324429  0.25372638  1
  Cl  Cl512  1  0.13393710  0.85190849  0.22688970  1
  Cl  Cl513  1  0.63598860  0.18467410  0.24602723  1
  Cl  Cl514  1  0.64580211  0.51603311  0.24837728  1
  Cl  Cl515  1  0.63920326  0.85200093  0.24960174  1
  Cl  Cl516  1  0.13942471  0.14946289  0.75120595  1
  Cl  Cl517  1  0.14908273  0.48722273  0.74928608  1
  Cl  Cl518  1  0.13781165  0.81252716  0.77017335  1
  Cl  Cl519  1  0.64076996  0.14742837  0.75331590  1
  Cl  Cl520  1  0.63356100  0.48183077  0.73918601  1
  Cl  Cl521  1  0.64155974  0.81036141  0.74857536  1
  Cl  Cl522  1  0.37068190  0.18969666  0.26338066  1
  Cl  Cl523  1  0.36520900  0.52647787  0.23567185  1
  Cl  Cl524  1  0.34939322  0.84601556  0.25266004  1
  Cl  Cl525  1  0.86072907  0.18862051  0.25658980  1
  Cl  Cl526  1  0.86568839  0.52248402  0.24863686  1
  Cl  Cl527  1  0.86281474  0.85137103  0.25300248  1
  Cl  Cl528  1  0.10035300  0.32423340  0.74859538  1
  Cl  Cl529  1  0.11583050  0.64882585  0.76180182  1
  Cl  Cl530  1  0.10996786  0.98007227  0.75148182  1
  Cl  Cl531  1  0.61362901  0.31257497  0.75314076  1
  Cl  Cl532  1  0.60890940  0.65085796  0.73565612  1
  Cl  Cl533  1  0.61938234  0.97567764  0.75937872  1
  Cl  Cl534  1  0.39138553  0.01331006  0.25274555  1
  Cl  Cl535  1  0.38225078  0.35982734  0.25435842  1
  Cl  Cl536  1  0.38049881  0.68809567  0.26297202  1
  Cl  Cl537  1  0.88660963  0.02047859  0.25960136  1
  Cl  Cl538  1  0.88347818  0.35639446  0.24564354  1
  Cl  Cl539  1  0.88765062  0.68888710  0.24439485  1
  Cl  Cl540  1  0.39034873  0.31300134  0.75257257  1
  Cl  Cl541  1  0.38471671  0.64987065  0.74746135  1
  Cl  Cl542  1  0.39702907  0.98528848  0.74837173  1
  Cl  Cl543  1  0.87565444  0.30817280  0.73202773  1
  Cl  Cl544  1  0.89938787  0.65027931  0.76431430  1
  Cl  Cl545  1  0.88669761  0.97811362  0.74527729  1
  Cl  Cl546  1  0.10725694  0.01886481  0.24778732  1
  Cl  Cl547  1  0.11051885  0.34894951  0.25147238  1
  Cl  Cl548  1  0.10860003  0.68316912  0.24340212  1
  Cl  Cl549  1  0.61875526  0.01789266  0.24751197  1
  Cl  Cl550  1  0.60377502  0.35016356  0.25977723  1
  Cl  Cl551  1  0.60362022  0.68354969  0.24220366  1
