# generated using pymatgen
data_H8PbC4(N3Cl2)2
_symmetry_space_group_name_H-M   'P 1'
_cell_length_a   16.62292652
_cell_length_b   22.50185022
_cell_length_c   21.58961795
_cell_angle_alpha   89.99989578
_cell_angle_beta   89.99246883
_cell_angle_gamma   90.00033405
_symmetry_Int_Tables_number   1
_chemical_formula_structural   H8PbC4(N3Cl2)2
_chemical_formula_sum   'H192 Pb24 C96 N144 Cl96'
_cell_volume   8075.52317954
_cell_formula_units_Z   24
loop_
 _symmetry_equiv_pos_site_id
 _symmetry_equiv_pos_as_xyz
  1  'x, y, z'
loop_
 _atom_site_type_symbol
 _atom_site_label
 _atom_site_symmetry_multiplicity
 _atom_site_fract_x
 _atom_site_fract_y
 _atom_site_fract_z
 _atom_site_occupancy
  H  H0  1  -0.00324437  0.03202040  0.68254872  1
  H  H1  1  0.00235761  0.36649485  0.67996036  1
  H  H2  1  -0.00792826  0.69874398  0.68203832  1
  H  H3  1  0.50139033  0.03258362  0.68144009  1
  H  H4  1  0.50213377  0.36545132  0.68253934  1
  H  H5  1  0.50703421  0.69768192  0.68064074  1
  H  H6  1  -0.00046037  0.30211890  0.17834147  1
  H  H7  1  -0.00896156  0.63495802  0.18262596  1
  H  H8  1  -0.00121544  0.96586566  0.18101051  1
  H  H9  1  0.49664620  0.30176482  0.17949890  1
  H  H10  1  0.49898917  0.63585943  0.18093658  1
  H  H11  1  0.50457358  0.96585328  0.18050359  1
  H  H12  1  0.01093317  0.03217846  0.81937049  1
  H  H13  1  0.00704536  0.36595968  0.82226219  1
  H  H14  1  -0.00751365  0.69912488  0.81845963  1
  H  H15  1  0.49183541  0.02972734  0.82027393  1
  H  H16  1  0.49760819  0.36608859  0.81918220  1
  H  H17  1  0.49674531  0.69965822  0.82040189  1
  H  H18  1  0.00707572  0.30138398  0.31824453  1
  H  H19  1  0.00006191  0.63490254  0.31776434  1
  H  H20  1  -0.01115315  0.96806112  0.31820047  1
  H  H21  1  0.49931307  0.30036986  0.31920658  1
  H  H22  1  0.49840533  0.63552234  0.31942265  1
  H  H23  1  0.50870801  0.96900011  0.32287535  1
  H  H24  1  0.24340184  0.19777244  0.68115543  1
  H  H25  1  0.24848012  0.53187905  0.68079265  1
  H  H26  1  0.24487875  0.86694779  0.67983879  1
  H  H27  1  0.75774541  0.19766011  0.68343923  1
  H  H28  1  0.74571111  0.53216737  0.68211084  1
  H  H29  1  0.75243455  0.86571753  0.68390651  1
  H  H30  1  0.25041710  0.13620842  0.18139463  1
  H  H31  1  0.24931447  0.46775056  0.18040338  1
  H  H32  1  0.25148810  0.80136444  0.17735597  1
  H  H33  1  0.74916135  0.13561325  0.17776792  1
  H  H34  1  0.75368623  0.46782635  0.18315072  1
  H  H35  1  0.75717777  0.80118107  0.18220154  1
  H  H36  1  0.25371275  0.20116569  0.81944661  1
  H  H37  1  0.24509893  0.53052983  0.81816699  1
  H  H38  1  0.25127408  0.86439565  0.82080065  1
  H  H39  1  0.74704662  0.19939548  0.82038540  1
  H  H40  1  0.75408505  0.53069697  0.81845900  1
  H  H41  1  0.75409004  0.86500336  0.81840642  1
  H  H42  1  0.25275944  0.13472416  0.31764777  1
  H  H43  1  0.24341471  0.46852776  0.31684371  1
  H  H44  1  0.24824740  0.80083687  0.32171544  1
  H  H45  1  0.75474122  0.13456147  0.31718820  1
  H  H46  1  0.74643163  0.46794867  0.32032747  1
  H  H47  1  0.75359649  0.80068679  0.31761197  1
  H  H48  1  0.12830646  0.05104870  0.61990402  1
  H  H49  1  0.11945480  0.39046297  0.60255510  1
  H  H50  1  0.12759099  0.71886363  0.62092501  1
  H  H51  1  0.62488661  0.05511385  0.60770878  1
  H  H52  1  0.62049410  0.38839216  0.60796268  1
  H  H53  1  0.62397963  0.72228162  0.60183488  1
  H  H54  1  0.38112633  0.27743758  0.10086075  1
  H  H55  1  0.37501191  0.61378383  0.10838220  1
  H  H56  1  0.37734714  0.94563385  0.11065575  1
  H  H57  1  0.87713936  0.27921284  0.10618677  1
  H  H58  1  0.87932843  0.61033026  0.10206008  1
  H  H59  1  0.87964680  0.94615371  0.10772502  1
  H  H60  1  0.37911808  0.05626691  0.90043436  1
  H  H61  1  0.37337279  0.38759386  0.88982379  1
  H  H62  1  0.37780256  0.72297294  0.89462078  1
  H  H63  1  0.87258700  0.05244227  0.87628575  1
  H  H64  1  0.87425890  0.38323504  0.88360672  1
  H  H65  1  0.88178915  0.72348542  0.89916713  1
  H  H66  1  0.12048345  0.27615764  0.39872217  1
  H  H67  1  0.12411167  0.61353844  0.38745244  1
  H  H68  1  0.12474812  0.94866488  0.37802403  1
  H  H69  1  0.62110936  0.27933037  0.39190809  1
  H  H70  1  0.62237407  0.61266688  0.39083349  1
  H  H71  1  0.61475474  0.93984264  0.40615747  1
  H  H72  1  0.37972620  0.21837729  0.62170357  1
  H  H73  1  0.37477079  0.55485855  0.61088689  1
  H  H74  1  0.38009109  0.88476746  0.62059927  1
  H  H75  1  0.87702327  0.22257639  0.60868178  1
  H  H76  1  0.87680743  0.55056362  0.61723410  1
  H  H77  1  0.87669028  0.88722084  0.61397552  1
  H  H78  1  0.12378476  0.11227501  0.11238051  1
  H  H79  1  0.12530770  0.44434366  0.10738624  1
  H  H80  1  0.12216225  0.78080044  0.11081842  1
  H  H81  1  0.62638409  0.11171898  0.10662726  1
  H  H82  1  0.62823886  0.44587207  0.11183634  1
  H  H83  1  0.62004338  0.78362765  0.12387213  1
  H  H84  1  0.12020185  0.21972725  0.88298446  1
  H  H85  1  0.12540238  0.55239024  0.89343919  1
  H  H86  1  0.12441341  0.88798767  0.88977809  1
  H  H87  1  0.62406924  0.22241576  0.89266814  1
  H  H88  1  0.62269411  0.55211279  0.88172422  1
  H  H89  1  0.62192455  0.88532615  0.88426569  1
  H  H90  1  0.37224009  0.11042288  0.39389729  1
  H  H91  1  0.37852725  0.44808061  0.37920503  1
  H  H92  1  0.37257370  0.77628419  0.39122745  1
  H  H93  1  0.87062280  0.11179685  0.39480878  1
  H  H94  1  0.87918505  0.44751340  0.38335485  1
  H  H95  1  0.87114974  0.77748681  0.39384976  1
  H  H96  1  0.37153054  0.27855867  0.38786274  1
  H  H97  1  0.37364763  0.61337348  0.39151432  1
  H  H98  1  0.37004633  0.95146796  0.37882259  1
  H  H99  1  0.87288447  0.28297640  0.38177035  1
  H  H100  1  0.87486739  0.61266663  0.38588116  1
  H  H101  1  0.87850959  0.94215404  0.40108387  1
  H  H102  1  0.11871324  0.05583266  0.90313802  1
  H  H103  1  0.12234373  0.38762898  0.89795868  1
  H  H104  1  0.12930545  0.71961355  0.87775193  1
  H  H105  1  0.62675897  0.05224459  0.87887036  1
  H  H106  1  0.62279830  0.38534808  0.88712084  1
  H  H107  1  0.62603938  0.71855159  0.88377377  1
  H  H108  1  0.12600501  0.28011524  0.10826370  1
  H  H109  1  0.12692999  0.61585328  0.12140514  1
  H  H110  1  0.12899513  0.94681830  0.11523770  1
  H  H111  1  0.62964794  0.27995025  0.11750791  1
  H  H112  1  0.62312430  0.61353117  0.10878801  1
  H  H113  1  0.62645492  0.94407963  0.10740280  1
  H  H114  1  0.37619963  0.05382639  0.60953663  1
  H  H115  1  0.37142248  0.38614788  0.61938480  1
  H  H116  1  0.37618504  0.71995116  0.61460890  1
  H  H117  1  0.87919622  0.05478401  0.60735400  1
  H  H118  1  0.87054488  0.38729598  0.61607114  1
  H  H119  1  0.87999536  0.72227967  0.60185156  1
  H  H120  1  0.12376626  0.11333386  0.38663374  1
  H  H121  1  0.13037464  0.44433713  0.39642232  1
  H  H122  1  0.12420240  0.78205452  0.39367483  1
  H  H123  1  0.62202442  0.11355425  0.38196239  1
  H  H124  1  0.63063580  0.44383027  0.39850965  1
  H  H125  1  0.62219004  0.78082049  0.38445242  1
  H  H126  1  0.36809119  0.22563590  0.89998860  1
  H  H127  1  0.37417062  0.55324483  0.88500486  1
  H  H128  1  0.37346554  0.88714425  0.89330977  1
  H  H129  1  0.87306790  0.22194097  0.89004189  1
  H  H130  1  0.87197795  0.55440781  0.89527080  1
  H  H131  1  0.87110485  0.88834079  0.89516514  1
  H  H132  1  0.37359708  0.11280214  0.11063382  1
  H  H133  1  0.37423103  0.44472813  0.10827565  1
  H  H134  1  0.37103644  0.77891516  0.10257200  1
  H  H135  1  0.87536443  0.11306529  0.10830073  1
  H  H136  1  0.87734239  0.44431034  0.11216664  1
  H  H137  1  0.86803625  0.77854546  0.10251229  1
  H  H138  1  0.13244629  0.22344384  0.60029765  1
  H  H139  1  0.12577798  0.55407156  0.60927141  1
  H  H140  1  0.13227885  0.89059952  0.60111126  1
  H  H141  1  0.62827821  0.21999036  0.61606147  1
  H  H142  1  0.62771220  0.55520202  0.60831966  1
  H  H143  1  0.62676591  0.88624771  0.61533389  1
  H  H144  1  0.59426095  0.74989696  0.99745285  1
  H  H145  1  0.82174675  0.25034172  0.50144212  1
  H  H146  1  0.08166772  0.58483447  0.49800027  1
  H  H147  1  0.68033502  0.58382972  0.49881564  1
  H  H148  1  0.67025800  0.90915868  0.50199527  1
  H  H149  1  0.16272780  0.75293795  0.00393766  1
  H  H150  1  0.80923746  0.91405056  1.00374955  1
  H  H151  1  0.17161029  0.74459354  0.49333154  1
  H  H152  1  0.60044466  0.08223032  0.99153987  1
  H  H153  1  0.91412938  0.58381581  0.49670782  1
  H  H154  1  0.83028668  0.41355921  0.00415137  1
  H  H155  1  0.81273408  0.57899079  0.99933810  1
  H  H156  1  0.38893733  0.91874994  0.48760009  1
  H  H157  1  0.53865575  0.92946657  0.50730020  1
  H  H158  1  0.04618200  0.08146317  1.00787316  1
  H  H159  1  0.20012953  0.24837180  0.49444804  1
  H  H160  1  0.57203915  0.24928741  0.50099650  1
  H  H161  1  0.44600150  0.25393822  -0.00325551  1
  H  H162  1  0.69531665  0.41825472  0.50272837  1
  H  H163  1  0.19562183  0.41881098  0.50320505  1
  H  H164  1  0.29977807  0.25382905  1.00077349  1
  H  H165  1  0.95139429  0.91906031  0.50232416  1
  H  H166  1  0.93452985  0.08102497  0.49749246  1
  H  H167  1  0.09624471  0.07903739  0.50705252  1
  H  H168  1  0.95024831  0.75162929  1.00481767  1
  H  H169  1  0.42589579  0.58441547  0.00475072  1
  H  H170  1  0.56641433  0.41559910  0.49808125  1
  H  H171  1  0.80828408  0.08538300  0.50269534  1
  H  H172  1  0.81148465  0.75029172  0.50186791  1
  H  H173  1  0.58009208  0.41443970  0.99961467  1
  H  H174  1  0.82962632  0.08532345  0.00258131  1
  H  H175  1  0.42464170  0.58580205  0.49562376  1
  H  H176  1  0.05656041  0.41764865  0.49879587  1
  H  H177  1  0.19250697  0.91831409  0.49381547  1
  H  H178  1  0.17139196  0.09030099  0.00497334  1
  H  H179  1  0.82997854  0.91234364  0.50139288  1
  H  H180  1  0.44584188  0.07350401  1.00436237  1
  H  H181  1  0.32490799  0.76080437  0.49704320  1
  H  H182  1  0.18049676  0.58075754  1.00073016  1
  H  H183  1  0.41395549  0.24927291  0.49322172  1
  H  H184  1  0.94725744  0.58143333  -0.00343595  1
  H  H185  1  0.93324439  0.91921679  -0.00454583  1
  H  H186  1  0.05183278  0.24925309  0.50027283  1
  H  H187  1  0.80329592  0.75156909  -0.00563951  1
  H  H188  1  0.32420765  0.08504482  -0.00029437  1
  H  H189  1  0.40462620  0.41510783  0.50719550  1
  H  H190  1  0.65693603  0.58190691  0.99319658  1
  H  H191  1  0.94615213  0.74732407  0.49521565  1
  Pb  Pb192  1  0.25088672  0.04485771  0.76001926  1
  Pb  Pb193  1  0.24805707  0.37922152  0.74686079  1
  Pb  Pb194  1  0.25418237  0.71382179  0.74859455  1
  Pb  Pb195  1  0.75227424  0.04785732  0.74779206  1
  Pb  Pb196  1  0.75007324  0.37905056  0.74589384  1
  Pb  Pb197  1  0.75103424  0.71190428  0.74849624  1
  Pb  Pb198  1  0.24548268  0.28458237  0.24712095  1
  Pb  Pb199  1  0.25203247  0.62103008  0.25040319  1
  Pb  Pb200  1  0.25032669  0.95449287  0.24769613  1
  Pb  Pb201  1  0.75073124  0.28813582  0.25135381  1
  Pb  Pb202  1  0.74604172  0.61856113  0.24502041  1
  Pb  Pb203  1  0.74455624  0.95183702  0.25439451  1
  Pb  Pb204  1  0.00334419  0.21359491  0.74280218  1
  Pb  Pb205  1  0.00291256  0.54673189  0.75227914  1
  Pb  Pb206  1  0.00058106  0.87881452  0.74799129  1
  Pb  Pb207  1  0.49916755  0.21341744  0.75383077  1
  Pb  Pb208  1  0.50005389  0.54522904  0.74815116  1
  Pb  Pb209  1  0.50323428  0.88046547  0.74712640  1
  Pb  Pb210  1  -0.00526748  0.11815624  0.25021091  1
  Pb  Pb211  1  0.00200765  0.45410110  0.25446994  1
  Pb  Pb212  1  -0.00130078  0.78631418  0.25011805  1
  Pb  Pb213  1  0.49997766  0.12177673  0.24344618  1
  Pb  Pb214  1  0.49796105  0.45066461  0.25045987  1
  Pb  Pb215  1  0.49622208  0.78784513  0.24867645  1
  C  C216  1  0.00168062  0.04634783  0.63466133  1
  C  C217  1  -0.00240964  0.38074241  0.63223988  1
  C  C218  1  0.00030845  0.71342490  0.63456937  1
  C  C219  1  0.50097640  0.04681931  0.63349107  1
  C  C220  1  0.49771127  0.37998485  0.63469485  1
  C  C221  1  0.50256727  0.71273737  0.63305425  1
  C  C222  1  0.00125216  0.28746444  0.13072293  1
  C  C223  1  -0.00060427  0.62028331  0.13518336  1
  C  C224  1  0.00219312  0.95256667  0.13289136  1
  C  C225  1  0.50217488  0.28743514  0.13182454  1
  C  C226  1  0.49873102  0.62069184  0.13321562  1
  C  C227  1  0.50254800  0.95184286  0.13266104  1
  C  C228  1  0.00047405  0.04664654  0.86666372  1
  C  C229  1  0.00102132  0.37944378  0.87023673  1
  C  C230  1  0.00164050  0.71376524  0.86586427  1
  C  C231  1  0.49891926  0.04513817  0.86775835  1
  C  C232  1  0.49847258  0.38009427  0.86711483  1
  C  C233  1  0.50085594  0.71365402  0.86828501  1
  C  C234  1  0.00036770  0.28672488  0.36583665  1
  C  C235  1  -0.00030825  0.61989734  0.36560453  1
  C  C236  1  -0.00312365  0.95365012  0.36575764  1
  C  C237  1  0.49683154  0.28566117  0.36717731  1
  C  C238  1  0.49778535  0.62049783  0.36710542  1
  C  C239  1  0.49792793  0.95393256  0.37004212  1
  C  C240  1  0.25224314  0.21266344  0.63381486  1
  C  C241  1  0.24997825  0.54686813  0.63333113  1
  C  C242  1  0.25207332  0.88030562  0.63195064  1
  C  C243  1  0.75414956  0.21304199  0.63590870  1
  C  C244  1  0.74973298  0.54618921  0.63423845  1
  C  C245  1  0.75190833  0.87983454  0.63579926  1
  C  C246  1  0.24869400  0.12081738  0.13369946  1
  C  C247  1  0.24959410  0.45267680  0.13268920  1
  C  C248  1  0.24776962  0.78703314  0.12956567  1
  C  C249  1  0.75083410  0.12018093  0.13025001  1
  C  C250  1  0.75285494  0.45305153  0.13537067  1
  C  C251  1  0.74866107  0.78739489  0.13459079  1
  C  C252  1  0.24761067  0.21521960  0.86727735  1
  C  C253  1  0.24833287  0.54568342  0.86574678  1
  C  C254  1  0.24944220  0.87980500  0.86819366  1
  C  C255  1  0.74816193  0.21422741  0.86794067  1
  C  C256  1  0.74979945  0.54559841  0.86626439  1
  C  C257  1  0.74875407  0.87956125  0.86610838  1
  C  C258  1  0.24954572  0.12001407  0.36545021  1
  C  C259  1  0.25113437  0.45386522  0.36437861  1
  C  C260  1  0.24832421  0.78598595  0.36964177  1
  C  C261  1  0.74889352  0.11989811  0.36479033  1
  C  C262  1  0.75194613  0.45379809  0.36805718  1
  C  C263  1  0.74873561  0.78612029  0.36531921  1
  C  C264  1  0.30867677  0.90330056  0.54247815  1
  C  C265  1  0.03024494  0.40488554  0.96501261  1
  C  C266  1  0.96916233  0.92841986  0.03649850  1
  C  C267  1  0.96606361  0.26073447  0.03749207  1
  C  C268  1  0.05037275  0.92863476  0.04131528  1
  C  C269  1  0.79177496  0.90301374  0.54110155  1
  C  C270  1  0.78941057  0.42550255  0.04265780  1
  C  C271  1  0.94962268  0.40337521  0.96017867  1
  C  C272  1  0.55449095  0.07251596  0.95595464  1
  C  C273  1  0.53697821  0.92551465  0.03909150  1
  C  C274  1  0.28413693  0.90830615  0.96101538  1
  C  C275  1  0.05195615  0.06997852  0.54300313  1
  C  C276  1  0.97003538  0.07125007  0.53848678  1
  C  C277  1  0.28811343  0.09329682  0.04075047  1
  C  C278  1  0.71044527  0.09257658  0.03628963  1
  C  C279  1  0.45797936  0.40574032  0.96062579  1
  C  C280  1  0.54865811  0.73933608  0.96090359  1
  C  C281  1  0.69977783  0.57206431  0.95652312  1
  C  C282  1  0.01767477  0.07186240  0.96355021  1
  C  C283  1  0.53439966  0.25969262  0.46128449  1
  C  C284  1  0.94557514  0.40756207  0.54149248  1
  C  C285  1  0.70968996  0.90197544  0.54146781  1
  C  C286  1  0.97805179  0.73769722  0.53824068  1
  C  C287  1  0.44833523  0.40504317  0.54314318  1
  C  C288  1  0.46711376  0.74028816  0.96291903  1
  C  C289  1  0.53034382  0.40545300  0.53884183  1
  C  C290  1  0.80529475  0.42775247  0.45863073  1
  C  C291  1  0.77542963  0.09463109  0.46016889  1
  C  C292  1  0.77625829  0.90486495  0.96123266  1
  C  C293  1  0.03981937  0.59456053  0.46000203  1
  C  C294  1  0.77077918  0.76186262  0.03679045  1
  C  C295  1  0.71794940  0.57261702  0.53824125  1
  C  C296  1  0.97783757  0.59314003  0.03954756  1
  C  C297  1  0.71265789  0.24089479  0.96127585  1
  C  C298  1  0.78518322  0.23956083  0.54165845  1
  C  C299  1  0.23115125  0.23845768  0.53766876  1
  C  C300  1  0.77724039  0.76082582  0.46029802  1
  C  C301  1  0.55583401  0.25968229  0.04199578  1
  C  C302  1  0.95751289  0.59437462  0.45940055  1
  C  C303  1  0.28335603  0.75972087  0.03456397  1
  C  C304  1  0.98098672  0.74042321  0.96179292  1
  C  C305  1  0.22757274  0.42864714  0.46025108  1
  C  C306  1  0.21716783  0.57141866  0.96012487  1
  C  C307  1  0.68980588  0.76374393  0.04600587  1
  C  C308  1  0.22767458  0.90643204  0.53452578  1
  C  C309  1  0.21341104  0.57453943  0.54013576  1
  C  C310  1  0.79939618  0.57051861  0.54297773  1
  C  C311  1  0.53959882  0.40506823  0.96135732  1
  N  N312  1  0.20574244  0.09426108  0.45801190  1
  N  N313  1  0.20437591  0.76116311  0.03832714  1
  N  N314  1  0.05573041  0.93000938  0.45387643  1
  N  N315  1  0.45471333  0.25987559  0.45881807  1
  N  N316  1  0.78993062  0.24083211  0.96188221  1
  N  N317  1  0.20956746  0.76720753  0.46365153  1
  N  N318  1  0.69648391  0.09456627  0.45584912  1
  N  N319  1  0.69819207  0.76214588  0.45725530  1
  N  N320  1  0.47507733  0.07393666  0.96250122  1
  N  N321  1  0.69720303  0.90466027  0.95732315  1
  N  N322  1  0.20681185  0.90878692  0.96116830  1
  N  N323  1  0.47708934  0.25985861  0.03733823  1
  N  N324  1  0.46184966  0.59490074  0.45884185  1
  N  N325  1  0.28846096  0.42630750  0.03911277  1
  N  N326  1  0.72651506  0.42699378  0.46277260  1
  N  N327  1  0.30636283  0.42923717  0.45440036  1
  N  N328  1  0.28194641  0.09282353  0.46028857  1
  N  N329  1  0.77931095  0.57376768  0.95987433  1
  N  N330  1  0.46315849  0.59517766  0.04105113  1
  N  N331  1  0.78967138  0.09341709  0.03801915  1
  N  N332  1  0.31002535  0.23714681  0.54440670  1
  N  N333  1  0.53800742  0.07142434  0.53898400  1
  N  N334  1  0.05975779  0.73910643  0.95473508  1
  N  N335  1  0.43798424  0.93247782  0.45625214  1
  N  N336  1  0.05668029  0.59465220  0.04602910  1
  N  N337  1  0.54024828  0.59468414  0.46027549  1
  N  N338  1  0.46161163  0.07106407  0.53943772  1
  N  N339  1  0.70998762  0.42671639  0.04179116  1
  N  N340  1  0.02437676  0.40809377  0.53803577  1
  N  N341  1  0.29141928  0.57472286  0.53953085  1
  N  N342  1  0.05698346  0.73640018  0.54430398  1
  N  N343  1  0.02294354  0.26131975  0.46015578  1
  N  N344  1  0.54146570  0.59549771  0.04001855  1
  N  N345  1  0.29653577  0.57256764  0.95777897  1
  N  N346  1  0.45972818  0.92629350  0.03865869  1
  N  N347  1  0.28790781  0.75392315  0.45952087  1
  N  N348  1  0.04341783  0.26055564  0.03693467  1
  N  N349  1  0.19309670  0.23714395  0.95759458  1
  N  N350  1  0.97821826  0.92739351  0.46051927  1
  N  N351  1  0.21229172  0.42617058  0.03880190  1
  N  N352  1  0.51546013  0.92100096  0.46393869  1
  N  N353  1  0.53188461  0.74107895  0.53799324  1
  N  N354  1  0.94517801  0.26324028  0.45531285  1
  N  N355  1  0.70582268  0.23869660  0.54360877  1
  N  N356  1  0.93927511  0.07101359  0.95469281  1
  N  N357  1  0.27079246  0.23928968  0.96174733  1
  N  N358  1  0.45530000  0.74069226  0.54216984  1
  N  N359  1  0.20850424  0.09159693  0.04274270  1
  N  N360  1  0.07000523  0.05475555  0.60294315  1
  N  N361  1  0.05761120  0.39078460  0.59341953  1
  N  N362  1  0.06880263  0.72172755  0.60475807  1
  N  N363  1  0.56389700  0.05663898  0.59725536  1
  N  N364  1  0.55962400  0.38986620  0.59634251  1
  N  N365  1  0.56238093  0.72387080  0.59410895  1
  N  N366  1  0.44290324  0.27899858  0.09188663  1
  N  N367  1  0.43590911  0.60995077  0.09756758  1
  N  N368  1  0.43794900  0.94263756  0.09841875  1
  N  N369  1  0.93735973  0.27661588  0.09389672  1
  N  N370  1  0.94112206  0.60889007  0.09383928  1
  N  N371  1  0.93994867  0.94343638  0.09496191  1
  N  N372  1  0.44084300  0.05355605  0.90883620  1
  N  N373  1  0.43337991  0.39071898  0.90372216  1
  N  N374  1  0.43841753  0.72496990  0.90719762  1
  N  N375  1  0.93052464  0.05542008  0.89420206  1
  N  N376  1  0.93195906  0.38796206  0.90177822  1
  N  N377  1  0.94390001  0.72498066  0.90767808  1
  N  N378  1  0.05834574  0.27525515  0.40603959  1
  N  N379  1  0.06434110  0.61028195  0.40116580  1
  N  N380  1  0.06652727  0.94502087  0.39472719  1
  N  N381  1  0.56076810  0.27581394  0.40441569  1
  N  N382  1  0.56176630  0.61033251  0.40269974  1
  N  N383  1  0.55321243  0.94378055  0.41303248  1
  N  N384  1  0.32128431  0.22099682  0.60475966  1
  N  N385  1  0.31404004  0.55725179  0.59887449  1
  N  N386  1  0.32280062  0.88774021  0.60169044  1
  N  N387  1  0.81631041  0.22412656  0.59797743  1
  N  N388  1  0.81813558  0.55486778  0.60107150  1
  N  N389  1  0.81670207  0.88927612  0.60013734  1
  N  N390  1  0.18429945  0.11164370  0.09924464  1
  N  N391  1  0.18648370  0.44231555  0.09680405  1
  N  N392  1  0.18175906  0.77829722  0.09687370  1
  N  N393  1  0.68626605  0.10867967  0.09351946  1
  N  N394  1  0.68896916  0.44370587  0.10002647  1
  N  N395  1  0.67732548  0.77904800  0.10527007  1
  N  N396  1  0.17920927  0.22207777  0.89856134  1
  N  N397  1  0.18617408  0.55553271  0.90398362  1
  N  N398  1  0.18484023  0.89087371  0.90198073  1
  N  N399  1  0.68404338  0.22481277  0.90468958  1
  N  N400  1  0.68135353  0.55567464  0.89807860  1
  N  N401  1  0.68193432  0.88876098  0.89809381  1
  N  N402  1  0.31063136  0.10868983  0.40308236  1
  N  N403  1  0.31942789  0.44489992  0.39441416  1
  N  N404  1  0.31230954  0.77652508  0.40460419  1
  N  N405  1  0.80938953  0.10965232  0.40459242  1
  N  N406  1  0.82120420  0.44409287  0.39991699  1
  N  N407  1  0.81005379  0.77529409  0.40416168  1
  N  N408  1  0.43175977  0.27558531  0.40070922  1
  N  N409  1  0.43449448  0.61043384  0.40260722  1
  N  N410  1  0.42732872  0.94450959  0.39645175  1
  N  N411  1  0.93192201  0.27883635  0.39660193  1
  N  N412  1  0.93432034  0.61004738  0.40033751  1
  N  N413  1  0.94049470  0.94344992  0.40767498  1
  N  N414  1  0.05675663  0.05713132  0.90988314  1
  N  N415  1  0.06184208  0.39048485  0.91020087  1
  N  N416  1  0.07079648  0.72246233  0.89460774  1
  N  N417  1  0.56892242  0.05658453  0.89676802  1
  N  N418  1  0.56357498  0.38910517  0.90195071  1
  N  N419  1  0.56812403  0.72240048  0.90064013  1
  N  N420  1  0.06562628  0.27779315  0.09626731  1
  N  N421  1  0.06812433  0.61121926  0.10573923  1
  N  N422  1  0.06999426  0.94307614  0.09941727  1
  N  N423  1  0.57143293  0.27605456  0.10066755  1
  N  N424  1  0.56275434  0.61141972  0.09737509  1
  N  N425  1  0.56621438  0.94114108  0.09545303  1
  N  N426  1  0.43715949  0.05598810  0.59798702  1
  N  N427  1  0.42963406  0.38928683  0.60279223  1
  N  N428  1  0.43608323  0.72300745  0.60105119  1
  N  N429  1  0.94005989  0.05665615  0.59604001  1
  N  N430  1  0.92883082  0.39082596  0.59991670  1
  N  N431  1  0.94180038  0.72387922  0.59322130  1
  N  N432  1  0.18412514  0.11109725  0.39923268  1
  N  N433  1  0.19219952  0.44338396  0.40529112  1
  N  N434  1  0.18456615  0.77620606  0.40482024  1
  N  N435  1  0.68169769  0.11028497  0.39629281  1
  N  N436  1  0.69245608  0.44408831  0.40743930  1
  N  N437  1  0.68221200  0.77754877  0.39794023  1
  N  N438  1  0.30592190  0.22671725  0.90711957  1
  N  N439  1  0.31399303  0.55625558  0.89853552  1
  N  N440  1  0.31315060  0.89083093  0.90517506  1
  N  N441  1  0.81240641  0.22413493  0.90240542  1
  N  N442  1  0.81013521  0.55532026  0.90482994  1
  N  N443  1  0.80970561  0.88993055  0.90547128  1
  N  N444  1  0.31343552  0.10983972  0.09756458  1
  N  N445  1  0.31326239  0.44257388  0.09726339  1
  N  N446  1  0.31036716  0.77576803  0.09087550  1
  N  N447  1  0.81505131  0.11107642  0.09576146  1
  N  N448  1  0.81696510  0.44185090  0.09968578  1
  N  N449  1  0.80647245  0.77673289  0.09330604  1
  N  N450  1  0.19438983  0.22401627  0.59216276  1
  N  N451  1  0.18595561  0.55775672  0.59668751  1
  N  N452  1  0.19350535  0.89153049  0.59156276  1
  N  N453  1  0.68849821  0.22230572  0.60255129  1
  N  N454  1  0.68818218  0.55713101  0.59635108  1
  N  N455  1  0.68635803  0.88776372  0.60061251  1
  Cl  Cl456  1  0.25443907  0.05076080  0.62901507  1
  Cl  Cl457  1  0.24012929  0.38888286  0.61094172  1
  Cl  Cl458  1  0.25235305  0.72211977  0.61206036  1
  Cl  Cl459  1  0.75305392  0.05423694  0.61515274  1
  Cl  Cl460  1  0.74365062  0.39147757  0.60870335  1
  Cl  Cl461  1  0.75396157  0.72095116  0.61314349  1
  Cl  Cl462  1  0.25865837  0.27398437  0.10838012  1
  Cl  Cl463  1  0.25313557  0.61799930  0.11558942  1
  Cl  Cl464  1  0.25375045  0.94996491  0.11779069  1
  Cl  Cl465  1  0.75348956  0.28018027  0.12147001  1
  Cl  Cl466  1  0.75306167  0.60920253  0.10499293  1
  Cl  Cl467  1  0.75313195  0.94842365  0.11975828  1
  Cl  Cl468  1  0.24976819  0.05950857  0.89870108  1
  Cl  Cl469  1  0.24929001  0.38292410  0.87545835  1
  Cl  Cl470  1  0.25381654  0.72215117  0.88089561  1
  Cl  Cl471  1  0.74926936  0.05487256  0.88305119  1
  Cl  Cl472  1  0.74933498  0.38453740  0.87645561  1
  Cl  Cl473  1  0.75987998  0.71861094  0.88162227  1
  Cl  Cl474  1  0.24286876  0.27806947  0.38613358  1
  Cl  Cl475  1  0.25079108  0.61702811  0.38197677  1
  Cl  Cl476  1  0.24770228  0.94562861  0.38186415  1
  Cl  Cl477  1  0.74790420  0.28409929  0.38481548  1
  Cl  Cl478  1  0.74651657  0.61315121  0.37732944  1
  Cl  Cl479  1  0.74936947  0.94144885  0.39105246  1
  Cl  Cl480  1  0.00854359  0.22592294  0.60519535  1
  Cl  Cl481  1  0.00258494  0.54964096  0.61918829  1
  Cl  Cl482  1  0.00077960  0.89036234  0.61075112  1
  Cl  Cl483  1  0.50418279  0.22305134  0.61944955  1
  Cl  Cl484  1  0.49885420  0.55496536  0.61540978  1
  Cl  Cl485  1  0.50544242  0.89445109  0.61001555  1
  Cl  Cl486  1  0.00048875  0.11175292  0.11375456  1
  Cl  Cl487  1  0.00154477  0.44773560  0.12318853  1
  Cl  Cl488  1  -0.00601165  0.78014463  0.11463447  1
  Cl  Cl489  1  0.49868861  0.11011699  0.10510358  1
  Cl  Cl490  1  0.49991652  0.44607593  0.11705037  1
  Cl  Cl491  1  0.49401092  0.78109367  0.11615799  1
  Cl  Cl492  1  -0.00340833  0.21870585  0.87386250  1
  Cl  Cl493  1  -0.00511756  0.55353312  0.88823022  1
  Cl  Cl494  1  -0.00459014  0.88683629  0.88131744  1
  Cl  Cl495  1  0.49010036  0.22479238  0.89456439  1
  Cl  Cl496  1  0.49765924  0.55409537  0.88332942  1
  Cl  Cl497  1  0.49723384  0.88445989  0.87729941  1
  Cl  Cl498  1  -0.00221496  0.11331279  0.38490975  1
  Cl  Cl499  1  0.00871299  0.44050262  0.39284600  1
  Cl  Cl500  1  -0.00142777  0.78014778  0.38622282  1
  Cl  Cl501  1  0.49460768  0.11590977  0.37495982  1
  Cl  Cl502  1  0.50793548  0.44538609  0.38603187  1
  Cl  Cl503  1  0.49529720  0.78303165  0.38058553  1
  Cl  Cl504  1  0.36376917  0.14543409  0.75076778  1
  Cl  Cl505  1  0.36333932  0.47721672  0.74936071  1
  Cl  Cl506  1  0.36127172  0.81036650  0.74522841  1
  Cl  Cl507  1  0.85970293  0.14246429  0.75118597  1
  Cl  Cl508  1  0.86175898  0.47800035  0.74672522  1
  Cl  Cl509  1  0.86417291  0.81176813  0.74745841  1
  Cl  Cl510  1  0.14101833  0.19112078  0.24923644  1
  Cl  Cl511  1  0.13676048  0.52265120  0.24983318  1
  Cl  Cl512  1  0.13745431  0.85540428  0.25064518  1
  Cl  Cl513  1  0.63610690  0.18858219  0.25020450  1
  Cl  Cl514  1  0.64111270  0.52396848  0.24593224  1
  Cl  Cl515  1  0.63907085  0.85664954  0.25014103  1
  Cl  Cl516  1  0.13751893  0.14555481  0.75203202  1
  Cl  Cl517  1  0.13759297  0.47805488  0.74855413  1
  Cl  Cl518  1  0.13551497  0.81073368  0.75113128  1
  Cl  Cl519  1  0.63551962  0.14444532  0.75053605  1
  Cl  Cl520  1  0.63655300  0.47853596  0.75097027  1
  Cl  Cl521  1  0.63797756  0.81171290  0.75154007  1
  Cl  Cl522  1  0.36352383  0.18962186  0.24745785  1
  Cl  Cl523  1  0.36348808  0.52202676  0.25220359  1
  Cl  Cl524  1  0.36094269  0.85480399  0.25206562  1
  Cl  Cl525  1  0.86134827  0.18806566  0.25192836  1
  Cl  Cl526  1  0.86449746  0.52208599  0.25435193  1
  Cl  Cl527  1  0.86312052  0.85453734  0.25057902  1
  Cl  Cl528  1  0.11155472  0.31018970  0.74963917  1
  Cl  Cl529  1  0.11243304  0.64397376  0.74918860  1
  Cl  Cl530  1  0.11244845  0.97960872  0.74976618  1
  Cl  Cl531  1  0.61238353  0.31125444  0.74939971  1
  Cl  Cl532  1  0.61382689  0.64482968  0.75309474  1
  Cl  Cl533  1  0.61227378  0.97625910  0.75260562  1
  Cl  Cl534  1  0.38703519  0.02136472  0.24959945  1
  Cl  Cl535  1  0.39198558  0.35703281  0.25498533  1
  Cl  Cl536  1  0.38728418  0.68920207  0.25162544  1
  Cl  Cl537  1  0.89201736  0.02327995  0.25064809  1
  Cl  Cl538  1  0.88668200  0.35510538  0.25413090  1
  Cl  Cl539  1  0.89148988  0.68902656  0.25093401  1
  Cl  Cl540  1  0.38740323  0.31033021  0.74691158  1
  Cl  Cl541  1  0.38578231  0.64438376  0.74996781  1
  Cl  Cl542  1  0.38850153  0.97801075  0.75060130  1
  Cl  Cl543  1  0.88556563  0.31136952  0.74698786  1
  Cl  Cl544  1  0.88924103  0.64507141  0.74883246  1
  Cl  Cl545  1  0.88535123  0.97821759  0.75093096  1
  Cl  Cl546  1  0.11339463  0.02220053  0.24997153  1
  Cl  Cl547  1  0.11133864  0.35428239  0.25002329  1
  Cl  Cl548  1  0.11411482  0.68889464  0.24884594  1
  Cl  Cl549  1  0.61216696  0.02169973  0.25213152  1
  Cl  Cl550  1  0.61317368  0.35510445  0.24819926  1
  Cl  Cl551  1  0.61214767  0.68839772  0.24768815  1
