# generated using pymatgen
data_H8PbC4(N3Cl2)2
_symmetry_space_group_name_H-M   'P 1'
_cell_length_a   16.62904319
_cell_length_b   22.52630472
_cell_length_c   21.59472483
_cell_angle_alpha   90.00036730
_cell_angle_beta   90.00184979
_cell_angle_gamma   90.01705886
_symmetry_Int_Tables_number   1
_chemical_formula_structural   H8PbC4(N3Cl2)2
_chemical_formula_sum   'H192 Pb24 C96 N144 Cl96'
_cell_volume   8089.18691745
_cell_formula_units_Z   24
loop_
 _symmetry_equiv_pos_site_id
 _symmetry_equiv_pos_as_xyz
  1  'x, y, z'
loop_
 _atom_site_type_symbol
 _atom_site_label
 _atom_site_symmetry_multiplicity
 _atom_site_fract_x
 _atom_site_fract_y
 _atom_site_fract_z
 _atom_site_occupancy
  H  H0  1  0.01243358  0.03200672  0.68054368  1
  H  H1  1  -0.00639003  0.36002271  0.67199740  1
  H  H2  1  0.00054550  0.69278184  0.67383708  1
  H  H3  1  0.48681691  0.02821952  0.67527727  1
  H  H4  1  0.49330002  0.36321020  0.68563076  1
  H  H5  1  0.50149571  0.69194250  0.67660729  1
  H  H6  1  0.00453994  0.30489574  0.17771287  1
  H  H7  1  0.00131679  0.63746242  0.17391619  1
  H  H8  1  -0.00034464  0.97129116  0.16683254  1
  H  H9  1  0.47710849  0.30418917  0.15516501  1
  H  H10  1  0.50573343  0.63552818  0.18309717  1
  H  H11  1  0.49863081  0.97251260  0.17793740  1
  H  H12  1  -0.00498166  0.02499789  0.82788332  1
  H  H13  1  0.00739735  0.36390214  0.82205505  1
  H  H14  1  0.02093430  0.69127785  0.82712426  1
  H  H15  1  0.50284208  0.02599843  0.82279334  1
  H  H16  1  0.50514148  0.36303993  0.82375157  1
  H  H17  1  0.48343025  0.69509304  0.82411065  1
  H  H18  1  0.00458023  0.30595527  0.31775164  1
  H  H19  1  -0.00741597  0.64247098  0.32479407  1
  H  H20  1  -0.02830107  0.96638665  0.33866650  1
  H  H21  1  0.47329838  0.29696758  0.34028316  1
  H  H22  1  0.49167677  0.64248517  0.32583387  1
  H  H23  1  0.50098077  0.97790805  0.32625644  1
  H  H24  1  0.28074203  0.20073721  0.65820605  1
  H  H25  1  0.25030909  0.52808886  0.67323169  1
  H  H26  1  0.25733857  0.85667674  0.67940125  1
  H  H27  1  0.75526669  0.19374367  0.67939386  1
  H  H28  1  0.74957000  0.53188421  0.67787687  1
  H  H29  1  0.77406840  0.86328338  0.65341018  1
  H  H30  1  0.25102268  0.13580325  0.17852262  1
  H  H31  1  0.26514162  0.47191640  0.17674847  1
  H  H32  1  0.25244645  0.80368384  0.18592464  1
  H  H33  1  0.76198707  0.13631261  0.17496839  1
  H  H34  1  0.75472311  0.47311842  0.17784415  1
  H  H35  1  0.74045479  0.80092688  0.17542869  1
  H  H36  1  0.27167903  0.19729905  0.84599571  1
  H  H37  1  0.26368930  0.53297777  0.81948921  1
  H  H38  1  0.26391770  0.86844498  0.82300483  1
  H  H39  1  0.75443133  0.19689130  0.81542363  1
  H  H40  1  0.74354146  0.52400533  0.82460350  1
  H  H41  1  0.73872558  0.86351828  0.82432911  1
  H  H42  1  0.24401755  0.13486596  0.31848476  1
  H  H43  1  0.26968716  0.47111279  0.32270987  1
  H  H44  1  0.26401986  0.80298201  0.32487635  1
  H  H45  1  0.76366360  0.14071417  0.32838005  1
  H  H46  1  0.72785315  0.47595931  0.32702486  1
  H  H47  1  0.73731605  0.80125340  0.31959589  1
  H  H48  1  0.12315579  0.05703180  0.59890467  1
  H  H49  1  0.12193021  0.38823448  0.60816063  1
  H  H50  1  0.12279760  0.71993283  0.60482130  1
  H  H51  1  0.62512923  0.05005669  0.61872690  1
  H  H52  1  0.62072666  0.38375594  0.61873444  1
  H  H53  1  0.62295135  0.72357973  0.60441817  1
  H  H54  1  0.33914885  0.27921645  0.10391817  1
  H  H55  1  0.37737518  0.61196041  0.11515706  1
  H  H56  1  0.37489539  0.95261484  0.10654720  1
  H  H57  1  0.86329352  0.28299907  0.12853799  1
  H  H58  1  0.87483322  0.60904314  0.10794216  1
  H  H59  1  0.87657973  0.94629307  0.09921333  1
  H  H60  1  0.38204128  0.05703967  0.89278723  1
  H  H61  1  0.38409014  0.38943970  0.89680161  1
  H  H62  1  0.37931565  0.72634744  0.90905641  1
  H  H63  1  0.88388233  0.05466255  0.90656194  1
  H  H64  1  0.87825291  0.38868884  0.88582585  1
  H  H65  1  0.87659915  0.71394368  0.87178543  1
  H  H66  1  0.11187536  0.27699130  0.39931819  1
  H  H67  1  0.12795186  0.61706364  0.38186766  1
  H  H68  1  0.08414204  0.93795525  0.41599163  1
  H  H69  1  0.58627963  0.26975155  0.41691215  1
  H  H70  1  0.63125136  0.61865452  0.38026345  1
  H  H71  1  0.60464277  0.94355923  0.40928741  1
  H  H72  1  0.41739082  0.21970570  0.60207210  1
  H  H73  1  0.36565529  0.55988749  0.59943891  1
  H  H74  1  0.39042868  0.88680518  0.62042767  1
  H  H75  1  0.88513996  0.21539287  0.61744073  1
  H  H76  1  0.86107951  0.56107333  0.59788821  1
  H  H77  1  0.91224854  0.88370933  0.60029990  1
  H  H78  1  0.11699881  0.11069049  0.11832384  1
  H  H79  1  0.12810230  0.44847358  0.12084562  1
  H  H80  1  0.12552590  0.78592183  0.11685500  1
  H  H81  1  0.62188792  0.11943913  0.12069216  1
  H  H82  1  0.62176337  0.44688323  0.11695523  1
  H  H83  1  0.62597247  0.77515674  0.09760046  1
  H  H84  1  0.16481961  0.23126439  0.92669452  1
  H  H85  1  0.12860044  0.55233778  0.87989879  1
  H  H86  1  0.12455187  0.88331212  0.87733283  1
  H  H87  1  0.64225938  0.22239715  0.89252275  1
  H  H88  1  0.62997288  0.55665977  0.90019110  1
  H  H89  1  0.63139253  0.89164543  0.90474156  1
  H  H90  1  0.37847320  0.11719714  0.37969061  1
  H  H91  1  0.36967428  0.44141164  0.40833078  1
  H  H92  1  0.37652313  0.77462822  0.40274333  1
  H  H93  1  0.87149070  0.10730161  0.40793113  1
  H  H94  1  0.87349871  0.45233108  0.36889515  1
  H  H95  1  0.87597876  0.78118545  0.37796109  1
  H  H96  1  0.33843794  0.27663724  0.39934258  1
  H  H97  1  0.38643368  0.60988243  0.40922407  1
  H  H98  1  0.36163850  0.95018199  0.37699248  1
  H  H99  1  0.86562577  0.28188777  0.37277596  1
  H  H100  1  0.88227535  0.60844278  0.40420606  1
  H  H101  1  0.83710954  0.94642998  0.39568327  1
  H  H102  1  0.13076765  0.04923497  0.88515231  1
  H  H103  1  0.12716936  0.38940821  0.89701901  1
  H  H104  1  0.11846303  0.72995736  0.91187011  1
  H  H105  1  0.63164516  0.05237296  0.88867554  1
  H  H106  1  0.63200188  0.39079706  0.89087883  1
  H  H107  1  0.62378035  0.71789333  0.87735936  1
  H  H108  1  0.10658866  0.27123491  0.09362304  1
  H  H109  1  0.12284060  0.61381623  0.10171791  1
  H  H110  1  0.12410919  0.94570390  0.10165100  1
  H  H111  1  0.58445160  0.26891938  0.07596158  1
  H  H112  1  0.62635814  0.61132965  0.10930394  1
  H  H113  1  0.62227798  0.94073766  0.11141283  1
  H  H114  1  0.37967988  0.06028579  0.59187963  1
  H  H115  1  0.37173659  0.38670571  0.61374603  1
  H  H116  1  0.37449601  0.71923265  0.60831596  1
  H  H117  1  0.87567732  0.05266632  0.62064588  1
  H  H118  1  0.87463209  0.39148113  0.59826321  1
  H  H119  1  0.87382538  0.72042329  0.60659469  1
  H  H120  1  0.13006451  0.11010546  0.39518117  1
  H  H121  1  0.12606166  0.45059983  0.37092065  1
  H  H122  1  0.12965011  0.78396053  0.38160305  1
  H  H123  1  0.62566063  0.11930910  0.38333659  1
  H  H124  1  0.63546472  0.43825467  0.41556704  1
  H  H125  1  0.63033207  0.77391856  0.40408101  1
  H  H126  1  0.41102261  0.22000937  0.89678923  1
  H  H127  1  0.37575781  0.55721016  0.90022723  1
  H  H128  1  0.37043578  0.89195772  0.90514681  1
  H  H129  1  0.88886977  0.21413294  0.87408484  1
  H  H130  1  0.87736335  0.55203998  0.88334231  1
  H  H131  1  0.87755381  0.88053213  0.87900599  1
  H  H132  1  0.36466647  0.10881226  0.10009947  1
  H  H133  1  0.37271861  0.43924739  0.09552375  1
  H  H134  1  0.37515927  0.78125677  0.11504958  1
  H  H135  1  0.86612546  0.10393606  0.09214765  1
  H  H136  1  0.86949339  0.44503774  0.10117635  1
  H  H137  1  0.87333849  0.78537951  0.11501926  1
  H  H138  1  0.17045468  0.22849572  0.57922607  1
  H  H139  1  0.11798978  0.55638126  0.61279713  1
  H  H140  1  0.14318652  0.88293522  0.60275356  1
  H  H141  1  0.63722355  0.22154622  0.60712931  1
  H  H142  1  0.61350026  0.55260341  0.61901417  1
  H  H143  1  0.66584009  0.90114150  0.57493609  1
  H  H144  1  0.57273386  0.58444160  0.00134973  1
  H  H145  1  0.58660526  0.41676775  0.99635726  1
  H  H146  1  0.30976981  0.58671756  1.00447962  1
  H  H147  1  0.91891381  0.74987115  0.50171984  1
  H  H148  1  0.07029048  0.57258697  0.00486913  1
  H  H149  1  0.72564662  0.41245973  0.50894416  1
  H  H150  1  0.14027057  0.42294552  0.48052087  1
  H  H151  1  0.70075263  0.92273679  1.01050611  1
  H  H152  1  0.15355444  0.75003957  0.49546423  1
  H  H153  1  0.15377919  0.58730567  0.50608279  1
  H  H154  1  0.91460741  0.41876461  0.99694204  1
  H  H155  1  0.45965183  0.75062807  1.00764334  1
  H  H156  1  0.59106756  0.08220849  0.99383247  1
  H  H157  1  0.05332777  0.08503973  0.49398642  1
  H  H158  1  0.32834973  0.75648623  0.00353742  1
  H  H159  1  0.04039365  0.24491106  0.50233108  1
  H  H160  1  0.95379414  0.58222585  0.50465345  1
  H  H161  1  0.43695198  0.94316725  0.00032910  1
  H  H162  1  0.65101015  0.08824706  0.49218229  1
  H  H163  1  0.29131095  0.41245572  0.51028137  1
  H  H164  1  0.03336618  0.75806742  1.00800342  1
  H  H165  1  0.91671197  0.59006766  0.00228330  1
  H  H166  1  0.84617345  0.75661319  0.00016244  1
  H  H167  1  0.23143087  0.25478028  0.47166312  1
  H  H168  1  0.43394899  0.09188061  1.00033229  1
  H  H169  1  0.29892149  0.41397556  -0.00423670  1
  H  H170  1  0.85072781  0.24833711  0.50462019  1
  H  H171  1  0.52775058  0.91454333  0.50824394  1
  H  H172  1  0.60887055  0.58910174  0.48917982  1
  H  H173  1  0.51466693  0.24523253  -0.02654805  1
  H  H174  1  0.07300183  0.41404368  1.00077690  1
  H  H175  1  0.52984656  0.23837848  0.52387138  1
  H  H176  1  0.86324328  0.24121104  0.98971634  1
  H  H177  1  0.16752304  0.76494895  0.00375204  1
  H  H178  1  0.10170252  0.07758797  0.99392190  1
  H  H179  1  0.02531173  0.90865835  0.52309027  1
  H  H180  1  0.93140398  0.41863198  0.49636258  1
  H  H181  1  0.19101958  0.08340304  0.50500276  1
  H  H182  1  0.20317317  0.91878186  0.49717575  1
  H  H183  1  0.02945745  0.24461355  -0.00612714  1
  H  H184  1  0.56015219  0.88123636  0.02569344  1
  H  H185  1  0.73591614  0.92440901  0.47292058  1
  H  H186  1  0.58154515  0.40596247  0.50534146  1
  H  H187  1  0.29929255  0.91791726  1.01268658  1
  H  H188  1  0.42056188  0.40856034  0.50189162  1
  H  H189  1  0.70259812  0.25033693  1.00095782  1
  H  H190  1  0.35813120  0.91218313  0.51114402  1
  H  H191  1  0.23661739  0.25409739  1.02821685  1
  Pb  Pb192  1  0.25234595  0.04948053  0.74525789  1
  Pb  Pb193  1  0.25539091  0.38530106  0.75449659  1
  Pb  Pb194  1  0.25399174  0.71738909  0.75855798  1
  Pb  Pb195  1  0.76126571  0.05070221  0.75403602  1
  Pb  Pb196  1  0.75588070  0.38035719  0.74389335  1
  Pb  Pb197  1  0.75141706  0.71521045  0.74488796  1
  Pb  Pb198  1  0.24398191  0.28255309  0.24775232  1
  Pb  Pb199  1  0.25127618  0.61505489  0.25382873  1
  Pb  Pb200  1  0.24036728  0.95189797  0.25682501  1
  Pb  Pb201  1  0.73295038  0.28359185  0.24484117  1
  Pb  Pb202  1  0.74816943  0.61733723  0.24917038  1
  Pb  Pb203  1  0.74480567  0.95146248  0.24658725  1
  Pb  Pb204  1  0.01879482  0.21757966  0.74577990  1
  Pb  Pb205  1  0.00028553  0.55043909  0.74777005  1
  Pb  Pb206  1  0.00345214  0.88007070  0.74947479  1
  Pb  Pb207  1  0.50440481  0.21428787  0.75365069  1
  Pb  Pb208  1  0.50495799  0.54897951  0.75482356  1
  Pb  Pb209  1  0.51318625  0.88665072  0.75528063  1
  Pb  Pb210  1  -0.01081374  0.11472782  0.25063573  1
  Pb  Pb211  1  -0.00543688  0.45019077  0.24238989  1
  Pb  Pb212  1  -0.00130649  0.78412039  0.24671802  1
  Pb  Pb213  1  0.49488215  0.11678191  0.24128255  1
  Pb  Pb214  1  0.50119816  0.44570098  0.25678279  1
  Pb  Pb215  1  0.49725422  0.78480745  0.24963314  1
  C  C216  1  0.00352862  0.04696989  0.63321644  1
  C  C217  1  -0.00350770  0.37885481  0.62575132  1
  C  C218  1  -0.00144636  0.70985171  0.62697289  1
  C  C219  1  0.49705423  0.04558740  0.62899856  1
  C  C220  1  0.49545441  0.37739191  0.63755203  1
  C  C221  1  0.49969576  0.71047088  0.63028455  1
  C  C222  1  -0.00853645  0.28824820  0.13169071  1
  C  C223  1  -0.00041415  0.62061123  0.12671712  1
  C  C224  1  0.00012689  0.95396870  0.12015310  1
  C  C225  1  0.46711841  0.28587987  0.10922163  1
  C  C226  1  0.50292683  0.62020433  0.13556414  1
  C  C227  1  0.49876970  0.95545001  0.13093385  1
  C  C228  1  0.00381401  0.04175083  0.87442016  1
  C  C229  1  0.00471594  0.37953232  0.86965840  1
  C  C230  1  0.00573016  0.70979321  0.87203926  1
  C  C231  1  0.50607170  0.04422656  0.86936327  1
  C  C232  1  0.50725616  0.38030871  0.87061906  1
  C  C233  1  0.49500465  0.71200758  0.87030341  1
  C  C234  1  -0.00639661  0.28878034  0.36395784  1
  C  C235  1  0.00059001  0.62387302  0.37069221  1
  C  C236  1  -0.03604330  0.95061155  0.38590874  1
  C  C237  1  0.46587756  0.28112643  0.38751245  1
  C  C238  1  0.50359011  0.62492750  0.37164205  1
  C  C239  1  0.48900569  0.95891286  0.37154974  1
  C  C240  1  0.28974495  0.21582101  0.61085703  1
  C  C241  1  0.24405646  0.54646819  0.62713079  1
  C  C242  1  0.26471320  0.87467142  0.63297501  1
  C  C243  1  0.76009678  0.21019123  0.63244634  1
  C  C244  1  0.74150504  0.54788519  0.63108468  1
  C  C245  1  0.78391793  0.88213307  0.60762015  1
  C  C246  1  0.24380111  0.11903693  0.13201800  1
  C  C247  1  0.25531918  0.45464932  0.13050019  1
  C  C248  1  0.25092112  0.78998658  0.13766758  1
  C  C249  1  0.74940860  0.12012806  0.12885437  1
  C  C250  1  0.74824860  0.45600642  0.13144106  1
  C  C251  1  0.74730843  0.78701830  0.12771932  1
  C  C252  1  0.28262514  0.21483424  0.89216471  1
  C  C253  1  0.25572146  0.54710962  0.86712727  1
  C  C254  1  0.25280927  0.88179525  0.87049284  1
  C  C255  1  0.76252833  0.21125136  0.86300879  1
  C  C256  1  0.75071208  0.54330945  0.87003672  1
  C  C257  1  0.74923275  0.87875728  0.87123009  1
  C  C258  1  0.25066952  0.12116845  0.36629568  1
  C  C259  1  0.25421492  0.45554757  0.36893277  1
  C  C260  1  0.25589506  0.78740751  0.37189479  1
  C  C261  1  0.75307402  0.12389049  0.37467903  1
  C  C262  1  0.74536143  0.45700159  0.37118747  1
  C  C263  1  0.74790504  0.78653369  0.36682249  1
  C  C264  1  0.71865047  0.76010009  0.03205471  1
  C  C265  1  0.93498214  0.74398392  0.95121567  1
  C  C266  1  0.27761792  0.57430817  0.96258432  1
  C  C267  1  0.77511537  0.09057486  0.47015675  1
  C  C268  1  0.26660708  0.42517023  0.46554730  1
  C  C269  1  0.80753388  0.23886180  0.54116910  1
  C  C270  1  0.41166067  0.25321939  0.47741004  1
  C  C271  1  0.72537045  0.58042938  0.96199732  1
  C  C272  1  0.22427051  0.09489453  0.46327519  1
  C  C273  1  0.20085473  0.75957204  0.46108834  1
  C  C274  1  0.47020870  0.07781180  0.96102567  1
  C  C275  1  0.76418621  0.08738630  0.03394241  1
  C  C276  1  0.68935982  0.57555679  0.54283402  1
  C  C277  1  0.26501768  0.24446839  0.51365460  1
  C  C278  1  0.30525818  0.09758541  0.45626559  1
  C  C279  1  0.96054868  0.92245636  0.02902695  1
  C  C280  1  0.97822580  0.07439598  0.96957391  1
  C  C281  1  0.90804528  0.92530130  0.47647337  1
  C  C282  1  0.45844188  0.39977382  0.54185095  1
  C  C283  1  0.26906344  0.08737609  0.03785033  1
  C  C284  1  0.72634480  0.24095322  0.53912528  1
  C  C285  1  0.79969790  0.76402786  0.03594821  1
  C  C286  1  0.95721646  0.40815091  0.96002023  1
  C  C287  1  0.53544850  0.59416590  0.04159639  1
  C  C288  1  0.73586487  0.23794470  0.95939165  1
  C  C289  1  0.73063489  0.90914365  0.96802982  1
  C  C290  1  0.18989597  0.90492440  0.95752793  1
  C  C291  1  0.27522059  0.58307870  0.53441264  1
  C  C292  1  0.81110492  0.90489145  0.95771983  1
  C  C293  1  0.81737716  0.23378672  0.95335140  1
  C  C294  1  0.34474288  0.24405198  0.97755063  1
  C  C295  1  0.02354463  0.07470606  0.53768319  1
  C  C296  1  0.03860987  0.74129967  0.53426978  1
  C  C297  1  -0.00933728  0.92158407  0.48245957  1
  C  C298  1  0.23587025  0.90675727  0.53925454  1
  C  C299  1  0.28970986  0.76663890  0.04269627  1
  C  C300  1  0.40636466  0.25584813  0.02349620  1
  C  C301  1  0.20785603  0.76967561  0.04305340  1
  C  C302  1  0.92646916  0.25603231  0.04901348  1
  C  C303  1  0.84509114  0.91296592  0.52206531  1
  C  C304  1  0.01134546  0.25734585  0.45874907  1
  C  C305  1  0.04212385  0.92220724  0.02975914  1
  C  C306  1  0.27041174  0.90764956  0.96876881  1
  C  C307  1  0.77523426  0.42490643  0.03729824  1
  C  C308  1  0.34733629  0.24111721  0.52137945  1
  C  C309  1  0.28212102  0.75632843  0.46676152  1
  C  C310  1  0.49440326  0.25079255  0.48350616  1
  C  C311  1  0.54020920  0.39861257  0.54355763  1
  N  N312  1  0.53436693  0.74477764  0.53857163  1
  N  N313  1  0.01176424  0.74870103  0.96421248  1
  N  N314  1  0.45613873  0.59350343  0.04314083  1
  N  N315  1  0.98116006  0.58854264  0.46221401  1
  N  N316  1  0.50338767  0.92137807  0.46272108  1
  N  N317  1  0.03519577  0.59903395  0.03271406  1
  N  N318  1  0.55461037  0.07609650  0.54296226  1
  N  N319  1  0.27223070  0.42050447  0.03830037  1
  N  N320  1  0.93316126  0.25869608  0.44960997  1
  N  N321  1  0.46881258  0.40848563  0.96396809  1
  N  N322  1  0.42678784  0.92275217  0.45267974  1
  N  N323  1  0.94501593  0.07453001  0.54534636  1
  N  N324  1  0.76634098  0.57840160  0.53465842  1
  N  N325  1  0.69748427  0.42586718  0.04133764  1
  N  N326  1  0.19447090  0.42457400  0.04523543  1
  N  N327  1  0.19661362  0.58003178  0.53993684  1
  N  N328  1  0.45817376  0.74308825  0.53963138  1
  N  N329  1  0.04505664  0.40986145  0.53633423  1
  N  N330  1  0.96653276  0.41265378  0.53516206  1
  N  N331  1  0.80485348  0.76001057  0.45481807  1
  N  N332  1  0.81944415  0.42562177  0.44927153  1
  N  N333  1  0.00392824  0.25280254  0.03839893  1
  N  N334  1  0.54709581  0.40932292  0.96034326  1
  N  N335  1  0.76510847  0.91978306  0.51548246  1
  N  N336  1  0.95684686  0.58610905  0.03871695  1
  N  N337  1  0.55928355  0.74203500  0.95377618  1
  N  N338  1  0.56071224  0.59610388  0.45599759  1
  N  N339  1  0.95946252  0.74095179  0.53644553  1
  N  N340  1  0.26491430  0.25117821  0.98485813  1
  N  N341  1  0.80290605  0.57899469  0.95754700  1
  N  N342  1  0.19863399  0.57201006  0.95673431  1
  N  N343  1  0.48396653  0.59238335  0.46673158  1
  N  N344  1  0.72923240  0.75743648  0.46324118  1
  N  N345  1  0.05883831  0.59246744  0.45618356  1
  N  N346  1  0.68763261  0.09212138  0.04231511  1
  N  N347  1  0.54976144  0.07585212  0.95837948  1
  N  N348  1  0.74378553  0.42045237  0.46345991  1
  N  N349  1  0.45739721  0.92379961  0.04052958  1
  N  N350  1  0.03698885  0.40928353  0.96239609  1
  N  N351  1  0.05633872  0.07127831  0.96139413  1
  N  N352  1  0.47901285  0.07921853  0.53418390  1
  N  N353  1  0.48236019  0.74452029  0.96354931  1
  N  N354  1  0.18919746  0.42845904  0.45156446  1
  N  N355  1  0.48631378  0.24934489  0.01658120  1
  N  N356  1  0.69726035  0.09545039  0.46090044  1
  N  N357  1  0.54049600  0.92198216  0.04112453  1
  N  N358  1  0.19176550  0.08859984  0.04274626  1
  N  N359  1  0.31494014  0.90724881  0.54633981  1
  N  N360  1  0.06127114  0.05790045  0.59121851  1
  N  N361  1  0.06256280  0.39133035  0.59383894  1
  N  N362  1  0.06312163  0.72231708  0.59034926  1
  N  N363  1  0.56704363  0.05611123  0.60192747  1
  N  N364  1  0.56195899  0.38493858  0.60333351  1
  N  N365  1  0.56163622  0.72506464  0.59481378  1
  N  N366  1  0.39505771  0.27621867  0.08268917  1
  N  N367  1  0.43760999  0.60967109  0.10213313  1
  N  N368  1  0.43589131  0.95202059  0.09365829  1
  N  N369  1  0.91785781  0.27668873  0.10740335  1
  N  N370  1  0.93446335  0.61047511  0.09316906  1
  N  N371  1  0.93557717  0.94149625  0.08435582  1
  N  N372  1  0.44270024  0.05886481  0.90549426  1
  N  N373  1  0.44490186  0.39172866  0.90728592  1
  N  N374  1  0.44149447  0.72408232  0.91391182  1
  N  N375  1  0.94527805  0.05664409  0.91550706  1
  N  N376  1  0.93713836  0.39074655  0.90213780  1
  N  N377  1  0.93094926  0.72119449  0.89376641  1
  N  N378  1  0.04970318  0.27527555  0.40635897  1
  N  N379  1  0.07016113  0.61198741  0.39828560  1
  N  N380  1  0.02286366  0.93734559  0.42608774  1
  N  N381  1  0.52563996  0.26849332  0.42748639  1
  N  N382  1  0.57393787  0.61658201  0.39863285  1
  N  N383  1  0.54237440  0.94558972  0.41466254  1
  N  N384  1  0.36011775  0.22293770  0.58251442  1
  N  N385  1  0.30487154  0.56234726  0.58833705  1
  N  N386  1  0.33272118  0.88489317  0.60318272  1
  N  N387  1  0.82760673  0.21983174  0.60053463  1
  N  N388  1  0.79879619  0.56064034  0.59097834  1
  N  N389  1  0.85592795  0.89193272  0.58100732  1
  N  N390  1  0.17585906  0.10849915  0.10252442  1
  N  N391  1  0.18515090  0.44355778  0.10358027  1
  N  N392  1  0.18514025  0.78381943  0.10243828  1
  N  N393  1  0.67850628  0.11251018  0.10275139  1
  N  N394  1  0.68084176  0.44553192  0.10111010  1
  N  N395  1  0.68712603  0.77382031  0.08729489  1
  N  N396  1  0.22753838  0.22796822  0.93406186  1
  N  N397  1  0.18703017  0.55543369  0.89670324  1
  N  N398  1  0.18029642  0.88970487  0.89797396  1
  N  N399  1  0.70341462  0.22395185  0.90291477  1
  N  N400  1  0.69133479  0.55922329  0.90927662  1
  N  N401  1  0.69293903  0.89251105  0.91300262  1
  N  N402  1  0.32062521  0.11335059  0.39770911  1
  N  N403  1  0.30749922  0.44152846  0.41404556  1
  N  N404  1  0.31524858  0.77309622  0.41300812  1
  N  N405  1  0.81011282  0.10745677  0.41663729  1
  N  N406  1  0.81942925  0.44615318  0.39096980  1
  N  N407  1  0.81760007  0.77829172  0.39499420  1
  N  N408  1  0.39647378  0.27196579  0.41677665  1
  N  N409  1  0.44870350  0.60983138  0.41381097  1
  N  N410  1  0.41789736  0.94526610  0.39559708  1
  N  N411  1  0.92335975  0.27836456  0.39055788  1
  N  N412  1  0.94420844  0.61038429  0.41157861  1
  N  N413  1  0.89397378  0.94354582  0.41528398  1
  N  N414  1  0.07288554  0.05002657  0.90315616  1
  N  N415  1  0.06602952  0.38963971  0.90717788  1
  N  N416  1  0.05668828  0.72440213  0.91650990  1
  N  N417  1  0.57159342  0.05365031  0.90254229  1
  N  N418  1  0.57193385  0.39046137  0.90467282  1
  N  N419  1  0.56644372  0.72342514  0.89537242  1
  N  N420  1  0.04453282  0.27597243  0.08807559  1
  N  N421  1  0.06216081  0.60877155  0.09104243  1
  N  N422  1  0.06561705  0.94110561  0.08550691  1
  N  N423  1  0.52301571  0.27290841  0.06773034  1
  N  N424  1  0.56563289  0.61021316  0.09790540  1
  N  N425  1  0.56167499  0.93474431  0.10055885  1
  N  N426  1  0.44193512  0.06014432  0.58726569  1
  N  N427  1  0.43182435  0.38655778  0.60055559  1
  N  N428  1  0.43502740  0.72156924  0.59632804  1
  N  N429  1  0.93436779  0.05722123  0.60469939  1
  N  N430  1  0.93581298  0.39131386  0.58835176  1
  N  N431  1  0.93409630  0.72081920  0.59330486  1
  N  N432  1  0.19100435  0.10993877  0.40606332  1
  N  N433  1  0.18184503  0.44865067  0.39272666  1
  N  N434  1  0.18616462  0.77891493  0.40087642  1
  N  N435  1  0.68304683  0.11696193  0.40239346  1
  N  N436  1  0.69735927  0.44219771  0.41749975  1
  N  N437  1  0.69255352  0.77390742  0.40913511  1
  N  N438  1  0.35514324  0.22409954  0.91811373  1
  N  N439  1  0.31406771  0.55898915  0.90822165  1
  N  N440  1  0.30880827  0.89305638  0.91339378  1
  N  N441  1  0.83257035  0.21748855  0.89312256  1
  N  N442  1  0.81851009  0.55538295  0.89909166  1
  N  N443  1  0.82142818  0.88694829  0.89903660  1
  N  N444  1  0.30308814  0.10596008  0.09151380  1
  N  N445  1  0.31069020  0.44162314  0.08859202  1
  N  N446  1  0.31518621  0.77928485  0.10185086  1
  N  N447  1  0.80405212  0.10415552  0.08573340  1
  N  N448  1  0.80827398  0.44263557  0.09174852  1
  N  N449  1  0.81613687  0.78079378  0.09690259  1
  N  N450  1  0.23156287  0.22874437  0.56971095  1
  N  N451  1  0.17646788  0.55599856  0.59660023  1
  N  N452  1  0.20459878  0.88795520  0.59344312  1
  N  N453  1  0.69810985  0.22375333  0.59411284  1
  N  N454  1  0.67142519  0.55713787  0.60155879  1
  N  N455  1  0.72796628  0.89676456  0.56678886  1
  Cl  Cl456  1  0.25035566  0.05797619  0.60887172  1
  Cl  Cl457  1  0.24610056  0.39104624  0.61794611  1
  Cl  Cl458  1  0.24846782  0.71963479  0.62409850  1
  Cl  Cl459  1  0.74930977  0.05013530  0.61929341  1
  Cl  Cl460  1  0.74974594  0.39360527  0.60381445  1
  Cl  Cl461  1  0.74942186  0.72370756  0.61338504  1
  Cl  Cl462  1  0.21956717  0.27288588  0.11462800  1
  Cl  Cl463  1  0.24805326  0.61101892  0.11898466  1
  Cl  Cl464  1  0.25516770  0.94740243  0.12158770  1
  Cl  Cl465  1  0.71430105  0.27573876  0.10915501  1
  Cl  Cl466  1  0.75184795  0.60567376  0.11630789  1
  Cl  Cl467  1  0.74572518  0.94791472  0.11463184  1
  Cl  Cl468  1  0.25831932  0.05797083  0.87807971  1
  Cl  Cl469  1  0.25759033  0.38883113  0.89331924  1
  Cl  Cl470  1  0.25107809  0.72879271  0.89546784  1
  Cl  Cl471  1  0.75847045  0.05423081  0.88730390  1
  Cl  Cl472  1  0.75288224  0.39444697  0.87498189  1
  Cl  Cl473  1  0.74856764  0.71977127  0.87681773  1
  Cl  Cl474  1  0.22369392  0.28738686  0.37801809  1
  Cl  Cl475  1  0.25971959  0.60992957  0.39064209  1
  Cl  Cl476  1  0.21387520  0.94196834  0.39138732  1
  Cl  Cl477  1  0.72715185  0.27788338  0.37573439  1
  Cl  Cl478  1  0.75914453  0.60766953  0.38172828  1
  Cl  Cl479  1  0.71585574  0.94617159  0.38348683  1
  Cl  Cl480  1  0.03529201  0.22569035  0.61192762  1
  Cl  Cl481  1  -0.01418044  0.56211654  0.60674652  1
  Cl  Cl482  1  0.02851841  0.87095420  0.61693409  1
  Cl  Cl483  1  0.52725662  0.22053294  0.62621238  1
  Cl  Cl484  1  0.48899839  0.55454572  0.62368816  1
  Cl  Cl485  1  0.54293340  0.89988576  0.59660720  1
  Cl  Cl486  1  -0.01108097  0.10697103  0.11451062  1
  Cl  Cl487  1  -0.00326006  0.44439407  0.10557520  1
  Cl  Cl488  1  0.00336811  0.77528712  0.10855317  1
  Cl  Cl489  1  0.48828018  0.11319714  0.10524639  1
  Cl  Cl490  1  0.49419877  0.43695761  0.11984743  1
  Cl  Cl491  1  0.49968288  0.77955017  0.10566402  1
  Cl  Cl492  1  0.04606341  0.22720401  0.90591036  1
  Cl  Cl493  1  0.00193746  0.55644557  0.88331695  1
  Cl  Cl494  1  0.00074921  0.87734522  0.87655543  1
  Cl  Cl495  1  0.52733630  0.22194172  0.88691210  1
  Cl  Cl496  1  0.50375188  0.55452783  0.89002906  1
  Cl  Cl497  1  0.50001435  0.89462262  0.89410779  1
  Cl  Cl498  1  0.00123909  0.10519446  0.38585927  1
  Cl  Cl499  1  0.00139221  0.44429444  0.37551931  1
  Cl  Cl500  1  -0.00056060  0.77591758  0.37962433  1
  Cl  Cl501  1  0.50289867  0.11595469  0.37177411  1
  Cl  Cl502  1  0.50205521  0.43736782  0.39427149  1
  Cl  Cl503  1  0.50381424  0.77880348  0.38096474  1
  Cl  Cl504  1  0.36686975  0.14944345  0.75423732  1
  Cl  Cl505  1  0.35452871  0.48123381  0.74510895  1
  Cl  Cl506  1  0.36556157  0.81563835  0.74879965  1
  Cl  Cl507  1  0.87077564  0.14524346  0.74676847  1
  Cl  Cl508  1  0.86682504  0.48073510  0.74870926  1
  Cl  Cl509  1  0.86139454  0.81702044  0.74108363  1
  Cl  Cl510  1  0.14054991  0.17991781  0.24715628  1
  Cl  Cl511  1  0.13238353  0.51760082  0.25276818  1
  Cl  Cl512  1  0.13958141  0.84512339  0.25341693  1
  Cl  Cl513  1  0.63536537  0.17697198  0.24272783  1
  Cl  Cl514  1  0.63889838  0.51371642  0.24727327  1
  Cl  Cl515  1  0.63936751  0.84858575  0.24167182  1
  Cl  Cl516  1  0.15470719  0.15808295  0.75237222  1
  Cl  Cl517  1  0.13507489  0.48115009  0.75729121  1
  Cl  Cl518  1  0.14630334  0.82033311  0.75373225  1
  Cl  Cl519  1  0.64624117  0.14959790  0.75111912  1
  Cl  Cl520  1  0.64263823  0.48131173  0.74334500  1
  Cl  Cl521  1  0.64234473  0.81825271  0.74877471  1
  Cl  Cl522  1  0.36090711  0.18762976  0.25013296  1
  Cl  Cl523  1  0.35517500  0.51855682  0.24910204  1
  Cl  Cl524  1  0.36062466  0.85417074  0.25552603  1
  Cl  Cl525  1  0.85490531  0.18676378  0.25054583  1
  Cl  Cl526  1  0.86339635  0.51969189  0.25402212  1
  Cl  Cl527  1  0.86161111  0.85443710  0.25859336  1
  Cl  Cl528  1  0.10378554  0.31992445  0.74904819  1
  Cl  Cl529  1  0.10975498  0.65173599  0.74661527  1
  Cl  Cl530  1  0.10986650  0.98508653  0.75586121  1
  Cl  Cl531  1  0.61237300  0.31805906  0.75229458  1
  Cl  Cl532  1  0.60746879  0.64853529  0.75469189  1
  Cl  Cl533  1  0.60943599  0.98373093  0.75102910  1
  Cl  Cl534  1  0.38167653  0.01825952  0.25654930  1
  Cl  Cl535  1  0.37775267  0.35212110  0.24490828  1
  Cl  Cl536  1  0.38863551  0.68275862  0.24655104  1
  Cl  Cl537  1  0.88944171  0.01578262  0.25644876  1
  Cl  Cl538  1  0.88195975  0.35142246  0.24665468  1
  Cl  Cl539  1  0.88282132  0.68703073  0.24283419  1
  Cl  Cl540  1  0.39131552  0.31469543  0.75962111  1
  Cl  Cl541  1  0.38667058  0.64597511  0.75482267  1
  Cl  Cl542  1  0.38959752  0.97993882  0.74554901  1
  Cl  Cl543  1  0.88873726  0.30788952  0.75446661  1
  Cl  Cl544  1  0.88909470  0.65056433  0.75581738  1
  Cl  Cl545  1  0.89234104  0.98048348  0.74364390  1
  Cl  Cl546  1  0.10453002  0.01601522  0.23768004  1
  Cl  Cl547  1  0.10720263  0.35130726  0.24436486  1
  Cl  Cl548  1  0.10065486  0.68175901  0.25015077  1
  Cl  Cl549  1  0.60310127  0.01390949  0.24501357  1
  Cl  Cl550  1  0.59044948  0.34279138  0.24803685  1
  Cl  Cl551  1  0.60927868  0.68397454  0.25460109  1
