# generated using pymatgen
data_H8PbC4(N3Cl2)2
_symmetry_space_group_name_H-M   'P 1'
_cell_length_a   16.62062403
_cell_length_b   22.49748361
_cell_length_c   21.58685912
_cell_angle_alpha   89.99845738
_cell_angle_beta   89.99669880
_cell_angle_gamma   89.99986866
_symmetry_Int_Tables_number   1
_chemical_formula_structural   H8PbC4(N3Cl2)2
_chemical_formula_sum   'H192 Pb24 C96 N144 Cl96'
_cell_volume   8071.80619949
_cell_formula_units_Z   24
loop_
 _symmetry_equiv_pos_site_id
 _symmetry_equiv_pos_as_xyz
  1  'x, y, z'
loop_
 _atom_site_type_symbol
 _atom_site_label
 _atom_site_symmetry_multiplicity
 _atom_site_fract_x
 _atom_site_fract_y
 _atom_site_fract_z
 _atom_site_occupancy
  H  H0  1  -0.00643452  0.03391452  0.67975247  1
  H  H1  1  -0.00470906  0.36566146  0.68069394  1
  H  H2  1  -0.00003937  0.69990375  0.68243616  1
  H  H3  1  0.50083098  0.03323635  0.68118453  1
  H  H4  1  0.50333504  0.36622230  0.68189817  1
  H  H5  1  0.49950429  0.69962242  0.68252960  1
  H  H6  1  0.00477900  0.29976751  0.18028727  1
  H  H7  1  -0.00118006  0.63250950  0.18170621  1
  H  H8  1  0.00035084  0.96695143  0.18023712  1
  H  H9  1  0.49860500  0.30094884  0.18286875  1
  H  H10  1  0.50106333  0.63404507  0.18145435  1
  H  H11  1  0.49823602  0.96766905  0.18262169  1
  H  H12  1  -0.00269123  0.03373641  0.81921257  1
  H  H13  1  -0.00150980  0.36716135  0.81831832  1
  H  H14  1  0.00246378  0.69979454  0.81740112  1
  H  H15  1  0.50013695  0.03231600  0.81923611  1
  H  H16  1  0.50112000  0.36711604  0.81812375  1
  H  H17  1  0.50061971  0.69974037  0.81880837  1
  H  H18  1  -0.00190626  0.29893607  0.31929879  1
  H  H19  1  0.00297459  0.63289563  0.31889931  1
  H  H20  1  -0.00445412  0.96789279  0.31687588  1
  H  H21  1  0.50127391  0.30039206  0.32058305  1
  H  H22  1  0.49607105  0.63390830  0.31858676  1
  H  H23  1  0.50191939  0.96725618  0.31689235  1
  H  H24  1  0.24611576  0.19981860  0.67987064  1
  H  H25  1  0.24368822  0.53331618  0.68141163  1
  H  H26  1  0.25476963  0.86664395  0.68168400  1
  H  H27  1  0.75601049  0.19969025  0.67938583  1
  H  H28  1  0.75235580  0.53305287  0.68010869  1
  H  H29  1  0.74791515  0.86666588  0.68396395  1
  H  H30  1  0.24747943  0.13175541  0.17988994  1
  H  H31  1  0.24448327  0.46833979  0.18096910  1
  H  H32  1  0.24428454  0.80058571  0.18218979  1
  H  H33  1  0.75265957  0.13271845  0.18016082  1
  H  H34  1  0.75699836  0.46772741  0.18341184  1
  H  H35  1  0.74563185  0.80013467  0.18099520  1
  H  H36  1  0.25036415  0.19818562  0.81815680  1
  H  H37  1  0.25040782  0.53221055  0.82007293  1
  H  H38  1  0.25208814  0.86558241  0.81933247  1
  H  H39  1  0.74728035  0.20049919  0.81825848  1
  H  H40  1  0.75330424  0.53330410  0.81720486  1
  H  H41  1  0.74727616  0.86550438  0.81733203  1
  H  H42  1  0.24852593  0.13375738  0.32060088  1
  H  H43  1  0.24909336  0.46643450  0.32037082  1
  H  H44  1  0.24459913  0.80043586  0.31934412  1
  H  H45  1  0.75568833  0.13245515  0.32066261  1
  H  H46  1  0.75404424  0.46726148  0.31973081  1
  H  H47  1  0.75907613  0.80003188  0.31627223  1
  H  H48  1  0.12582360  0.05286680  0.61493537  1
  H  H49  1  0.12913085  0.38539208  0.61785067  1
  H  H50  1  0.12459832  0.72171848  0.61023879  1
  H  H51  1  0.62475277  0.05516228  0.61030584  1
  H  H52  1  0.62572883  0.38799013  0.60875706  1
  H  H53  1  0.62420423  0.71964780  0.61131843  1
  H  H54  1  0.37482589  0.27668780  0.11073965  1
  H  H55  1  0.37640481  0.61271792  0.10867565  1
  H  H56  1  0.37423221  0.94721510  0.11094781  1
  H  H57  1  0.87159840  0.28029670  0.11745061  1
  H  H58  1  0.87949226  0.61332014  0.10819990  1
  H  H59  1  0.87578456  0.94647434  0.10846371  1
  H  H60  1  0.37233238  0.05294427  0.88828106  1
  H  H61  1  0.37456078  0.38780943  0.88755052  1
  H  H62  1  0.37609731  0.71919983  0.88776519  1
  H  H63  1  0.87425546  0.05561743  0.89143609  1
  H  H64  1  0.87900602  0.38630436  0.89168775  1
  H  H65  1  0.87211293  0.71875734  0.88141001  1
  H  H66  1  0.12418085  0.27917117  0.39018759  1
  H  H67  1  0.12045588  0.61047306  0.39663817  1
  H  H68  1  0.12806153  0.94746389  0.38191912  1
  H  H69  1  0.62525455  0.27820524  0.39217500  1
  H  H70  1  0.62217112  0.61210775  0.38848326  1
  H  H71  1  0.62555691  0.94660485  0.39053483  1
  H  H72  1  0.37531050  0.22072584  0.61167569  1
  H  H73  1  0.37818844  0.55191044  0.61999045  1
  H  H74  1  0.37051876  0.89002623  0.60187017  1
  H  H75  1  0.87200599  0.22097500  0.60118727  1
  H  H76  1  0.87474175  0.55539530  0.60740082  1
  H  H77  1  0.87495221  0.88645002  0.61705689  1
  H  H78  1  0.12941135  0.11249138  0.10516583  1
  H  H79  1  0.12626503  0.44486654  0.10292661  1
  H  H80  1  0.12902627  0.77653681  0.10273131  1
  H  H81  1  0.62601011  0.11240337  0.11069106  1
  H  H82  1  0.62403571  0.44790255  0.11896905  1
  H  H83  1  0.62712742  0.77752075  0.10528573  1
  H  H84  1  0.12402775  0.21969029  0.88708116  1
  H  H85  1  0.12432943  0.55300304  0.89049571  1
  H  H86  1  0.12524735  0.88794779  0.88857340  1
  H  H87  1  0.63197185  0.22168200  0.89450494  1
  H  H88  1  0.62254540  0.55382911  0.88426045  1
  H  H89  1  0.62639035  0.88637667  0.89145412  1
  H  H90  1  0.37390440  0.11224580  0.38968377  1
  H  H91  1  0.37143371  0.44436745  0.39305626  1
  H  H92  1  0.37735786  0.77977508  0.38117319  1
  H  H93  1  0.87324053  0.11269357  0.39629254  1
  H  H94  1  0.87018165  0.44384338  0.39802247  1
  H  H95  1  0.87205313  0.77659583  0.39642091  1
  H  H96  1  0.37580376  0.27923378  0.38989525  1
  H  H97  1  0.37376882  0.61188171  0.39330274  1
  H  H98  1  0.37525207  0.94645754  0.38516391  1
  H  H99  1  0.87522435  0.27777755  0.39160040  1
  H  H100  1  0.87147773  0.61303256  0.38318042  1
  H  H101  1  0.87958258  0.94724909  0.39558184  1
  H  H102  1  0.12362940  0.05219178  0.88663955  1
  H  H103  1  0.12822074  0.38664879  0.88411948  1
  H  H104  1  0.12154988  0.71984678  0.89226102  1
  H  H105  1  0.62080861  0.05576582  0.89385313  1
  H  H106  1  0.62433506  0.38754701  0.88980917  1
  H  H107  1  0.62535188  0.71992900  0.88916018  1
  H  H108  1  0.12017026  0.27599295  0.10119946  1
  H  H109  1  0.12888424  0.61397434  0.11579113  1
  H  H110  1  0.12501419  0.94754321  0.10826323  1
  H  H111  1  0.62456247  0.27987938  0.11447498  1
  H  H112  1  0.62536745  0.61371248  0.10756037  1
  H  H113  1  0.62330232  0.94626260  0.11129253  1
  H  H114  1  0.37477562  0.05457761  0.61081702  1
  H  H115  1  0.37681770  0.38694665  0.61183189  1
  H  H116  1  0.37498249  0.72135610  0.60976260  1
  H  H117  1  0.87735020  0.05739500  0.60246753  1
  H  H118  1  0.88036027  0.38817130  0.60230248  1
  H  H119  1  0.87415399  0.71913030  0.61263620  1
  H  H120  1  0.12464693  0.11318858  0.39288386  1
  H  H121  1  0.12246736  0.44512235  0.38836182  1
  H  H122  1  0.12914352  0.77656775  0.39821257  1
  H  H123  1  0.62504781  0.11507490  0.38406300  1
  H  H124  1  0.62155179  0.44693500  0.38204531  1
  H  H125  1  0.62412135  0.78131964  0.37898322  1
  H  H126  1  0.37418481  0.22199096  0.88991072  1
  H  H127  1  0.37332977  0.55534966  0.89177178  1
  H  H128  1  0.37408416  0.88781176  0.89173784  1
  H  H129  1  0.88031272  0.21787202  0.88106606  1
  H  H130  1  0.87183166  0.55471249  0.89357003  1
  H  H131  1  0.87515313  0.88787467  0.88621168  1
  H  H132  1  0.37800533  0.11352221  0.11597705  1
  H  H133  1  0.37437182  0.44731046  0.11337221  1
  H  H134  1  0.37678291  0.78123132  0.11765469  1
  H  H135  1  0.87541869  0.11311124  0.10707364  1
  H  H136  1  0.87234147  0.44478194  0.10551672  1
  H  H137  1  0.87572634  0.77973138  0.11446756  1
  H  H138  1  0.12679359  0.22112231  0.60369333  1
  H  H139  1  0.13133620  0.55725010  0.59939419  1
  H  H140  1  0.12263523  0.88648946  0.61731417  1
  H  H141  1  0.62364306  0.21919207  0.61497270  1
  H  H142  1  0.62564241  0.55405533  0.61091237  1
  H  H143  1  0.62516939  0.88701502  0.61248568  1
  H  H144  1  0.19577263  0.75074845  0.00009068  1
  H  H145  1  0.83269965  0.91399368  0.50334857  1
  H  H146  1  0.05451062  0.25190809  -0.00310653  1
  H  H147  1  0.41364102  0.08067372  0.99289538  1
  H  H148  1  0.67979646  0.91383842  0.99981260  1
  H  H149  1  0.81204646  0.58206922  1.00191671  1
  H  H150  1  0.80964825  0.41741903  -0.00203293  1
  H  H151  1  0.93202596  0.41431883  1.00350668  1
  H  H152  1  0.90577430  0.74545496  0.99419184  1
  H  H153  1  0.19512804  0.75459408  0.50313949  1
  H  H154  1  0.69177214  0.24702427  1.00600660  1
  H  H155  1  0.17024410  0.24448772  0.99972701  1
  H  H156  1  0.92404523  0.91843762  0.00332794  1
  H  H157  1  0.42275688  0.91798128  0.00207570  1
  H  H158  1  0.42692645  0.58591510  0.49647488  1
  H  H159  1  0.80586149  0.75210218  0.50361975  1
  H  H160  1  0.07651894  0.91689131  0.00440350  1
  H  H161  1  0.05806150  0.58310752  0.50055934  1
  H  H162  1  0.94125844  0.41408459  0.49384079  1
  H  H163  1  0.67120864  0.58294858  0.50549287  1
  H  H164  1  0.41908466  0.08306998  0.50604662  1
  H  H165  1  0.42859997  0.26291279  0.00280823  1
  H  H166  1  0.57730073  0.41688190  0.99938367  1
  H  H167  1  0.33178913  0.24871760  0.50636708  1
  H  H168  1  0.08329168  0.08152785  0.99919855  1
  H  H169  1  0.42021523  0.92035294  0.49823389  1
  H  H170  1  0.17345247  0.08449178  0.49709388  1
  H  H171  1  0.80642255  0.41545929  0.50091406  1
  H  H172  1  0.57604184  0.74751437  0.50196205  1
  H  H173  1  0.58077865  0.08379111  0.50059343  1
  H  H174  1  0.57693131  0.24960862  0.49641731  1
  H  H175  1  0.20153769  0.58227434  0.49815196  1
  H  H176  1  0.57873780  0.25528209  0.00099556  1
  H  H177  1  0.94414120  0.92348875  0.50428576  1
  H  H178  1  0.32016788  0.41669417  0.49757322  1
  H  H179  1  0.41912927  0.41969646  0.99187423  1
  H  H180  1  0.91998737  0.74490632  0.50035797  1
  H  H181  1  0.57562645  0.41584799  0.50024916  1
  H  H182  1  0.57119300  0.92560241  0.49736759  1
  H  H183  1  0.09808042  0.41141254  0.51007781  1
  H  H184  1  0.93272570  0.58590375  -0.00374612  1
  H  H185  1  0.07339696  0.74623823  0.50383868  1
  H  H186  1  0.31821219  0.23121957  0.99877943  1
  H  H187  1  0.30336421  0.91380229  0.49876006  1
  H  H188  1  0.67624683  0.90979413  0.49877328  1
  H  H189  1  0.06794610  0.74427820  1.00308663  1
  H  H190  1  0.41989455  0.74663157  1.00028643  1
  H  H191  1  0.67265960  0.08509739  0.00451045  1
  Pb  Pb192  1  0.24851587  0.04735687  0.74775153  1
  Pb  Pb193  1  0.25080580  0.38159563  0.74649285  1
  Pb  Pb194  1  0.25031418  0.71490804  0.75108804  1
  Pb  Pb195  1  0.75004485  0.04858521  0.75218493  1
  Pb  Pb196  1  0.75128387  0.38145324  0.74685883  1
  Pb  Pb197  1  0.74733003  0.71401591  0.74837759  1
  Pb  Pb198  1  0.24847117  0.28380011  0.24848510  1
  Pb  Pb199  1  0.25353194  0.61796325  0.25570916  1
  Pb  Pb200  1  0.24910255  0.95290332  0.25117711  1
  Pb  Pb201  1  0.74978054  0.28498662  0.25194533  1
  Pb  Pb202  1  0.74700382  0.61844163  0.25023249  1
  Pb  Pb203  1  0.75420519  0.95201716  0.25125697  1
  Pb  Pb204  1  0.00112479  0.21443962  0.74945233  1
  Pb  Pb205  1  -0.00015742  0.54891917  0.74799170  1
  Pb  Pb206  1  -0.00090512  0.88117527  0.75456442  1
  Pb  Pb207  1  0.49972263  0.21480194  0.75165035  1
  Pb  Pb208  1  0.50021657  0.54676254  0.74801216  1
  Pb  Pb209  1  0.49868660  0.88246782  0.74828267  1
  Pb  Pb210  1  -0.00017055  0.11995125  0.24994877  1
  Pb  Pb211  1  -0.00118224  0.45163973  0.25064075  1
  Pb  Pb212  1  0.00225815  0.78267581  0.25255904  1
  Pb  Pb213  1  0.50114767  0.11836214  0.25109111  1
  Pb  Pb214  1  0.49850581  0.45070748  0.24887096  1
  Pb  Pb215  1  0.50161431  0.78719314  0.24887250  1
  C  C216  1  -0.00073299  0.04797077  0.63209463  1
  C  C217  1  0.00226628  0.38030426  0.63299851  1
  C  C218  1  -0.00000788  0.71398439  0.63425024  1
  C  C219  1  0.49966317  0.04800665  0.63318602  1
  C  C220  1  0.50186086  0.38058790  0.63401866  1
  C  C221  1  0.49940255  0.71382885  0.63457895  1
  C  C222  1  -0.00076595  0.28597484  0.13241422  1
  C  C223  1  0.00206729  0.61938476  0.13352622  1
  C  C224  1  0.00040886  0.95245691  0.13219898  1
  C  C225  1  0.49865098  0.28662734  0.13475898  1
  C  C226  1  0.50094527  0.61982048  0.13347125  1
  C  C227  1  0.49871177  0.95330510  0.13473417  1
  C  C228  1  -0.00105599  0.04735824  0.86725372  1
  C  C229  1  0.00157189  0.38060421  0.86639907  1
  C  C230  1  -0.00144472  0.71356731  0.86552981  1
  C  C231  1  0.49755314  0.04741218  0.86692314  1
  C  C232  1  0.49965391  0.38163540  0.86614772  1
  C  C233  1  0.50019760  0.71340748  0.86683867  1
  C  C234  1  -0.00055754  0.28519576  0.36723115  1
  C  C235  1  -0.00139310  0.61895324  0.36673923  1
  C  C236  1  0.00123629  0.95342218  0.36457488  1
  C  C237  1  0.50121059  0.28551315  0.36832841  1
  C  C238  1  0.49689131  0.61921536  0.36640987  1
  C  C239  1  0.50150020  0.95320069  0.36508937  1
  C  C240  1  0.24978073  0.21418134  0.63199728  1
  C  C241  1  0.25075652  0.54731722  0.63363201  1
  C  C242  1  0.24968793  0.88081685  0.63380818  1
  C  C243  1  0.75020559  0.21343520  0.63161270  1
  C  C244  1  0.75058219  0.54760097  0.63235352  1
  C  C245  1  0.74931328  0.88069635  0.63583015  1
  C  C246  1  0.25173499  0.11891741  0.13166824  1
  C  C247  1  0.24828590  0.45370681  0.13317909  1
  C  C248  1  0.24963254  0.78629747  0.13437542  1
  C  C249  1  0.75104557  0.11897723  0.13212420  1
  C  C250  1  0.75078635  0.45339893  0.13569481  1
  C  C251  1  0.74983667  0.78582535  0.13334809  1
  C  C252  1  0.25027866  0.21259777  0.86624713  1
  C  C253  1  0.24908178  0.54695704  0.86767235  1
  C  C254  1  0.25017518  0.88037053  0.86684135  1
  C  C255  1  0.75299622  0.21359198  0.86632440  1
  C  C256  1  0.74905685  0.54751511  0.86507333  1
  C  C257  1  0.74985256  0.88020076  0.86510959  1
  C  C258  1  0.24859735  0.11935779  0.36848882  1
  C  C259  1  0.24803117  0.45197968  0.36822393  1
  C  C260  1  0.24998302  0.78629456  0.36703135  1
  C  C261  1  0.75111151  0.11944462  0.36878000  1
  C  C262  1  0.74883756  0.45266733  0.36737580  1
  C  C263  1  0.75152268  0.78581496  0.36393061  1
  C  C264  1  0.79004425  0.57496169  0.53791586  1
  C  C265  1  0.77671713  0.42791163  0.04019727  1
  C  C266  1  0.77781017  0.23875512  0.53607083  1
  C  C267  1  0.20721975  0.23938798  0.95839260  1
  C  C268  1  0.53870107  0.40627098  0.96022974  1
  C  C269  1  0.71888669  0.75856513  0.03907382  1
  C  C270  1  0.54165331  0.73771744  0.96056001  1
  C  C271  1  0.79087343  0.09430437  0.03710711  1
  C  C272  1  0.28555743  0.90791609  0.96034644  1
  C  C273  1  0.95748327  0.73754164  0.54083475  1
  C  C274  1  0.46222245  0.92809085  0.04132828  1
  C  C275  1  0.96895041  0.59548727  0.03705414  1
  C  C276  1  0.71694283  0.90463548  0.95953605  1
  C  C277  1  0.78280373  0.09488174  0.46409757  1
  C  C278  1  0.30075679  0.09541500  0.04035834  1
  C  C279  1  0.69543727  0.42575379  0.45749350  1
  C  C280  1  0.46004551  0.73750297  0.96173552  1
  C  C281  1  0.94962804  0.73626678  0.95793482  1
  C  C282  1  0.97150611  0.07540802  0.53727307  1
  C  C283  1  0.29237224  0.09250770  0.46187059  1
  C  C284  1  0.45769930  0.25922802  0.46195999  1
  C  C285  1  0.04958404  0.40483523  0.95817459  1
  C  C286  1  0.71158689  0.90334794  0.54059865  1
  C  C287  1  0.30391457  0.75899495  0.45694811  1
  C  C288  1  0.79350496  0.90408604  0.54235210  1
  C  C289  1  0.54207448  0.26070413  0.04230794  1
  C  C290  1  0.03165293  0.73629718  0.96201222  1
  C  C291  1  0.77802152  0.57208566  0.96016063  1
  C  C292  1  0.77474156  0.76155541  0.46024672  1
  C  C293  1  0.96371626  0.25958767  0.46070358  1
  C  C294  1  0.53637847  0.40573230  0.53992741  1
  C  C295  1  0.96827700  0.40485273  0.96271759  1
  C  C296  1  0.94516201  0.26051709  0.04187295  1
  C  C297  1  0.04155571  0.07194172  0.96131822  1
  C  C298  1  0.97381243  0.40494066  0.53656599  1
  C  C299  1  0.05008396  0.59618541  0.04166728  1
  C  C300  1  0.72492851  0.23780662  0.96360804  1
  C  C301  1  0.70170550  0.09568177  0.45987701  1
  C  C302  1  0.21945701  0.09487158  0.03645835  1
  C  C303  1  0.97536276  0.92990570  0.46061034  1
  C  C304  1  0.95987203  0.07276969  0.96141739  1
  C  C305  1  0.80601300  0.23629927  0.95713752  1
  C  C306  1  0.20252316  0.42491265  0.46093263  1
  C  C307  1  0.28474107  0.57503307  0.96045313  1
  C  C308  1  0.53967421  0.07339962  0.53946510  1
  C  C309  1  0.94687186  0.59352169  0.45803027  1
  C  C310  1  0.53677220  0.73797369  0.54108902  1
  C  C311  1  0.45751915  0.92821115  0.45757175  1
  N  N312  1  0.03700969  0.73841672  0.54110802  1
  N  N313  1  0.53715962  0.25925394  0.46146648  1
  N  N314  1  0.27432749  0.90596536  0.53971781  1
  N  N315  1  0.53708670  0.92698439  0.45807252  1
  N  N316  1  0.70026929  0.23864123  0.53945329  1
  N  N317  1  0.02389145  0.25978236  0.03730137  1
  N  N318  1  0.45613257  0.07097898  0.95818372  1
  N  N319  1  0.46359434  0.59506936  0.45932774  1
  N  N320  1  0.46219605  0.25820744  0.04220485  1
  N  N321  1  0.21756689  0.42676765  0.03788154  1
  N  N322  1  0.22531650  0.76018827  0.04047494  1
  N  N323  1  0.71107320  0.57372524  0.54019888  1
  N  N324  1  0.45979842  0.07223900  0.54050763  1
  N  N325  1  0.22989863  0.57342579  0.53934150  1
  N  N326  1  0.21366889  0.23947826  0.53716272  1
  N  N327  1  0.71195934  0.09460621  0.03944299  1
  N  N328  1  0.02574043  0.59343392  0.46157581  1
  N  N329  1  0.45886739  0.40479054  0.95883811  1
  N  N330  1  0.04902169  0.07379250  0.53989897  1
  N  N331  1  0.69583983  0.76269935  0.45434260  1
  N  N332  1  0.28195784  0.42544002  0.46159829  1
  N  N333  1  0.29159409  0.23908295  0.54147379  1
  N  N334  1  0.45746481  0.73843508  0.54011694  1
  N  N335  1  0.77445751  0.42522154  0.46166805  1
  N  N336  1  0.22528374  0.75960511  0.46200589  1
  N  N337  1  0.79637832  0.75938522  0.04059356  1
  N  N338  1  0.05306845  0.40457199  0.54339210  1
  N  N339  1  0.45681940  0.40520575  0.54031745  1
  N  N340  1  0.05413282  0.92848267  0.45548932  1
  N  N341  1  0.29404937  0.42779664  0.04121979  1
  N  N342  1  0.54168974  0.92761251  0.04084034  1
  N  N343  1  0.20722746  0.57424410  0.96137155  1
  N  N344  1  0.54219875  0.59477862  0.45924137  1
  N  N345  1  0.21293773  0.09318217  0.46171762  1
  N  N346  1  0.53492169  0.07250988  0.96144589  1
  N  N347  1  0.46254572  0.59573008  0.03907599  1
  N  N348  1  0.69768224  0.42887820  0.04466230  1
  N  N349  1  0.79635823  0.90566128  0.95813199  1
  N  N350  1  0.30774624  0.57120011  0.54465114  1
  N  N351  1  0.20753033  0.90761813  0.96041914  1
  N  N352  1  0.04007314  0.93503133  0.03814188  1
  N  N353  1  0.30306362  0.76215493  0.04444808  1
  N  N354  1  0.28753999  0.24148949  0.95891624  1
  N  N355  1  0.69903144  0.57193837  0.95713637  1
  N  N356  1  0.96126518  0.93025722  0.03942416  1
  N  N357  1  0.19662119  0.90398116  0.54326212  1
  N  N358  1  0.53871117  0.59615225  0.03873201  1
  N  N359  1  0.04109715  0.26052797  0.46180901  1
  N  N360  1  0.06631225  0.05639275  0.60062056  1
  N  N361  1  0.07007119  0.38933369  0.60266919  1
  N  N362  1  0.06336181  0.72293651  0.59851200  1
  N  N363  1  0.56452168  0.05808184  0.59706241  1
  N  N364  1  0.56530570  0.39068888  0.59717399  1
  N  N365  1  0.56409818  0.72323457  0.59881199  1
  N  N366  1  0.43552881  0.27867419  0.09851000  1
  N  N367  1  0.43750094  0.60996505  0.09781458  1
  N  N368  1  0.43447040  0.94384051  0.09855051  1
  N  N369  1  0.92981971  0.27639745  0.10075396  1
  N  N370  1  0.93977511  0.61008882  0.09572380  1
  N  N371  1  0.93647970  0.94326190  0.09674065  1
  N  N372  1  0.43266456  0.05654895  0.90092123  1
  N  N373  1  0.43508860  0.39174250  0.90016962  1
  N  N374  1  0.43541376  0.72247156  0.90208935  1
  N  N375  1  0.93439688  0.05801056  0.90453552  1
  N  N376  1  0.93923356  0.38962759  0.90422170  1
  N  N377  1  0.93070938  0.72230718  0.89785955  1
  N  N378  1  0.06362183  0.27646920  0.40211801  1
  N  N379  1  0.05881066  0.60902555  0.40543083  1
  N  N380  1  0.06855752  0.94332769  0.39582083  1
  N  N381  1  0.56446307  0.27521746  0.40360772  1
  N  N382  1  0.56184977  0.60964459  0.40104636  1
  N  N383  1  0.56434964  0.94530504  0.40170499  1
  N  N384  1  0.31522398  0.22385862  0.59875433  1
  N  N385  1  0.31982425  0.55603146  0.60392900  1
  N  N386  1  0.30869944  0.89020112  0.59389795  1
  N  N387  1  0.81083662  0.22381387  0.59139489  1
  N  N388  1  0.81485915  0.55851753  0.59494732  1
  N  N389  1  0.81565531  0.89002690  0.60181223  1
  N  N390  1  0.18985203  0.10925778  0.09244747  1
  N  N391  1  0.18783212  0.44278975  0.09469017  1
  N  N392  1  0.19089204  0.77597288  0.09458372  1
  N  N393  1  0.68635255  0.10969727  0.09799595  1
  N  N394  1  0.68343323  0.44473585  0.10432234  1
  N  N395  1  0.68788789  0.77465539  0.09462405  1
  N  N396  1  0.18432394  0.22376108  0.90090474  1
  N  N397  1  0.18480899  0.55641269  0.90233798  1
  N  N398  1  0.18566074  0.89030030  0.90096766  1
  N  N399  1  0.69251267  0.22359392  0.90584644  1
  N  N400  1  0.68269800  0.55686061  0.89771524  1
  N  N401  1  0.68699666  0.88947906  0.90286592  1
  N  N402  1  0.31434190  0.10857107  0.40413208  1
  N  N403  1  0.31050591  0.44263170  0.40444496  1
  N  N404  1  0.31936615  0.77513513  0.39819830  1
  N  N405  1  0.81257528  0.10935829  0.40816958  1
  N  N406  1  0.80833203  0.44248092  0.40648452  1
  N  N407  1  0.81054767  0.77551631  0.40507631  1
  N  N408  1  0.43553638  0.27551158  0.40427294  1
  N  N409  1  0.43472368  0.60963657  0.40327919  1
  N  N410  1  0.43508831  0.94312408  0.39965010  1
  N  N411  1  0.93528546  0.27479954  0.40395718  1
  N  N412  1  0.92990590  0.60941883  0.39940145  1
  N  N413  1  0.94086611  0.94423352  0.40484954  1
  N  N414  1  0.06454516  0.05613996  0.90159797  1
  N  N415  1  0.06926778  0.39024404  0.90007452  1
  N  N416  1  0.06070370  0.72232953  0.90393576  1
  N  N417  1  0.55959095  0.05772477  0.90438663  1
  N  N418  1  0.56418574  0.39068517  0.90297952  1
  N  N419  1  0.56552513  0.72325940  0.90329876  1
  N  N420  1  0.05852997  0.27686229  0.09263626  1
  N  N421  1  0.06986340  0.61041692  0.09981151  1
  N  N422  1  0.06431518  0.94316155  0.09686008  1
  N  N423  1  0.56486416  0.27623484  0.09995883  1
  N  N424  1  0.56422377  0.61101149  0.09724231  1
  N  N425  1  0.56263718  0.94333044  0.09959273  1
  N  N426  1  0.43542088  0.05712735  0.59843830  1
  N  N427  1  0.43736769  0.38960744  0.59936481  1
  N  N428  1  0.43587885  0.72357243  0.59881157  1
  N  N429  1  0.93843425  0.05970369  0.59236104  1
  N  N430  1  0.94196314  0.39053127  0.59234852  1
  N  N431  1  0.93407921  0.72296071  0.59878326  1
  N  N432  1  0.18547724  0.10992397  0.40410723  1
  N  N433  1  0.18155397  0.44139980  0.40309647  1
  N  N434  1  0.19071451  0.77805101  0.40703970  1
  N  N435  1  0.68295008  0.11067068  0.40146906  1
  N  N436  1  0.67955764  0.44258751  0.39902941  1
  N  N437  1  0.68335516  0.77748672  0.39427917  1
  N  N438  1  0.31348359  0.21956827  0.90255969  1
  N  N439  1  0.31316929  0.55863994  0.90407188  1
  N  N440  1  0.31375398  0.89120965  0.90396136  1
  N  N441  1  0.82229900  0.22175142  0.89827769  1
  N  N442  1  0.81060758  0.55716687  0.90403195  1
  N  N443  1  0.81485246  0.89034218  0.89882989  1
  N  N444  1  0.31966728  0.10991568  0.09899283  1
  N  N445  1  0.31422417  0.44436093  0.10032561  1
  N  N446  1  0.31749019  0.77762737  0.10312692  1
  N  N447  1  0.81537060  0.10947776  0.09443609  1
  N  N448  1  0.81092628  0.44276912  0.09572288  1
  N  N449  1  0.81593972  0.77667403  0.10082838  1
  N  N450  1  0.18792126  0.22407910  0.59397524  1
  N  N451  1  0.19352259  0.55774205  0.59260833  1
  N  N452  1  0.18177641  0.88987627  0.60253065  1
  N  N453  1  0.68310778  0.22249019  0.60039099  1
  N  N454  1  0.68594158  0.55678871  0.59827022  1
  N  N455  1  0.68508414  0.88897643  0.59909905  1
  Cl  Cl456  1  0.25117252  0.05487306  0.61138958  1
  Cl  Cl457  1  0.25331124  0.38877178  0.60923156  1
  Cl  Cl458  1  0.24564823  0.72379294  0.60714487  1
  Cl  Cl459  1  0.75115507  0.05242587  0.62141006  1
  Cl  Cl460  1  0.75713108  0.38966877  0.60781291  1
  Cl  Cl461  1  0.75095762  0.71765597  0.61326931  1
  Cl  Cl462  1  0.24869848  0.27272410  0.10606781  1
  Cl  Cl463  1  0.25351672  0.61749719  0.12430412  1
  Cl  Cl464  1  0.24765836  0.94848201  0.11969465  1
  Cl  Cl465  1  0.74745047  0.27972464  0.11856688  1
  Cl  Cl466  1  0.75135191  0.61465942  0.11751448  1
  Cl  Cl467  1  0.75140590  0.94924964  0.11700569  1
  Cl  Cl468  1  0.25160184  0.05084169  0.87868197  1
  Cl  Cl469  1  0.25257306  0.38196815  0.87675807  1
  Cl  Cl470  1  0.24464252  0.72163785  0.88597921  1
  Cl  Cl471  1  0.74498155  0.05624040  0.88861957  1
  Cl  Cl472  1  0.75174698  0.38558268  0.87960636  1
  Cl  Cl473  1  0.74818590  0.71747619  0.87609075  1
  Cl  Cl474  1  0.25240015  0.28122167  0.38202749  1
  Cl  Cl475  1  0.24488317  0.61092321  0.39707765  1
  Cl  Cl476  1  0.25568934  0.94634606  0.38871745  1
  Cl  Cl477  1  0.74893869  0.28296158  0.38415802  1
  Cl  Cl478  1  0.74554734  0.61084624  0.38648742  1
  Cl  Cl479  1  0.75076072  0.94718957  0.38716302  1
  Cl  Cl480  1  -0.00077918  0.21817323  0.61838991  1
  Cl  Cl481  1  0.00828615  0.55654143  0.60498604  1
  Cl  Cl482  1  -0.00178072  0.88382573  0.62171223  1
  Cl  Cl483  1  0.49877967  0.21996547  0.61481203  1
  Cl  Cl484  1  0.50198270  0.55379458  0.61245082  1
  Cl  Cl485  1  0.49553328  0.89255686  0.60744863  1
  Cl  Cl486  1  0.00155768  0.11537396  0.11590808  1
  Cl  Cl487  1  -0.00141890  0.44603336  0.11717119  1
  Cl  Cl488  1  0.00584823  0.78029292  0.11673733  1
  Cl  Cl489  1  0.50295904  0.11527887  0.11858450  1
  Cl  Cl490  1  0.49770591  0.44307664  0.11270382  1
  Cl  Cl491  1  0.50121201  0.78105340  0.11678618  1
  Cl  Cl492  1  0.00659656  0.22205786  0.88817588  1
  Cl  Cl493  1  -0.00367960  0.55253198  0.88078534  1
  Cl  Cl494  1  0.00035634  0.89122723  0.89325205  1
  Cl  Cl495  1  0.49817100  0.22469494  0.89280389  1
  Cl  Cl496  1  0.49764314  0.54958587  0.87731915  1
  Cl  Cl497  1  0.49859877  0.88639904  0.88072470  1
  Cl  Cl498  1  0.00053619  0.11595574  0.38224774  1
  Cl  Cl499  1  -0.00551337  0.44624849  0.39035094  1
  Cl  Cl500  1  0.00315827  0.77334315  0.39563036  1
  Cl  Cl501  1  0.49692492  0.11396400  0.38683106  1
  Cl  Cl502  1  0.49613880  0.44698198  0.38161976  1
  Cl  Cl503  1  0.50079991  0.78337120  0.38159383  1
  Cl  Cl504  1  0.36421903  0.14290376  0.74843280  1
  Cl  Cl505  1  0.36267595  0.47606373  0.74705790  1
  Cl  Cl506  1  0.36074675  0.80857531  0.74853934  1
  Cl  Cl507  1  0.86240619  0.14236705  0.75339691  1
  Cl  Cl508  1  0.86157352  0.47568401  0.74662005  1
  Cl  Cl509  1  0.86419060  0.80959135  0.74997117  1
  Cl  Cl510  1  0.13893350  0.19163935  0.24957541  1
  Cl  Cl511  1  0.13713146  0.52403697  0.25279071  1
  Cl  Cl512  1  0.13794245  0.85810607  0.25136904  1
  Cl  Cl513  1  0.63666011  0.19095321  0.25051119  1
  Cl  Cl514  1  0.63786113  0.52405850  0.25152305  1
  Cl  Cl515  1  0.63588767  0.85777007  0.25199956  1
  Cl  Cl516  1  0.14053057  0.14263545  0.74907771  1
  Cl  Cl517  1  0.13790833  0.47527256  0.74997728  1
  Cl  Cl518  1  0.13717796  0.80907513  0.74890381  1
  Cl  Cl519  1  0.63598718  0.14278644  0.74928020  1
  Cl  Cl520  1  0.63759277  0.47563808  0.74917934  1
  Cl  Cl521  1  0.63872925  0.80903396  0.74838351  1
  Cl  Cl522  1  0.36172252  0.19134047  0.24935582  1
  Cl  Cl523  1  0.36103838  0.52474457  0.25206762  1
  Cl  Cl524  1  0.36284223  0.85692663  0.25144001  1
  Cl  Cl525  1  0.86162177  0.19116276  0.24943535  1
  Cl  Cl526  1  0.86243190  0.52418560  0.25196180  1
  Cl  Cl527  1  0.86078794  0.85815942  0.24732537  1
  Cl  Cl528  1  0.11329254  0.30948783  0.74977323  1
  Cl  Cl529  1  0.11133709  0.64208088  0.74724585  1
  Cl  Cl530  1  0.11332897  0.97610745  0.74848565  1
  Cl  Cl531  1  0.61124126  0.30934678  0.74973256  1
  Cl  Cl532  1  0.61385221  0.64269171  0.75021958  1
  Cl  Cl533  1  0.61061450  0.97588326  0.74909007  1
  Cl  Cl534  1  0.38836056  0.02447052  0.25114084  1
  Cl  Cl535  1  0.38957079  0.35725510  0.25030002  1
  Cl  Cl536  1  0.38694409  0.69096981  0.25133655  1
  Cl  Cl537  1  0.88821467  0.02348693  0.24777001  1
  Cl  Cl538  1  0.88725142  0.35756728  0.24927901  1
  Cl  Cl539  1  0.88853317  0.69149058  0.25226116  1
  Cl  Cl540  1  0.38869727  0.30908488  0.75003391  1
  Cl  Cl541  1  0.38632399  0.64321088  0.74658036  1
  Cl  Cl542  1  0.38949238  0.97568559  0.74802085  1
  Cl  Cl543  1  0.88869591  0.30914493  0.75008158  1
  Cl  Cl544  1  0.88848871  0.64215245  0.74861302  1
  Cl  Cl545  1  0.88708560  0.97519455  0.75150427  1
  Cl  Cl546  1  0.11276267  0.02297511  0.25056425  1
  Cl  Cl547  1  0.11205347  0.35745987  0.25259279  1
  Cl  Cl548  1  0.11051504  0.69181608  0.24971803  1
  Cl  Cl549  1  0.60978205  0.02507450  0.24974017  1
  Cl  Cl550  1  0.61158834  0.35797281  0.24975925  1
  Cl  Cl551  1  0.61198263  0.69089297  0.25353878  1
