# generated using pymatgen
data_H8PbC4(N3Cl2)2
_symmetry_space_group_name_H-M   'P 1'
_cell_length_a   16.62387170
_cell_length_b   22.51610725
_cell_length_c   21.59502688
_cell_angle_alpha   89.99999320
_cell_angle_beta   90.03154010
_cell_angle_gamma   90.00204093
_symmetry_Int_Tables_number   1
_chemical_formula_structural   H8PbC4(N3Cl2)2
_chemical_formula_sum   'H192 Pb24 C96 N144 Cl96'
_cell_volume   8083.12267381
_cell_formula_units_Z   24
loop_
 _symmetry_equiv_pos_site_id
 _symmetry_equiv_pos_as_xyz
  1  'x, y, z'
loop_
 _atom_site_type_symbol
 _atom_site_label
 _atom_site_symmetry_multiplicity
 _atom_site_fract_x
 _atom_site_fract_y
 _atom_site_fract_z
 _atom_site_occupancy
  H  H0  1  0.00771891  0.02868277  0.67700063  1
  H  H1  1  0.00905447  0.36395745  0.68457224  1
  H  H2  1  0.00586305  0.69579377  0.67400399  1
  H  H3  1  0.50441888  0.03087245  0.68124817  1
  H  H4  1  0.49115589  0.36293495  0.67503412  1
  H  H5  1  0.50181079  0.69294448  0.68099416  1
  H  H6  1  -0.00493647  0.30218576  0.17464005  1
  H  H7  1  -0.00866983  0.63764806  0.17564963  1
  H  H8  1  -0.00281338  0.97032826  0.18128472  1
  H  H9  1  0.50680467  0.30123755  0.17998168  1
  H  H10  1  0.51176803  0.63779163  0.18092417  1
  H  H11  1  0.51015806  0.97079784  0.17808737  1
  H  H12  1  -0.01041964  0.02985738  0.82143397  1
  H  H13  1  0.00794307  0.36407805  0.82307423  1
  H  H14  1  -0.00831505  0.69339053  0.82286257  1
  H  H15  1  0.50204177  0.02798507  0.82496582  1
  H  H16  1  0.50346029  0.36413290  0.81994669  1
  H  H17  1  0.50551156  0.69573648  0.82274657  1
  H  H18  1  0.00131502  0.30289300  0.32452930  1
  H  H19  1  0.01008860  0.63778620  0.32720520  1
  H  H20  1  -0.00937346  0.97088536  0.32360656  1
  H  H21  1  0.50151987  0.30494318  0.32260655  1
  H  H22  1  0.49725584  0.63456894  0.31980241  1
  H  H23  1  0.51247168  0.97092912  0.32307250  1
  H  H24  1  0.26232067  0.19695978  0.67584628  1
  H  H25  1  0.26796446  0.53044002  0.68119884  1
  H  H26  1  0.25485677  0.86401266  0.68277173  1
  H  H27  1  0.74036210  0.19661402  0.67978091  1
  H  H28  1  0.73686737  0.52908147  0.67424866  1
  H  H29  1  0.74630083  0.86285516  0.68092752  1
  H  H30  1  0.23932419  0.13652069  0.18057603  1
  H  H31  1  0.25489815  0.47170264  0.17856336  1
  H  H32  1  0.24384051  0.80153437  0.18177608  1
  H  H33  1  0.75859308  0.13585973  0.18045174  1
  H  H34  1  0.74253164  0.47096993  0.17912685  1
  H  H35  1  0.75060906  0.80255200  0.18047578  1
  H  H36  1  0.25071537  0.19675253  0.82263596  1
  H  H37  1  0.25131387  0.52789937  0.82051388  1
  H  H38  1  0.24404649  0.86407633  0.81882316  1
  H  H39  1  0.74233690  0.19624462  0.81977897  1
  H  H40  1  0.74541766  0.52815166  0.81888329  1
  H  H41  1  0.75711578  0.86607284  0.82031498  1
  H  H42  1  0.25460181  0.13841978  0.31995363  1
  H  H43  1  0.23583180  0.46962719  0.32377726  1
  H  H44  1  0.26742248  0.80448601  0.32091017  1
  H  H45  1  0.74330661  0.13644319  0.31937614  1
  H  H46  1  0.75870977  0.47143456  0.32259328  1
  H  H47  1  0.73061870  0.80275285  0.32034760  1
  H  H48  1  0.12142250  0.05668662  0.59912599  1
  H  H49  1  0.12345079  0.38581236  0.60589340  1
  H  H50  1  0.12488231  0.72525568  0.60004774  1
  H  H51  1  0.61519315  0.05607674  0.60170521  1
  H  H52  1  0.62876078  0.38321921  0.62013477  1
  H  H53  1  0.62594964  0.71921288  0.61054065  1
  H  H54  1  0.36811549  0.28146101  0.12356063  1
  H  H55  1  0.37279444  0.61673730  0.12513476  1
  H  H56  1  0.37252890  0.94957137  0.12123246  1
  H  H57  1  0.86998243  0.27881752  0.10487911  1
  H  H58  1  0.87275034  0.60869087  0.10183368  1
  H  H59  1  0.86431891  0.94625601  0.11761405  1
  H  H60  1  0.37781149  0.05146360  0.89520749  1
  H  H61  1  0.36995932  0.38617990  0.88110694  1
  H  H62  1  0.37799126  0.72181272  0.89004098  1
  H  H63  1  0.87709327  0.05649153  0.90064519  1
  H  H64  1  0.87174466  0.38222067  0.87768315  1
  H  H65  1  0.88492138  0.72388431  0.90496036  1
  H  H66  1  0.12280625  0.27691570  0.39574271  1
  H  H67  1  0.12047465  0.60328971  0.40543542  1
  H  H68  1  0.12876504  0.95534374  0.37649174  1
  H  H69  1  0.62435958  0.27879489  0.39314720  1
  H  H70  1  0.62995711  0.61634904  0.38243874  1
  H  H71  1  0.63112730  0.94280728  0.39708649  1
  H  H72  1  0.37653304  0.22486777  0.59880922  1
  H  H73  1  0.37273575  0.55737383  0.59682283  1
  H  H74  1  0.37016213  0.88978421  0.60324436  1
  H  H75  1  0.87620095  0.21653111  0.61899372  1
  H  H76  1  0.87763465  0.54828556  0.62311823  1
  H  H77  1  0.87179017  0.88708416  0.61158901  1
  H  H78  1  0.12299761  0.11302651  0.10295706  1
  H  H79  1  0.12865598  0.44861840  0.11074288  1
  H  H80  1  0.11874848  0.77736296  0.10889289  1
  H  H81  1  0.62415578  0.11341339  0.11853799  1
  H  H82  1  0.63121695  0.44284909  0.09898017  1
  H  H83  1  0.61674764  0.78227152  0.12000569  1
  H  H84  1  0.13334467  0.22394758  0.89738678  1
  H  H85  1  0.12738264  0.55206003  0.89210283  1
  H  H86  1  0.13621238  0.88906198  0.90068782  1
  H  H87  1  0.63687790  0.22322665  0.90349865  1
  H  H88  1  0.63156870  0.55641566  0.89646845  1
  H  H89  1  0.63969245  0.88875983  0.89463597  1
  H  H90  1  0.38590469  0.11681003  0.38487961  1
  H  H91  1  0.37655139  0.44846232  0.37404580  1
  H  H92  1  0.36834629  0.77570669  0.40753352  1
  H  H93  1  0.88288784  0.11755641  0.37156110  1
  H  H94  1  0.86451514  0.44006729  0.40644681  1
  H  H95  1  0.87628563  0.78714196  0.36462516  1
  H  H96  1  0.37535578  0.27996672  0.39239348  1
  H  H97  1  0.38128461  0.60947764  0.39469125  1
  H  H98  1  0.38199122  0.94884854  0.38790999  1
  H  H99  1  0.87369845  0.27761220  0.39087820  1
  H  H100  1  0.87424484  0.61962630  0.38619293  1
  H  H101  1  0.88370212  0.94167209  0.40471097  1
  H  H102  1  0.12476253  0.05164047  0.88202731  1
  H  H103  1  0.11751553  0.39108126  0.90253571  1
  H  H104  1  0.13013189  0.71354749  0.87804123  1
  H  H105  1  0.62626208  0.05686188  0.89269246  1
  H  H106  1  0.61712521  0.39029435  0.90057748  1
  H  H107  1  0.62621999  0.72361198  0.89594462  1
  H  H108  1  0.11854744  0.28203859  0.10274976  1
  H  H109  1  0.12155852  0.61225648  0.11160524  1
  H  H110  1  0.11280386  0.94706425  0.10335710  1
  H  H111  1  0.61507409  0.27713840  0.09763425  1
  H  H112  1  0.61902340  0.61138421  0.09772075  1
  H  H113  1  0.61748530  0.94043316  0.09595405  1
  H  H114  1  0.36774482  0.05045287  0.62529072  1
  H  H115  1  0.38161554  0.38818069  0.59469310  1
  H  H116  1  0.37633438  0.71990263  0.61346880  1
  H  H117  1  0.87343306  0.05084427  0.61514621  1
  H  H118  1  0.87500801  0.38366911  0.62541208  1
  H  H119  1  0.87612637  0.72081625  0.61134680  1
  H  H120  1  0.13689983  0.11178885  0.39645432  1
  H  H121  1  0.13225893  0.43886340  0.40851529  1
  H  H122  1  0.12467309  0.78562737  0.37163061  1
  H  H123  1  0.63725940  0.11209154  0.40232591  1
  H  H124  1  0.62014212  0.45036778  0.37819647  1
  H  H125  1  0.63457065  0.77505910  0.40856920  1
  H  H126  1  0.38168462  0.22051333  0.88713406  1
  H  H127  1  0.37648103  0.55530923  0.88875918  1
  H  H128  1  0.38253670  0.88259311  0.87286971  1
  H  H129  1  0.88216391  0.21626489  0.87458787  1
  H  H130  1  0.87994878  0.54915371  0.88152236  1
  H  H131  1  0.88868613  0.88503853  0.88440526  1
  H  H132  1  0.37115392  0.11386503  0.11721949  1
  H  H133  1  0.37821809  0.44492707  0.10719248  1
  H  H134  1  0.36707612  0.77853869  0.10902684  1
  H  H135  1  0.87131405  0.10968364  0.09926607  1
  H  H136  1  0.87877085  0.45008939  0.11956982  1
  H  H137  1  0.86491631  0.77866074  0.10371489  1
  H  H138  1  0.12904545  0.21437703  0.61674890  1
  H  H139  1  0.12760440  0.55057008  0.62685435  1
  H  H140  1  0.12207689  0.88762902  0.61812121  1
  H  H141  1  0.62965422  0.22533159  0.59783090  1
  H  H142  1  0.63389424  0.55948446  0.58838095  1
  H  H143  1  0.62257676  0.88824206  0.60813707  1
  H  H144  1  0.71076303  0.25226458  1.00619036  1
  H  H145  1  0.54900351  0.41967775  1.00051324  1
  H  H146  1  0.54228375  0.91789284  -0.00545108  1
  H  H147  1  0.91676307  0.24674733  0.49601810  1
  H  H148  1  0.11134269  0.92264914  0.49111510  1
  H  H149  1  0.54985434  0.08745913  0.49552993  1
  H  H150  1  0.89303389  0.41619667  -0.00868063  1
  H  H151  1  0.89991961  0.58342238  0.49300254  1
  H  H152  1  0.91579821  0.25573782  -0.00050828  1
  H  H153  1  0.80515615  0.75248004  -0.00602364  1
  H  H154  1  0.07031597  0.75486372  0.49795628  1
  H  H155  1  0.71730639  0.74708625  0.50991508  1
  H  H156  1  0.70773583  0.08479266  0.50800587  1
  H  H157  1  0.39210443  0.25399310  0.01496879  1
  H  H158  1  0.32881081  0.58736826  0.99711754  1
  H  H159  1  0.15538748  0.24517819  0.50240344  1
  H  H160  1  0.96022068  0.73978756  1.00582702  1
  H  H161  1  0.54645641  0.24761332  -0.00730887  1
  H  H162  1  0.32990657  0.41723417  0.00334528  1
  H  H163  1  0.57433630  0.74022136  0.50363046  1
  H  H164  1  0.06598654  0.24294616  0.00293905  1
  H  H165  1  0.90236728  0.41135781  0.51173833  1
  H  H166  1  0.57874781  0.07457402  0.99804739  1
  H  H167  1  0.18288387  0.08222680  -0.00234034  1
  H  H168  1  0.05022871  0.91951580  -0.00369998  1
  H  H169  1  0.29640688  0.58588544  0.49413204  1
  H  H170  1  0.42371999  0.91771715  0.49444048  1
  H  H171  1  0.20459202  0.91479910  1.00722049  1
  H  H172  1  0.82412290  0.91607264  0.50231810  1
  H  H173  1  0.21034676  0.41168709  0.50672003  1
  H  H174  1  0.42727671  0.09409603  0.99197196  1
  H  H175  1  0.38815308  0.08167769  0.51236988  1
  H  H176  1  0.54636417  0.58381797  -0.00585365  1
  H  H177  1  0.64057959  0.41850510  0.48719832  1
  H  H178  1  0.17206693  0.41805265  0.00010879  1
  H  H179  1  0.06267209  0.41270807  0.49768577  1
  H  H180  1  0.69573370  0.91397360  1.00632048  1
  H  H181  1  0.05220583  0.58614453  0.50733648  1
  H  H182  1  0.69642056  0.58831058  1.00145389  1
  H  H183  1  0.10625805  0.75127552  0.98283998  1
  H  H184  1  0.28862860  0.74839185  0.50839884  1
  H  H185  1  0.44511976  0.41629764  0.48839872  1
  H  H186  1  0.36344795  0.90830786  -0.01244276  1
  H  H187  1  0.42587793  0.74842833  0.99604209  1
  H  H188  1  0.43903261  0.57834207  0.50374546  1
  H  H189  1  0.90813055  0.75439170  0.50018532  1
  H  H190  1  0.86675534  0.08736895  0.48491863  1
  H  H191  1  0.42134286  0.75072637  0.50330956  1
  Pb  Pb192  1  0.24914122  0.04812330  0.75205310  1
  Pb  Pb193  1  0.24935564  0.38002272  0.74846753  1
  Pb  Pb194  1  0.25177973  0.71370225  0.74639907  1
  Pb  Pb195  1  0.75029503  0.04676587  0.75085850  1
  Pb  Pb196  1  0.74908285  0.38066893  0.75697282  1
  Pb  Pb197  1  0.75144471  0.71384638  0.75450631  1
  Pb  Pb198  1  0.24843275  0.28725136  0.25285776  1
  Pb  Pb199  1  0.24460248  0.61664254  0.25626237  1
  Pb  Pb200  1  0.24894781  0.95426461  0.24840630  1
  Pb  Pb201  1  0.74965113  0.28635378  0.24536722  1
  Pb  Pb202  1  0.75125724  0.62012183  0.24145387  1
  Pb  Pb203  1  0.74885945  0.95181083  0.25353097  1
  Pb  Pb204  1  0.00198023  0.21314689  0.75364157  1
  Pb  Pb205  1  0.00074536  0.54748536  0.74706399  1
  Pb  Pb206  1  0.00202833  0.88091892  0.75421672  1
  Pb  Pb207  1  0.50148683  0.21470702  0.75051936  1
  Pb  Pb208  1  0.50156568  0.54729192  0.74671416  1
  Pb  Pb209  1  0.50219117  0.88152716  0.74550190  1
  Pb  Pb210  1  0.00184802  0.11938104  0.24770170  1
  Pb  Pb211  1  -0.00141930  0.45166471  0.26057351  1
  Pb  Pb212  1  0.00098695  0.78608486  0.24151808  1
  Pb  Pb213  1  0.50067948  0.12007976  0.25058579  1
  Pb  Pb214  1  0.50120622  0.45362425  0.23844336  1
  Pb  Pb215  1  0.49374861  0.78271645  0.26003601  1
  C  C216  1  0.00051683  0.04468343  0.63015752  1
  C  C217  1  0.00219201  0.37775417  0.63666575  1
  C  C218  1  0.00263867  0.71366175  0.62726705  1
  C  C219  1  0.49536323  0.04566057  0.63384857  1
  C  C220  1  0.50022925  0.37809039  0.62788605  1
  C  C221  1  0.50185557  0.70985887  0.63378606  1
  C  C222  1  -0.00544149  0.28764824  0.12666559  1
  C  C223  1  -0.00462656  0.61986113  0.12932199  1
  C  C224  1  -0.00891146  0.95489394  0.13388338  1
  C  C225  1  0.49587182  0.28653705  0.13272329  1
  C  C226  1  0.50087382  0.62227575  0.13406953  1
  C  C227  1  0.50018893  0.95489221  0.13131386  1
  C  C228  1  -0.00247757  0.04584777  0.86823855  1
  C  C229  1  -0.00192319  0.37907622  0.87006488  1
  C  C230  1  0.00244228  0.70951016  0.86966197  1
  C  C231  1  0.50198157  0.04564004  0.87183395  1
  C  C232  1  0.49702333  0.37971291  0.86717679  1
  C  C233  1  0.50304260  0.71329811  0.86946932  1
  C  C234  1  -0.00124516  0.28605883  0.37150987  1
  C  C235  1  0.00162043  0.62071972  0.37392241  1
  C  C236  1  0.00206505  0.95590971  0.37044951  1
  C  C237  1  0.50009231  0.28815472  0.36952438  1
  C  C238  1  0.50254969  0.62014305  0.36747219  1
  C  C239  1  0.50818742  0.95470266  0.37018243  1
  C  C240  1  0.25522752  0.21207339  0.62854246  1
  C  C241  1  0.25563306  0.54528938  0.63434935  1
  C  C242  1  0.24914561  0.87978673  0.63550781  1
  C  C243  1  0.74858269  0.21185352  0.63246535  1
  C  C244  1  0.74936043  0.54486241  0.62792917  1
  C  C245  1  0.74667378  0.87913759  0.63364825  1
  C  C246  1  0.24476157  0.12163703  0.13303059  1
  C  C247  1  0.25439761  0.45510170  0.13129938  1
  C  C248  1  0.24297700  0.78701787  0.13385558  1
  C  C249  1  0.75135231  0.11995598  0.13329327  1
  C  C250  1  0.75105236  0.45519550  0.13236479  1
  C  C251  1  0.74433425  0.78811528  0.13292345  1
  C  C252  1  0.25564906  0.21324814  0.86943070  1
  C  C253  1  0.25176700  0.54466820  0.86758483  1
  C  C254  1  0.25483869  0.87794484  0.86628184  1
  C  C255  1  0.75429839  0.21120911  0.86666109  1
  C  C256  1  0.75260167  0.54402664  0.86599356  1
  C  C257  1  0.76166712  0.87971374  0.86829638  1
  C  C258  1  0.25903772  0.12266620  0.36713749  1
  C  C259  1  0.24794853  0.45355436  0.37015380  1
  C  C260  1  0.25313031  0.78938966  0.36737061  1
  C  C261  1  0.75502448  0.12194964  0.36655146  1
  C  C262  1  0.74761800  0.45494721  0.36905536  1
  C  C263  1  0.74723618  0.78867444  0.36669937  1
  C  C264  1  0.97390421  0.07746887  0.96230611  1
  C  C265  1  0.02599230  0.07560854  0.53603033  1
  C  C266  1  0.94790203  0.40193231  0.54660548  1
  C  C267  1  0.81062295  0.57047699  0.54238100  1
  C  C268  1  0.47362380  0.59145814  0.46328690  1
  C  C269  1  0.02960469  0.40248672  0.53977731  1
  C  C270  1  0.21780699  0.09420641  0.03846265  1
  C  C271  1  0.47939633  0.40559540  0.53039600  1
  C  C272  1  0.26284392  0.76069898  0.46374666  1
  C  C273  1  0.21158017  0.42761719  0.03908381  1
  C  C274  1  0.95373224  0.74406033  0.53749408  1
  C  C275  1  0.81224944  0.90328479  0.95938782  1
  C  C276  1  0.73098497  0.90447518  0.96498753  1
  C  C277  1  0.73681457  0.09544493  0.46424902  1
  C  C278  1  0.77141581  0.76250018  0.03584292  1
  C  C279  1  0.23448779  0.90337583  0.96405173  1
  C  C280  1  0.72866240  0.57507933  0.95977318  1
  C  C281  1  0.51741390  0.59483301  0.03797696  1
  C  C282  1  0.98190887  0.92605391  0.46662994  1
  C  C283  1  0.72873144  0.42393382  0.03784288  1
  C  C284  1  0.01710510  0.92881087  0.03869957  1
  C  C285  1  0.28938822  0.57519206  0.95890291  1
  C  C286  1  0.53605478  0.25797831  0.46166761  1
  C  C287  1  0.96538751  0.58463627  0.03818465  1
  C  C288  1  0.81762303  0.09681027  0.45290918  1
  C  C289  1  0.78481502  0.90568848  0.54114999  1
  C  C290  1  0.06259053  0.93067667  0.45822656  1
  C  C291  1  0.20199356  0.23728820  0.53782899  1
  C  C292  1  0.30480692  0.09548426  0.45760363  1
  C  C293  1  0.55477159  0.59446446  0.45750264  1
  C  C294  1  0.28330270  0.24102135  0.53335595  1
  C  C295  1  0.45960820  0.73984353  0.54251902  1
  C  C296  1  0.94073965  0.40660547  0.95819363  1
  C  C297  1  0.43706133  0.07216563  0.54595658  1
  C  C298  1  0.26937777  0.57392362  0.53836209  1
  C  C299  1  0.22560992  0.24408580  0.96306042  1
  C  C300  1  0.03718380  0.25433487  0.46456164  1
  C  C301  1  0.31547823  0.90015640  0.95430791  1
  C  C302  1  0.51858553  0.07452959  0.53760625  1
  C  C303  1  0.73911621  0.24030834  0.96237681  1
  C  C304  1  0.31394058  0.42337900  0.45419824  1
  C  C305  1  0.51728007  0.25858044  0.03635793  1
  C  C306  1  0.56010888  0.40347015  0.54057482  1
  C  C307  1  0.02151665  0.40927000  0.96560301  1
  C  C308  1  0.54294978  0.92274475  0.46394764  1
  C  C309  1  0.82029044  0.76566030  0.44849603  1
  C  C310  1  0.69051515  0.76382521  0.04326923  1
  C  C311  1  0.74190371  0.76042151  0.46527361  1
  N  N312  1  0.28078149  0.76268576  0.03926847  1
  N  N313  1  0.54186460  0.08113866  0.96025157  1
  N  N314  1  0.23611711  0.42106191  0.46454906  1
  N  N315  1  0.46327639  0.06741446  0.96504893  1
  N  N316  1  0.77558145  0.08917453  0.03825150  1
  N  N317  1  0.69948340  0.09042993  0.04445883  1
  N  N318  1  0.95416279  0.25558678  0.03746769  1
  N  N319  1  0.45883020  0.25829829  0.46259238  1
  N  N320  1  0.18516916  0.76401698  0.45206341  1
  N  N321  1  0.27680447  0.90819769  0.54031512  1
  N  N322  1  0.21014554  0.57389448  0.96055188  1
  N  N323  1  0.30322097  0.24282726  0.96070199  1
  N  N324  1  0.72652414  0.24131741  0.53665061  1
  N  N325  1  0.20083717  0.90832321  0.54568694  1
  N  N326  1  0.43902037  0.59637460  0.04689283  1
  N  N327  1  0.80561647  0.42669678  0.04370318  1
  N  N328  1  0.94894371  0.07351156  0.54050280  1
  N  N329  1  0.29131030  0.42518733  0.03968189  1
  N  N330  1  0.29714703  0.09504525  0.04234235  1
  N  N331  1  0.43873988  0.25951782  0.04657430  1
  N  N332  1  0.19119086  0.57183126  0.54839448  1
  N  N333  1  0.76781243  0.42345785  0.46453374  1
  N  N334  1  0.44021325  0.92581325  0.04606816  1
  N  N335  1  0.73457309  0.57532304  0.53026764  1
  N  N336  1  0.03207491  0.26793567  0.03292702  1
  N  N337  1  0.81738008  0.23869462  0.95271401  1
  N  N338  1  0.94680992  0.59881435  0.46200836  1
  N  N339  1  0.04265105  0.58596199  0.03969975  1
  N  N340  1  0.69060388  0.42746871  0.45425384  1
  N  N341  1  0.80242572  0.23845584  0.54340995  1
  N  N342  1  0.46429347  0.92559052  0.45996338  1
  N  N343  1  0.20411160  0.76370245  0.03931512  1
  N  N344  1  0.95807806  0.25533746  0.46181396  1
  N  N345  1  0.02360327  0.58308961  0.46507146  1
  N  N346  1  0.51935031  0.40751417  0.96070513  1
  N  N347  1  0.80755912  0.57294778  0.95478525  1
  N  N348  1  0.06143474  0.73292102  0.95556519  1
  N  N349  1  0.03343484  0.74576453  0.53514250  1
  N  N350  1  0.54129614  0.74311380  0.96247645  1
  N  N351  1  0.51736616  0.92262166  0.03821361  1
  N  N352  1  0.05123074  0.07598882  0.95750457  1
  N  N353  1  0.44137367  0.40638401  0.95572746  1
  N  N354  1  0.46319829  0.74335148  0.95881793  1
  N  N355  1  0.93813818  0.92784061  0.04354844  1
  N  N356  1  0.98373751  0.74506547  0.96198997  1
  N  N357  1  0.22771859  0.09351536  0.46283428  1
  N  N358  1  0.70558407  0.90598739  0.53974724  1
  N  N359  1  0.53922573  0.73994923  0.54253948  1
  N  N360  1  0.05993643  0.05822707  0.58994377  1
  N  N361  1  0.06209670  0.38736777  0.59621333  1
  N  N362  1  0.06343779  0.72596086  0.59004802  1
  N  N363  1  0.55362701  0.05785085  0.59257840  1
  N  N364  1  0.57200271  0.38739758  0.59994859  1
  N  N365  1  0.56510958  0.71846225  0.59784141  1
  N  N366  1  0.42585758  0.27753279  0.10562272  1
  N  N367  1  0.43058759  0.61319820  0.10699492  1
  N  N368  1  0.42990043  0.94402395  0.10436399  1
  N  N369  1  0.93014376  0.27825299  0.09195326  1
  N  N370  1  0.93339257  0.60522143  0.09184304  1
  N  N371  1  0.92375694  0.94438147  0.10285747  1
  N  N372  1  0.43828497  0.05778234  0.90617859  1
  N  N373  1  0.42836982  0.38945869  0.89706883  1
  N  N374  1  0.43827462  0.72357059  0.90330125  1
  N  N375  1  0.93851729  0.05926054  0.90898373  1
  N  N376  1  0.92755423  0.38777739  0.89778053  1
  N  N377  1  0.94688484  0.72041181  0.91216674  1
  N  N378  1  0.06254207  0.27321645  0.40864074  1
  N  N379  1  0.05899549  0.60669365  0.41404270  1
  N  N380  1  0.07349168  0.94902255  0.39736339  1
  N  N381  1  0.56429835  0.27583511  0.40569043  1
  N  N382  1  0.57172433  0.61143442  0.39963318  1
  N  N383  1  0.57058331  0.94057070  0.40839530  1
  N  N384  1  0.31538816  0.22586264  0.58801531  1
  N  N385  1  0.31049087  0.55765350  0.59057905  1
  N  N386  1  0.30813630  0.89012237  0.59569094  1
  N  N387  1  0.81734420  0.22054637  0.60304350  1
  N  N388  1  0.82209597  0.55253255  0.60214567  1
  N  N389  1  0.81168569  0.88955562  0.59850538  1
  N  N390  1  0.18430513  0.11056588  0.09355195  1
  N  N391  1  0.18846452  0.44526404  0.09618868  1
  N  N392  1  0.17948803  0.77869079  0.09795266  1
  N  N393  1  0.68326341  0.10966377  0.10342377  1
  N  N394  1  0.69285419  0.44129470  0.09122671  1
  N  N395  1  0.67451644  0.77888198  0.10187987  1
  N  N396  1  0.19438352  0.22642870  0.90804120  1
  N  N397  1  0.18851259  0.55484312  0.90337173  1
  N  N398  1  0.19809919  0.88946077  0.90884969  1
  N  N399  1  0.69908268  0.22394147  0.90995580  1
  N  N400  1  0.69327207  0.55766721  0.90564954  1
  N  N401  1  0.70045376  0.88955252  0.90692341  1
  N  N402  1  0.32692140  0.11296259  0.39967225  1
  N  N403  1  0.32125396  0.44279693  0.39546831  1
  N  N404  1  0.30610179  0.77587841  0.41214489  1
  N  N405  1  0.82727145  0.11297710  0.39237321  1
  N  N406  1  0.80257307  0.44044291  0.41130204  1
  N  N407  1  0.82302054  0.78233647  0.38897615  1
  N  N408  1  0.43603456  0.27723615  0.40381810  1
  N  N409  1  0.44187638  0.60790514  0.40595584  1
  N  N410  1  0.44181257  0.94581823  0.40241907  1
  N  N411  1  0.93376634  0.27525719  0.40459127  1
  N  N412  1  0.93231575  0.61271649  0.40282564  1
  N  N413  1  0.94550069  0.94107970  0.41354015  1
  N  N414  1  0.06588326  0.05618076  0.89746037  1
  N  N415  1  0.05615231  0.39247340  0.91249522  1
  N  N416  1  0.07287363  0.72033271  0.89566302  1
  N  N417  1  0.56612489  0.05636654  0.90629834  1
  N  N418  1  0.55468027  0.39104549  0.90756613  1
  N  N419  1  0.56546609  0.72613203  0.90576064  1
  N  N420  1  0.05789938  0.27663652  0.09150880  1
  N  N421  1  0.06156775  0.60822719  0.09773527  1
  N  N422  1  0.05130939  0.94472359  0.09386483  1
  N  N423  1  0.55319190  0.27481291  0.08994883  1
  N  N424  1  0.55677005  0.61037652  0.09108789  1
  N  N425  1  0.55540171  0.94326884  0.08896423  1
  N  N426  1  0.42455787  0.05445848  0.60593847  1
  N  N427  1  0.44313804  0.38959464  0.58640672  1
  N  N428  1  0.43614631  0.72295128  0.59965340  1
  N  N429  1  0.93252234  0.05402993  0.59998354  1
  N  N430  1  0.93252831  0.38676243  0.60689575  1
  N  N431  1  0.93477081  0.72497859  0.59518037  1
  N  N432  1  0.19894743  0.11097496  0.40518557  1
  N  N433  1  0.19431279  0.44161634  0.41360762  1
  N  N434  1  0.18112888  0.78205207  0.39206285  1
  N  N435  1  0.69912190  0.11107750  0.40997739  1
  N  N436  1  0.67762336  0.44699403  0.39660725  1
  N  N437  1  0.69689823  0.77540157  0.41272020  1
  N  N438  1  0.32208345  0.22346933  0.90107309  1
  N  N439  1  0.31660102  0.55757655  0.90201307  1
  N  N440  1  0.32668624  0.88468858  0.89358651  1
  N  N441  1  0.82504453  0.21986300  0.89300351  1
  N  N442  1  0.82061179  0.55348836  0.89641116  1
  N  N443  1  0.83032381  0.88857664  0.90103352  1
  N  N444  1  0.31196377  0.11185778  0.10182949  1
  N  N445  1  0.31747575  0.44291330  0.09632156  1
  N  N446  1  0.30601646  0.77721103  0.09764244  1
  N  N447  1  0.80909964  0.10720178  0.09309311  1
  N  N448  1  0.81996253  0.44616335  0.10341154  1
  N  N449  1  0.80407418  0.77770351  0.09307408  1
  N  N450  1  0.18610492  0.21950765  0.59832570  1
  N  N451  1  0.18471310  0.55408858  0.60816231  1
  N  N452  1  0.18206548  0.89142280  0.60462157  1
  N  N453  1  0.69176563  0.22450725  0.59140268  1
  N  N454  1  0.69622813  0.55861682  0.58481748  1
  N  N455  1  0.68356310  0.88971694  0.59772505  1
  Cl  Cl456  1  0.24187903  0.05462133  0.62181291  1
  Cl  Cl457  1  0.24996617  0.38903891  0.60846550  1
  Cl  Cl458  1  0.24998399  0.72260675  0.61043241  1
  Cl  Cl459  1  0.74123495  0.05497686  0.61575908  1
  Cl  Cl460  1  0.75145901  0.38495641  0.62813765  1
  Cl  Cl461  1  0.74849583  0.72121927  0.61992975  1
  Cl  Cl462  1  0.24050046  0.28343532  0.11817249  1
  Cl  Cl463  1  0.24569131  0.61337673  0.12469411  1
  Cl  Cl464  1  0.23892780  0.94714505  0.11378276  1
  Cl  Cl465  1  0.74238404  0.27984799  0.10822878  1
  Cl  Cl466  1  0.74322521  0.61139473  0.10610615  1
  Cl  Cl467  1  0.73627399  0.93960668  0.11705763  1
  Cl  Cl468  1  0.25388950  0.05302441  0.88584373  1
  Cl  Cl469  1  0.24203886  0.39042773  0.88656812  1
  Cl  Cl470  1  0.25537323  0.71985722  0.87817237  1
  Cl  Cl471  1  0.74985651  0.05283450  0.88251200  1
  Cl  Cl472  1  0.73658014  0.38896079  0.89076838  1
  Cl  Cl473  1  0.75877923  0.72427692  0.88949467  1
  Cl  Cl474  1  0.24744949  0.28096445  0.38664001  1
  Cl  Cl475  1  0.24832139  0.60676119  0.39211529  1
  Cl  Cl476  1  0.26044194  0.95121631  0.37817237  1
  Cl  Cl477  1  0.75021377  0.28095462  0.37657094  1
  Cl  Cl478  1  0.75353255  0.61964213  0.37201171  1
  Cl  Cl479  1  0.75963923  0.94270365  0.38590459  1
  Cl  Cl480  1  -0.00019102  0.21816835  0.62093031  1
  Cl  Cl481  1  0.00239052  0.56166394  0.61123886  1
  Cl  Cl482  1  -0.00305330  0.88518467  0.62238984  1
  Cl  Cl483  1  0.50392684  0.22543073  0.61901742  1
  Cl  Cl484  1  0.49959253  0.55887564  0.61191940  1
  Cl  Cl485  1  0.49215555  0.88995773  0.60733716  1
  Cl  Cl486  1  -0.00450327  0.11646796  0.11293216  1
  Cl  Cl487  1  0.00544872  0.44824713  0.12910898  1
  Cl  Cl488  1  -0.00695294  0.76830767  0.10457078  1
  Cl  Cl489  1  0.49932574  0.11113028  0.11338054  1
  Cl  Cl490  1  0.50810297  0.44214327  0.10128961  1
  Cl  Cl491  1  0.48936895  0.77947052  0.12459399  1
  Cl  Cl492  1  0.01166663  0.22381411  0.89093533  1
  Cl  Cl493  1  0.00474428  0.55091776  0.87639537  1
  Cl  Cl494  1  0.01517469  0.88716224  0.88981457  1
  Cl  Cl495  1  0.51098905  0.22203563  0.89006592  1
  Cl  Cl496  1  0.50748799  0.55638614  0.88395765  1
  Cl  Cl497  1  0.51631145  0.89677504  0.88762402  1
  Cl  Cl498  1  0.01416918  0.11441113  0.38051064  1
  Cl  Cl499  1  0.00026811  0.43993147  0.39726979  1
  Cl  Cl500  1  0.00190924  0.77509246  0.37416270  1
  Cl  Cl501  1  0.51369449  0.11221897  0.38401228  1
  Cl  Cl502  1  0.49992229  0.44805454  0.37031874  1
  Cl  Cl503  1  0.50203854  0.77419003  0.40165830  1
  Cl  Cl504  1  0.36301326  0.14784594  0.74839574  1
  Cl  Cl505  1  0.36029947  0.48114193  0.75582212  1
  Cl  Cl506  1  0.36550527  0.81404710  0.75248455  1
  Cl  Cl507  1  0.86511611  0.14591822  0.75148931  1
  Cl  Cl508  1  0.86394443  0.48005441  0.74817370  1
  Cl  Cl509  1  0.86276992  0.81513750  0.75373883  1
  Cl  Cl510  1  0.14272703  0.18335965  0.25171408  1
  Cl  Cl511  1  0.14309707  0.51667083  0.25438905  1
  Cl  Cl512  1  0.13801357  0.85239319  0.25659359  1
  Cl  Cl513  1  0.64277238  0.18235252  0.24452268  1
  Cl  Cl514  1  0.63962608  0.51894929  0.24987816  1
  Cl  Cl515  1  0.64242846  0.84956167  0.24897883  1
  Cl  Cl516  1  0.14332955  0.15204619  0.75210536  1
  Cl  Cl517  1  0.13856793  0.48123784  0.74075754  1
  Cl  Cl518  1  0.14256347  0.81615598  0.74786168  1
  Cl  Cl519  1  0.64114502  0.14948483  0.75283888  1
  Cl  Cl520  1  0.64250168  0.48365184  0.74692234  1
  Cl  Cl521  1  0.64086889  0.81626877  0.74758078  1
  Cl  Cl522  1  0.36413098  0.18870966  0.24208703  1
  Cl  Cl523  1  0.36384882  0.52019049  0.25093392  1
  Cl  Cl524  1  0.36056024  0.85325569  0.24877915  1
  Cl  Cl525  1  0.86474014  0.18749099  0.25567540  1
  Cl  Cl526  1  0.85929437  0.51712506  0.25047702  1
  Cl  Cl527  1  0.86558029  0.85392496  0.24890991  1
  Cl  Cl528  1  0.10760564  0.31746324  0.75467843  1
  Cl  Cl529  1  0.11196736  0.64869635  0.74891457  1
  Cl  Cl530  1  0.10891045  0.98427316  0.75173228  1
  Cl  Cl531  1  0.60819892  0.31848568  0.74938042  1
  Cl  Cl532  1  0.60901116  0.65089710  0.75355587  1
  Cl  Cl533  1  0.60630389  0.98546340  0.74938004  1
  Cl  Cl534  1  0.38610836  0.02128423  0.24240365  1
  Cl  Cl535  1  0.38649235  0.35488171  0.24547881  1
  Cl  Cl536  1  0.39194316  0.68673396  0.25033493  1
  Cl  Cl537  1  0.88763338  0.01941980  0.25234416  1
  Cl  Cl538  1  0.88976233  0.35039503  0.24630195  1
  Cl  Cl539  1  0.89081392  0.68486275  0.25277553  1
  Cl  Cl540  1  0.38882520  0.31529758  0.75627395  1
  Cl  Cl541  1  0.39063941  0.64879515  0.74886811  1
  Cl  Cl542  1  0.38655137  0.97967392  0.75272933  1
  Cl  Cl543  1  0.88566687  0.31150453  0.75733184  1
  Cl  Cl544  1  0.89276417  0.64998499  0.74777240  1
  Cl  Cl545  1  0.88899161  0.98049772  0.74752996  1
  Cl  Cl546  1  0.10761337  0.01545689  0.25181723  1
  Cl  Cl547  1  0.10617692  0.34830651  0.25266904  1
  Cl  Cl548  1  0.10875314  0.68341629  0.25040707  1
  Cl  Cl549  1  0.60696641  0.01588819  0.24770099  1
  Cl  Cl550  1  0.60746222  0.35001297  0.24810348  1
  Cl  Cl551  1  0.61173678  0.68565404  0.25164560  1
