# generated using pymatgen
data_H8PbC4(N3Cl2)2
_symmetry_space_group_name_H-M   'P 1'
_cell_length_a   16.62451682
_cell_length_b   22.51609721
_cell_length_c   21.59437138
_cell_angle_alpha   89.99868389
_cell_angle_beta   89.99435938
_cell_angle_gamma   89.99941444
_symmetry_Int_Tables_number   1
_chemical_formula_structural   H8PbC4(N3Cl2)2
_chemical_formula_sum   'H192 Pb24 C96 N144 Cl96'
_cell_volume   8083.18857276
_cell_formula_units_Z   24
loop_
 _symmetry_equiv_pos_site_id
 _symmetry_equiv_pos_as_xyz
  1  'x, y, z'
loop_
 _atom_site_type_symbol
 _atom_site_label
 _atom_site_symmetry_multiplicity
 _atom_site_fract_x
 _atom_site_fract_y
 _atom_site_fract_z
 _atom_site_occupancy
  H  H0  1  0.00766191  0.03336095  0.67487978  1
  H  H1  1  0.00092087  0.36448052  0.68278604  1
  H  H2  1  -0.00372749  0.69335503  0.67546002  1
  H  H3  1  0.48546854  0.03138482  0.68248080  1
  H  H4  1  0.50039713  0.36387934  0.67679462  1
  H  H5  1  0.50930973  0.69815941  0.67588927  1
  H  H6  1  -0.00437135  0.30516229  0.18110765  1
  H  H7  1  0.00175522  0.63824049  0.17658481  1
  H  H8  1  -0.00064819  0.97010272  0.17270573  1
  H  H9  1  0.51192418  0.30419039  0.17742900  1
  H  H10  1  0.49548074  0.63764645  0.17978329  1
  H  H11  1  0.49876056  0.97481350  0.17401735  1
  H  H12  1  0.00916390  0.02524606  0.82283756  1
  H  H13  1  -0.01228043  0.36551957  0.82311518  1
  H  H14  1  -0.00108742  0.69724023  0.82055359  1
  H  H15  1  0.50151423  0.02656404  0.81960904  1
  H  H16  1  0.50176814  0.36234571  0.82130553  1
  H  H17  1  0.50971951  0.69687721  0.82339658  1
  H  H18  1  0.00604973  0.30370115  0.32405131  1
  H  H19  1  -0.01061287  0.63731933  0.32202989  1
  H  H20  1  -0.01780601  0.96755923  0.31807852  1
  H  H21  1  0.49616369  0.30363753  0.32074606  1
  H  H22  1  0.49916345  0.63986747  0.32477526  1
  H  H23  1  0.51387994  0.96556041  0.32315892  1
  H  H24  1  0.24223649  0.19623631  0.67491586  1
  H  H25  1  0.26173242  0.53045628  0.68016708  1
  H  H26  1  0.24801353  0.86345028  0.67677418  1
  H  H27  1  0.74888246  0.19604829  0.68008265  1
  H  H28  1  0.75334535  0.53077471  0.67739829  1
  H  H29  1  0.75785085  0.86481552  0.68423452  1
  H  H30  1  0.24723290  0.13783711  0.18207601  1
  H  H31  1  0.25971256  0.47175737  0.18178901  1
  H  H32  1  0.23467291  0.80360782  0.17811313  1
  H  H33  1  0.74069437  0.13130380  0.17419669  1
  H  H34  1  0.75827621  0.47052104  0.17486392  1
  H  H35  1  0.75911357  0.80888832  0.17630206  1
  H  H36  1  0.24293162  0.19672393  0.82156449  1
  H  H37  1  0.25354627  0.52886843  0.82166518  1
  H  H38  1  0.23747625  0.86304553  0.82484872  1
  H  H39  1  0.76353226  0.19232682  0.82435581  1
  H  H40  1  0.74912509  0.52836313  0.82458881  1
  H  H41  1  0.76089464  0.86243291  0.82359960  1
  H  H42  1  0.26528395  0.13776843  0.32273164  1
  H  H43  1  0.23343594  0.46559541  0.32103384  1
  H  H44  1  0.24918569  0.80501129  0.32336549  1
  H  H45  1  0.73644530  0.13566253  0.32366102  1
  H  H46  1  0.76672022  0.46820673  0.32053673  1
  H  H47  1  0.75306888  0.79983772  0.32538354  1
  H  H48  1  0.11999836  0.05937202  0.59687429  1
  H  H49  1  0.12532598  0.38670964  0.61099155  1
  H  H50  1  0.11955271  0.72116297  0.60391841  1
  H  H51  1  0.62481561  0.04899086  0.62563940  1
  H  H52  1  0.62627750  0.38736062  0.60866087  1
  H  H53  1  0.61405004  0.72623654  0.59047560  1
  H  H54  1  0.38245437  0.28060162  0.11228043  1
  H  H55  1  0.37931500  0.61014031  0.10410230  1
  H  H56  1  0.37811122  0.94499846  0.10344873  1
  H  H57  1  0.88248643  0.28004009  0.10119627  1
  H  H58  1  0.88087036  0.61059756  0.10519673  1
  H  H59  1  0.87409395  0.94727353  0.10645321  1
  H  H60  1  0.37156503  0.05234640  0.88558607  1
  H  H61  1  0.39031097  0.39179805  0.90138363  1
  H  H62  1  0.37699268  0.71878680  0.88704331  1
  H  H63  1  0.86925555  0.04796187  0.87591622  1
  H  H64  1  0.88253616  0.39249894  0.90655649  1
  H  H65  1  0.88348566  0.72199006  0.89593511  1
  H  H66  1  0.11122966  0.26996129  0.40607960  1
  H  H67  1  0.12444480  0.61720125  0.37671664  1
  H  H68  1  0.12255582  0.95238364  0.36929528  1
  H  H69  1  0.61262175  0.27822066  0.39801739  1
  H  H70  1  0.63781288  0.62234922  0.38188035  1
  H  H71  1  0.61415456  0.94005881  0.41032675  1
  H  H72  1  0.38450226  0.21471256  0.62341766  1
  H  H73  1  0.36550627  0.55918199  0.59363458  1
  H  H74  1  0.37942222  0.88616230  0.61386919  1
  H  H75  1  0.88102115  0.21807113  0.61627594  1
  H  H76  1  0.86644803  0.55783914  0.59908848  1
  H  H77  1  0.87907599  0.88467936  0.61107080  1
  H  H78  1  0.13525663  0.11031850  0.10361655  1
  H  H79  1  0.12324907  0.44807346  0.12279580  1
  H  H80  1  0.12526403  0.77834801  0.09427508  1
  H  H81  1  0.63268921  0.10731841  0.09254915  1
  H  H82  1  0.62114249  0.44976113  0.11797628  1
  H  H83  1  0.62389579  0.78323068  0.11855493  1
  H  H84  1  0.12342934  0.22343025  0.89621707  1
  H  H85  1  0.12099612  0.55208480  0.88423179  1
  H  H86  1  0.12288268  0.88914173  0.90252939  1
  H  H87  1  0.62210852  0.21490175  0.87476059  1
  H  H88  1  0.62088383  0.55488497  0.89018099  1
  H  H89  1  0.62433698  0.88487304  0.88324445  1
  H  H90  1  0.36549137  0.10587513  0.40972161  1
  H  H91  1  0.37821580  0.45140019  0.36715168  1
  H  H92  1  0.38241966  0.78076553  0.38509706  1
  H  H93  1  0.87780874  0.11596661  0.37524576  1
  H  H94  1  0.86773378  0.44586542  0.40794138  1
  H  H95  1  0.87725296  0.77738439  0.39309089  1
  H  H96  1  0.36475791  0.28158412  0.38416454  1
  H  H97  1  0.39178912  0.60564302  0.40547684  1
  H  H98  1  0.37017625  0.94969055  0.37294165  1
  H  H99  1  0.86646790  0.28532486  0.37890946  1
  H  H100  1  0.87874369  0.61266627  0.40229791  1
  H  H101  1  0.87754603  0.94407171  0.40314985  1
  H  H102  1  0.11486573  0.05537236  0.90579546  1
  H  H103  1  0.12668524  0.38137036  0.87435564  1
  H  H104  1  0.13222735  0.71734345  0.88205103  1
  H  H105  1  0.61968879  0.05576482  0.89574167  1
  H  H106  1  0.63736210  0.38362218  0.87942402  1
  H  H107  1  0.62482039  0.72429253  0.90131587  1
  H  H108  1  0.13019614  0.28199428  0.11974010  1
  H  H109  1  0.13045885  0.61277128  0.11044774  1
  H  H110  1  0.12286545  0.94522722  0.10450394  1
  H  H111  1  0.63042030  0.27557298  0.10184712  1
  H  H112  1  0.62749102  0.61438996  0.11636814  1
  H  H113  1  0.62696257  0.94861483  0.10881571  1
  H  H114  1  0.37877149  0.05914570  0.59906884  1
  H  H115  1  0.37735017  0.38778640  0.60835717  1
  H  H116  1  0.36944499  0.71760534  0.62353034  1
  H  H117  1  0.87316888  0.05068724  0.61629753  1
  H  H118  1  0.87528010  0.38719784  0.61424400  1
  H  H119  1  0.87074210  0.71763889  0.60520326  1
  H  H120  1  0.12249891  0.11719422  0.36914604  1
  H  H121  1  0.13565090  0.44173713  0.40940028  1
  H  H122  1  0.13498490  0.77478706  0.40057210  1
  H  H123  1  0.63299297  0.10823824  0.40928154  1
  H  H124  1  0.62467006  0.45150629  0.36795807  1
  H  H125  1  0.62885943  0.77932408  0.39371805  1
  H  H126  1  0.37164333  0.22132617  0.88892389  1
  H  H127  1  0.36876834  0.55742859  0.89740157  1
  H  H128  1  0.37058873  0.88337448  0.88325766  1
  H  H129  1  0.86476635  0.22573831  0.90984316  1
  H  H130  1  0.86968084  0.55442932  0.89656248  1
  H  H131  1  0.87088471  0.89150230  0.90574170  1
  H  H132  1  0.38315297  0.11673759  0.12507185  1
  H  H133  1  0.37111806  0.44550142  0.10111250  1
  H  H134  1  0.37154995  0.78346055  0.11755296  1
  H  H135  1  0.87786947  0.11408870  0.12046500  1
  H  H136  1  0.86717951  0.44121893  0.09535115  1
  H  H137  1  0.86997603  0.77920523  0.09519645  1
  H  H138  1  0.14043620  0.22910045  0.59006117  1
  H  H139  1  0.12177710  0.55002924  0.62627110  1
  H  H140  1  0.13118268  0.89085516  0.60049718  1
  H  H141  1  0.63299234  0.22358520  0.60362806  1
  H  H142  1  0.61921811  0.55266699  0.61615846  1
  H  H143  1  0.62954872  0.88269690  0.61764758  1
  H  H144  1  0.64491694  0.41865573  0.00881310  1
  H  H145  1  0.43915115  0.57919919  -0.00191836  1
  H  H146  1  0.41544737  0.75017364  0.99260244  1
  H  H147  1  0.28442018  0.08390997  0.50747597  1
  H  H148  1  0.32602094  0.24980289  0.99423889  1
  H  H149  1  0.30364829  0.41530532  -0.00295410  1
  H  H150  1  0.79050049  0.42094161  0.51154031  1
  H  H151  1  0.10933755  0.92539445  0.48408169  1
  H  H152  1  0.78326648  0.25065512  1.00745695  1
  H  H153  1  0.70689031  0.07864558  0.51095036  1
  H  H154  1  0.03510908  0.25040404  0.50693447  1
  H  H155  1  0.95065780  0.92188498  0.50902635  1
  H  H156  1  0.82850528  0.90274953  0.49819021  1
  H  H157  1  0.03822511  0.07844119  1.00741086  1
  H  H158  1  0.85955457  0.08413391  1.00472778  1
  H  H159  1  0.66883725  0.90249957  0.50290625  1
  H  H160  1  0.21666780  0.41634945  0.51204218  1
  H  H161  1  0.63078054  0.42208431  0.48274696  1
  H  H162  1  0.13038312  0.08255384  0.48127340  1
  H  H163  1  0.07359208  0.42547613  0.50962207  1
  H  H164  1  0.22169513  0.24739362  0.49087310  1
  H  H165  1  0.34961244  0.75154557  0.49280327  1
  H  H166  1  0.88888385  0.24608822  0.48392343  1
  H  H167  1  0.28588917  0.58110702  0.49435921  1
  H  H168  1  0.57200853  0.24642291  0.00101940  1
  H  H169  1  0.94838283  0.25352941  -0.00460766  1
  H  H170  1  0.10198569  0.58538842  0.49192783  1
  H  H171  1  0.19795737  0.08142253  -0.00311285  1
  H  H172  1  0.86563872  0.08555778  0.48602830  1
  H  H173  1  0.46601619  0.58741088  0.50705456  1
  H  H174  1  0.06408289  0.74954370  0.49964697  1
  H  H175  1  0.36867847  0.25177824  0.51610564  1
  H  H176  1  0.92090025  0.41721797  0.50317814  1
  H  H177  1  0.38210695  0.92051567  0.48363465  1
  H  H178  1  0.35876370  0.08666352  0.01243639  1
  H  H179  1  0.45276666  0.08657019  0.49572620  1
  H  H180  1  0.79637004  0.75139387  -0.00497689  1
  H  H181  1  0.11127476  0.41322522  -0.01018514  1
  H  H182  1  0.53566098  0.91246131  0.51249776  1
  H  H183  1  0.08928760  0.58606334  0.00423795  1
  H  H184  1  0.94241475  0.75577883  1.00410089  1
  H  H185  1  0.41824482  0.41935897  0.49735269  1
  H  H186  1  0.34397867  0.91492683  0.99714399  1
  H  H187  1  0.66281328  0.58402262  0.99592554  1
  H  H188  1  0.61354058  0.58500492  0.48737162  1
  H  H189  1  0.93103943  0.57825723  -0.00261583  1
  H  H190  1  0.69371490  0.25435903  0.49781388  1
  H  H191  1  0.58440694  0.91733903  0.00345657  1
  Pb  Pb192  1  0.24960445  0.04734588  0.74690900  1
  Pb  Pb193  1  0.25700466  0.38362171  0.75332550  1
  Pb  Pb194  1  0.24879287  0.71434478  0.74608560  1
  Pb  Pb195  1  0.75019864  0.04818610  0.75040934  1
  Pb  Pb196  1  0.75111961  0.38110795  0.75455727  1
  Pb  Pb197  1  0.75324761  0.71483138  0.75158334  1
  Pb  Pb198  1  0.24940976  0.28691481  0.25342541  1
  Pb  Pb199  1  0.25346542  0.61813657  0.25602043  1
  Pb  Pb200  1  0.25199690  0.95356977  0.24213829  1
  Pb  Pb201  1  0.75004775  0.28540015  0.24705434  1
  Pb  Pb202  1  0.75256309  0.62015989  0.24671352  1
  Pb  Pb203  1  0.74868711  0.95040911  0.26015974  1
  Pb  Pb204  1  0.00656678  0.21814372  0.75218974  1
  Pb  Pb205  1  -0.00259337  0.54671728  0.75201927  1
  Pb  Pb206  1  0.00200020  0.88164027  0.75062557  1
  Pb  Pb207  1  0.50099819  0.21376952  0.74980422  1
  Pb  Pb208  1  0.50260824  0.55048521  0.74773385  1
  Pb  Pb209  1  0.50012779  0.87993391  0.75138620  1
  Pb  Pb210  1  0.00187146  0.11818407  0.23774444  1
  Pb  Pb211  1  -0.00144097  0.45290800  0.25951378  1
  Pb  Pb212  1  0.00300691  0.78546861  0.24950677  1
  Pb  Pb213  1  0.50314279  0.11969429  0.25896171  1
  Pb  Pb214  1  0.50038458  0.45262230  0.24154558  1
  Pb  Pb215  1  0.50072361  0.78633058  0.24738577  1
  C  C216  1  0.00012146  0.04774360  0.62742769  1
  C  C217  1  0.00101934  0.38055216  0.63525772  1
  C  C218  1  -0.00399871  0.71012076  0.62841889  1
  C  C219  1  0.49671208  0.04589664  0.63536385  1
  C  C220  1  0.50085739  0.37999986  0.62952645  1
  C  C221  1  0.49771586  0.71414572  0.62951954  1
  C  C222  1  0.00293644  0.28948228  0.13394694  1
  C  C223  1  0.00489011  0.62141562  0.12941750  1
  C  C224  1  -0.00124544  0.95392817  0.12548885  1
  C  C225  1  0.50862698  0.28729718  0.13049109  1
  C  C226  1  0.50102482  0.62159385  0.13259141  1
  C  C227  1  0.50165422  0.95712103  0.12742683  1
  C  C228  1  -0.00178248  0.04106162  0.86947917  1
  C  C229  1  0.00012786  0.37991503  0.87004447  1
  C  C230  1  0.00469359  0.71242275  0.86789160  1
  C  C231  1  0.49758639  0.04367594  0.86652276  1
  C  C232  1  0.50979770  0.37880838  0.86792484  1
  C  C233  1  0.50352503  0.71295670  0.87048762  1
  C  C234  1  -0.00565813  0.28734304  0.37066338  1
  C  C235  1  -0.00144845  0.62218600  0.36911751  1
  C  C236  1  -0.00536425  0.95453822  0.36562400  1
  C  C237  1  0.49118946  0.28846761  0.36813101  1
  C  C238  1  0.50979186  0.62352659  0.37149817  1
  C  C239  1  0.49862009  0.95145255  0.36996667  1
  C  C240  1  0.25602746  0.21266362  0.62868169  1
  C  C241  1  0.24983116  0.54497287  0.63317383  1
  C  C242  1  0.25273164  0.87999070  0.62989164  1
  C  C243  1  0.75470552  0.21220372  0.63290229  1
  C  C244  1  0.74580320  0.54627815  0.63040888  1
  C  C245  1  0.75532004  0.87752986  0.63575362  1
  C  C246  1  0.25558361  0.12227963  0.13488157  1
  C  C247  1  0.25110333  0.45553289  0.13493445  1
  C  C248  1  0.24371948  0.78852982  0.13080197  1
  C  C249  1  0.75135467  0.11794311  0.12672126  1
  C  C250  1  0.74832772  0.45429914  0.12827510  1
  C  C251  1  0.75135315  0.79142494  0.12990410  1
  C  C252  1  0.24624418  0.21292653  0.86879002  1
  C  C253  1  0.24736835  0.54521975  0.86840987  1
  C  C254  1  0.24438726  0.87835453  0.87206935  1
  C  C255  1  0.75029883  0.20956168  0.87017799  1
  C  C256  1  0.74599095  0.54517706  0.87150087  1
  C  C257  1  0.75221842  0.87861552  0.87048518  1
  C  C258  1  0.25122344  0.12102177  0.36877034  1
  C  C259  1  0.24919417  0.45235552  0.36781268  1
  C  C260  1  0.25597630  0.78742665  0.36985668  1
  C  C261  1  0.74963812  0.12005286  0.37036262  1
  C  C262  1  0.75249979  0.45460010  0.36759021  1
  C  C263  1  0.75313110  0.78512347  0.37319779  1
  C  C264  1  0.43804131  0.74057132  0.54364726  1
  C  C265  1  0.97635533  0.74237332  0.96334847  1
  C  C266  1  0.79169484  0.89702045  0.53935534  1
  C  C267  1  0.95867546  0.40614095  0.54255960  1
  C  C268  1  0.97412808  0.59362178  0.46499820  1
  C  C269  1  0.44449026  0.26493020  0.45954499  1
  C  C270  1  0.76412122  0.42991225  0.46651492  1
  C  C271  1  0.05738657  0.73996548  0.95687981  1
  C  C272  1  0.21591751  0.90753623  0.96725891  1
  C  C273  1  0.56266296  0.40628160  0.95600468  1
  C  C274  1  0.77152164  0.42212973  0.03245709  1
  C  C275  1  0.96850586  0.59053308  0.03682458  1
  C  C276  1  0.95722311  0.92483181  0.03471381  1
  C  C277  1  0.73469557  0.09103423  0.46717308  1
  C  C278  1  0.24240108  0.42716079  0.46709506  1
  C  C279  1  0.77102820  0.57654898  0.53577935  1
  C  C280  1  0.78336921  0.57612653  0.96512530  1
  C  C281  1  0.68406959  0.43089778  0.45228510  1
  C  C282  1  0.32141420  0.43067355  0.45091688  1
  C  C283  1  0.03774262  0.92395750  0.03430830  1
  C  C284  1  0.81050632  0.09344172  0.03812372  1
  C  C285  1  0.79353470  0.75786144  0.46483253  1
  C  C286  1  0.72767010  0.24079561  0.53855115  1
  C  C287  1  0.05916419  0.93331562  0.45255142  1
  C  C288  1  0.05519208  0.59494430  0.45786140  1
  C  C289  1  0.98001307  0.26296830  0.03841367  1
  C  C290  1  0.27280539  0.42653537  0.03997972  1
  C  C291  1  0.46209208  0.40858171  0.53521002  1
  C  C292  1  0.02597432  0.07541841  0.53186280  1
  C  C293  1  0.47376850  0.59179629  0.03881881  1
  C  C294  1  0.94518773  0.07229093  0.53796903  1
  C  C295  1  0.98184360  0.40856804  0.96663762  1
  C  C296  1  0.72982515  0.09129319  0.02988691  1
  C  C297  1  0.29972917  0.90767090  0.53961066  1
  C  C298  1  0.31197826  0.09610184  0.04629067  1
  C  C299  1  0.18275074  0.09158208  0.45038253  1
  C  C300  1  0.70978146  0.89640268  0.54163087  1
  C  C301  1  0.71306431  0.75828600  0.46508170  1
  C  C302  1  0.93553296  0.07097640  0.95411378  1
  C  C303  1  0.27459092  0.57789513  0.96182234  1
  C  C304  1  0.51063045  0.92425695  0.46751369  1
  C  C305  1  0.97864851  0.93087951  0.46451773  1
  C  C306  1  0.06223392  0.40494023  0.95722977  1
  C  C307  1  0.54362339  0.40737606  0.53681541  1
  C  C308  1  0.29738827  0.90558096  0.96222396  1
  C  C309  1  0.48096115  0.07396639  0.53942294  1
  C  C310  1  0.23037470  0.09396311  0.03862116  1
  C  C311  1  0.46410112  0.92349229  0.03504514  1
  N  N312  1  0.51424662  0.74414593  0.53186684  1
  N  N313  1  0.69772939  0.90805776  0.95821039  1
  N  N314  1  0.28733905  0.23943868  0.95896236  1
  N  N315  1  0.43312775  0.92695924  0.45358985  1
  N  N316  1  0.26247106  0.57391737  0.53859179  1
  N  N317  1  0.53730129  0.25583013  0.03920241  1
  N  N318  1  0.54323380  0.92550982  0.03782903  1
  N  N319  1  0.20940052  0.24058349  0.96279971  1
  N  N320  1  0.19712643  0.57603968  0.95853827  1
  N  N321  1  0.02982991  0.74045291  0.53782442  1
  N  N322  1  0.81272686  0.09362480  0.45488413  1
  N  N323  1  0.01340748  0.07337656  0.96367668  1
  N  N324  1  0.55301907  0.59345786  0.04227166  1
  N  N325  1  0.30448953  0.75860977  0.45749404  1
  N  N326  1  0.19420008  0.42678516  0.04730380  1
  N  N327  1  0.56758266  0.60123672  0.45808869  1
  N  N328  1  0.18584530  0.57014446  0.54817069  1
  N  N329  1  0.29836201  0.76133394  0.04210640  1
  N  N330  1  0.69351477  0.42601715  0.04133283  1
  N  N331  1  0.76057619  0.24289891  0.96338477  1
  N  N332  1  0.31969631  0.23593745  0.54500064  1
  N  N333  1  0.03838457  0.40516582  0.54221398  1
  N  N334  1  0.49095327  0.58651695  0.46298331  1
  N  N335  1  0.26072146  0.08758006  0.46330417  1
  N  N336  1  0.77354049  0.91044750  0.96553242  1
  N  N337  1  0.48559889  0.40959689  0.96421506  1
  N  N338  1  0.52185739  0.26293966  0.46505576  1
  N  N339  1  0.05874802  0.26241650  0.04474790  1
  N  N340  1  0.69328259  0.75865135  0.04474145  1
  N  N341  1  0.04818470  0.59124728  0.03964863  1
  N  N342  1  0.70428247  0.57549308  0.96173134  1
  N  N343  1  0.80670070  0.23701875  0.54190175  1
  N  N344  1  0.45888529  0.25848334  0.04050070  1
  N  N345  1  0.22651561  0.75682784  0.46413066  1
  N  N346  1  0.45707764  0.74122825  0.95855600  1
  N  N347  1  0.53489680  0.74329976  0.96469538  1
  N  N348  1  0.55931666  0.07024648  0.54801449  1
  N  N349  1  0.68379341  0.23836106  0.95323703  1
  N  N350  1  0.52805855  0.07558297  0.96001633  1
  N  N351  1  0.24309628  0.24888552  0.53627872  1
  N  N352  1  0.93464965  0.26364653  0.45609597  1
  N  N353  1  0.01151677  0.24980364  0.46216359  1
  N  N354  1  0.95197790  0.73883018  0.53693558  1
  N  N355  1  0.77073657  0.75749166  0.03804762  1
  N  N356  1  0.69384652  0.57346155  0.53990372  1
  N  N357  1  0.45210870  0.07445293  0.95661687  1
  N  N358  1  0.22200399  0.90989179  0.53435247  1
  N  N359  1  0.22268639  0.75974165  0.03449053  1
  N  N360  1  0.05906467  0.06059157  0.58684800  1
  N  N361  1  0.06433558  0.39299864  0.60063304  1
  N  N362  1  0.05853845  0.72200079  0.59274968  1
  N  N363  1  0.56706792  0.05312026  0.60770438  1
  N  N364  1  0.56670860  0.39028723  0.59404712  1
  N  N365  1  0.55160098  0.72722711  0.58676720  1
  N  N366  1  0.44204283  0.27704405  0.09806828  1
  N  N367  1  0.44055055  0.60887548  0.09372450  1
  N  N368  1  0.43833115  0.94244920  0.09075019  1
  N  N369  1  0.94404637  0.27892861  0.09291517  1
  N  N370  1  0.94149134  0.60837769  0.09284087  1
  N  N371  1  0.93299405  0.94282193  0.09040338  1
  N  N372  1  0.43147155  0.05449578  0.89889613  1
  N  N373  1  0.45290910  0.39197248  0.90817287  1
  N  N374  1  0.43650898  0.72246121  0.90174929  1
  N  N375  1  0.92580049  0.05280942  0.89524124  1
  N  N376  1  0.94455006  0.39339836  0.91414782  1
  N  N377  1  0.94438280  0.72468491  0.90671697  1
  N  N378  1  0.04929802  0.27474310  0.41325603  1
  N  N379  1  0.06896240  0.61242885  0.39696447  1
  N  N380  1  0.06739751  0.94775288  0.39117956  1
  N  N381  1  0.55080199  0.27810889  0.40687283  1
  N  N382  1  0.58014510  0.61514079  0.39872774  1
  N  N383  1  0.55184282  0.93947348  0.41574507  1
  N  N384  1  0.32805803  0.22278412  0.60491871  1
  N  N385  1  0.30309316  0.55556620  0.58891244  1
  N  N386  1  0.32068439  0.89028726  0.59798140  1
  N  N387  1  0.82214175  0.21980822  0.60139241  1
  N  N388  1  0.80502487  0.55966022  0.58993672  1
  N  N389  1  0.81881170  0.88562209  0.59822513  1
  N  N390  1  0.19682641  0.11040066  0.09414133  1
  N  N391  1  0.18206888  0.44484523  0.10654620  1
  N  N392  1  0.18738333  0.77703678  0.08894992  1
  N  N393  1  0.69414710  0.10610214  0.08314328  1
  N  N394  1  0.67880879  0.44605896  0.10034466  1
  N  N395  1  0.68185262  0.77804528  0.10271398  1
  N  N396  1  0.18425831  0.22436230  0.90615502  1
  N  N397  1  0.18017341  0.55531135  0.89904306  1
  N  N398  1  0.18415421  0.89117659  0.91285156  1
  N  N399  1  0.67825132  0.21964250  0.89449567  1
  N  N400  1  0.68059071  0.55576188  0.90424034  1
  N  N401  1  0.68320376  0.88839584  0.89917729  1
  N  N402  1  0.30293985  0.10918300  0.41372056  1
  N  N403  1  0.32452833  0.44527857  0.39080342  1
  N  N404  1  0.32337376  0.77749974  0.40050212  1
  N  N405  1  0.82109618  0.11130835  0.39530055  1
  N  N406  1  0.80577444  0.44469820  0.41323869  1
  N  N407  1  0.81855745  0.77410776  0.40880826  1
  N  N408  1  0.42293404  0.27974114  0.40035592  1
  N  N409  1  0.45395719  0.61031553  0.41320960  1
  N  N410  1  0.42628135  0.94349786  0.39354454  1
  N  N411  1  0.92336758  0.27750634  0.39642867  1
  N  N412  1  0.94031840  0.61008708  0.41155486  1
  N  N413  1  0.93946199  0.94402212  0.40980177  1
  N  N414  1  0.05291835  0.05136221  0.91254199  1
  N  N415  1  0.07217127  0.38731326  0.89608743  1
  N  N416  1  0.07407198  0.72221118  0.89922469  1
  N  N417  1  0.55790653  0.05659394  0.90432961  1
  N  N418  1  0.57994771  0.38830131  0.89712103  1
  N  N419  1  0.56338230  0.72601746  0.90933947  1
  N  N420  1  0.07123934  0.27897517  0.10419768  1
  N  N421  1  0.07036848  0.61217866  0.09609110  1
  N  N422  1  0.06351052  0.94148530  0.08977090  1
  N  N423  1  0.56901429  0.27437005  0.09299565  1
  N  N424  1  0.56820997  0.61204545  0.10138322  1
  N  N425  1  0.56700526  0.94735137  0.09438124  1
  N  N426  1  0.44097608  0.05896226  0.59247262  1
  N  N427  1  0.43685024  0.39150113  0.59453199  1
  N  N428  1  0.42536647  0.72312221  0.60338581  1
  N  N429  1  0.93031648  0.05546470  0.59731277  1
  N  N430  1  0.93512848  0.38965805  0.59980457  1
  N  N431  1  0.93128617  0.72083723  0.59370577  1
  N  N432  1  0.17718583  0.11047881  0.39131483  1
  N  N433  1  0.19804631  0.44079537  0.41386438  1
  N  N434  1  0.19694899  0.77412151  0.40913125  1
  N  N435  1  0.69494878  0.10736165  0.41486387  1
  N  N436  1  0.67901564  0.44595105  0.39079646  1
  N  N437  1  0.68795212  0.77484882  0.40915019  1
  N  N438  1  0.31142646  0.22259977  0.90226527  1
  N  N439  1  0.30767849  0.55916980  0.90769779  1
  N  N440  1  0.31347817  0.88755835  0.90178884  1
  N  N441  1  0.80253482  0.22286372  0.91423236  1
  N  N442  1  0.80931288  0.55766956  0.90913266  1
  N  N443  1  0.80873366  0.89202024  0.91154042  1
  N  N444  1  0.32600489  0.11341871  0.10618429  1
  N  N445  1  0.30912677  0.44378462  0.09350667  1
  N  N446  1  0.31259131  0.77840442  0.10215987  1
  N  N447  1  0.82250663  0.11031655  0.09953181  1
  N  N448  1  0.80587169  0.43956772  0.08625965  1
  N  N449  1  0.80788235  0.77985571  0.08850725  1
  N  N450  1  0.20297924  0.22437666  0.58436193  1
  N  N451  1  0.17837442  0.55426571  0.60747468  1
  N  N452  1  0.19293760  0.89211484  0.59178057  1
  N  N453  1  0.69448860  0.22546371  0.59393501  1
  N  N454  1  0.67768966  0.55447636  0.60021216  1
  N  N455  1  0.68845663  0.88448161  0.60179352  1
  Cl  Cl456  1  0.25444896  0.06248998  0.60514030  1
  Cl  Cl457  1  0.24767401  0.38439198  0.61744779  1
  Cl  Cl458  1  0.24212080  0.72121671  0.61340578  1
  Cl  Cl459  1  0.74853581  0.05509081  0.61683914  1
  Cl  Cl460  1  0.75206041  0.38786142  0.62136309  1
  Cl  Cl461  1  0.74412267  0.71767444  0.61882066  1
  Cl  Cl462  1  0.25920856  0.27977620  0.12127611  1
  Cl  Cl463  1  0.25361383  0.61100190  0.12383934  1
  Cl  Cl464  1  0.25223871  0.94495771  0.10990377  1
  Cl  Cl465  1  0.75666659  0.27525775  0.10323096  1
  Cl  Cl466  1  0.75516544  0.60952881  0.11128781  1
  Cl  Cl467  1  0.74842844  0.94830196  0.12793095  1
  Cl  Cl468  1  0.23835035  0.05790895  0.88177323  1
  Cl  Cl469  1  0.26811670  0.38993749  0.88773837  1
  Cl  Cl470  1  0.25671386  0.71545933  0.87747983  1
  Cl  Cl471  1  0.74257795  0.05604417  0.88293960  1
  Cl  Cl472  1  0.76162557  0.38977963  0.89008710  1
  Cl  Cl473  1  0.75553452  0.72208586  0.89303496  1
  Cl  Cl474  1  0.23262432  0.26737471  0.39560363  1
  Cl  Cl475  1  0.27240214  0.60323755  0.39926573  1
  Cl  Cl476  1  0.24846711  0.95238010  0.37364958  1
  Cl  Cl477  1  0.73775285  0.27599335  0.38190634  1
  Cl  Cl478  1  0.75908421  0.61584401  0.37990843  1
  Cl  Cl479  1  0.74437199  0.94232144  0.39576556  1
  Cl  Cl480  1  0.02008286  0.23390011  0.60419636  1
  Cl  Cl481  1  -0.00927142  0.55197674  0.61959903  1
  Cl  Cl482  1  0.00541198  0.88821229  0.61496680  1
  Cl  Cl483  1  0.50958239  0.21931899  0.61879296  1
  Cl  Cl484  1  0.48635985  0.56562898  0.60477236  1
  Cl  Cl485  1  0.50362419  0.88708823  0.61664887  1
  Cl  Cl486  1  0.01379286  0.10248819  0.10180045  1
  Cl  Cl487  1  -0.00789089  0.44668580  0.12696515  1
  Cl  Cl488  1  -0.00497888  0.77775359  0.11205897  1
  Cl  Cl489  1  0.51246251  0.11230082  0.12721854  1
  Cl  Cl490  1  0.49470317  0.44559211  0.11130305  1
  Cl  Cl491  1  0.49526964  0.78377214  0.11408053  1
  Cl  Cl492  1  -0.01119255  0.22406438  0.88811275  1
  Cl  Cl493  1  -0.00635099  0.55595751  0.88811204  1
  Cl  Cl494  1  -0.00348768  0.88876595  0.88404392  1
  Cl  Cl495  1  0.49469459  0.22459042  0.88430343  1
  Cl  Cl496  1  0.49412324  0.55724806  0.88136430  1
  Cl  Cl497  1  0.50034507  0.88839370  0.88458284  1
  Cl  Cl498  1  -0.00110483  0.11944629  0.36864088  1
  Cl  Cl499  1  0.00458813  0.44213840  0.40097947  1
  Cl  Cl500  1  0.01340141  0.77391444  0.38570392  1
  Cl  Cl501  1  0.49262542  0.10847438  0.39520812  1
  Cl  Cl502  1  0.50125655  0.45372639  0.37199395  1
  Cl  Cl503  1  0.50378174  0.78319057  0.37842463  1
  Cl  Cl504  1  0.36134471  0.14837392  0.74573977  1
  Cl  Cl505  1  0.35411816  0.48179378  0.74767047  1
  Cl  Cl506  1  0.36075367  0.81504908  0.75028236  1
  Cl  Cl507  1  0.85831732  0.14893697  0.74553180  1
  Cl  Cl508  1  0.85436649  0.48626538  0.75260358  1
  Cl  Cl509  1  0.85547324  0.81313666  0.75129721  1
  Cl  Cl510  1  0.13894777  0.18593584  0.25023872  1
  Cl  Cl511  1  0.13843553  0.51872331  0.25075928  1
  Cl  Cl512  1  0.14272213  0.85173711  0.25456414  1
  Cl  Cl513  1  0.64695425  0.18045279  0.24841638  1
  Cl  Cl514  1  0.63645931  0.52099328  0.24501940  1
  Cl  Cl515  1  0.64152002  0.84925483  0.24695874  1
  Cl  Cl516  1  0.14190312  0.15095325  0.74520346  1
  Cl  Cl517  1  0.13304792  0.47725594  0.74752337  1
  Cl  Cl518  1  0.14082280  0.81710791  0.75097023  1
  Cl  Cl519  1  0.63817324  0.14780278  0.75415857  1
  Cl  Cl520  1  0.63554684  0.48032270  0.74631848  1
  Cl  Cl521  1  0.63495193  0.81188076  0.75574895  1
  Cl  Cl522  1  0.36052884  0.18632045  0.25193644  1
  Cl  Cl523  1  0.36113302  0.51620782  0.25198991  1
  Cl  Cl524  1  0.36322181  0.85314821  0.25168130  1
  Cl  Cl525  1  0.86653455  0.18734198  0.24578714  1
  Cl  Cl526  1  0.85696557  0.51505361  0.24768971  1
  Cl  Cl527  1  0.86142470  0.84916302  0.25836302  1
  Cl  Cl528  1  0.11048899  0.31122824  0.76024401  1
  Cl  Cl529  1  0.11274971  0.64507131  0.74764208  1
  Cl  Cl530  1  0.10727644  0.98508957  0.74771600  1
  Cl  Cl531  1  0.61359878  0.31401953  0.75451340  1
  Cl  Cl532  1  0.60347236  0.64612556  0.74950983  1
  Cl  Cl533  1  0.61416468  0.97905726  0.74147692  1
  Cl  Cl534  1  0.38905506  0.02023523  0.25134370  1
  Cl  Cl535  1  0.38899713  0.35187556  0.25367717  1
  Cl  Cl536  1  0.39287583  0.68324480  0.25441664  1
  Cl  Cl537  1  0.89273532  0.01929523  0.24596318  1
  Cl  Cl538  1  0.88626628  0.35189482  0.26184581  1
  Cl  Cl539  1  0.89643382  0.68128434  0.24546780  1
  Cl  Cl540  1  0.39286406  0.31644335  0.74586477  1
  Cl  Cl541  1  0.38437364  0.64717986  0.74483789  1
  Cl  Cl542  1  0.38884445  0.98165364  0.75370971  1
  Cl  Cl543  1  0.89232702  0.31740231  0.74831985  1
  Cl  Cl544  1  0.89326108  0.65190335  0.75120559  1
  Cl  Cl545  1  0.88597430  0.98037042  0.74680831  1
  Cl  Cl546  1  0.11263838  0.01839772  0.25057925  1
  Cl  Cl547  1  0.10794623  0.35079253  0.24838099  1
  Cl  Cl548  1  0.11607122  0.68459496  0.25661287  1
  Cl  Cl549  1  0.60915401  0.01539872  0.25747698  1
  Cl  Cl550  1  0.61108765  0.35144637  0.24810700  1
  Cl  Cl551  1  0.61257467  0.68522084  0.24766882  1
