# generated using pymatgen
data_H8PbC4(N3Cl2)2
_symmetry_space_group_name_H-M   'P 1'
_cell_length_a   16.62071303
_cell_length_b   22.50115074
_cell_length_c   21.58838516
_cell_angle_alpha   89.99940233
_cell_angle_beta   90.00914076
_cell_angle_gamma   89.99653792
_symmetry_Int_Tables_number   1
_chemical_formula_structural   H8PbC4(N3Cl2)2
_chemical_formula_sum   'H192 Pb24 C96 N144 Cl96'
_cell_volume   8073.73576211
_cell_formula_units_Z   24
loop_
 _symmetry_equiv_pos_site_id
 _symmetry_equiv_pos_as_xyz
  1  'x, y, z'
loop_
 _atom_site_type_symbol
 _atom_site_label
 _atom_site_symmetry_multiplicity
 _atom_site_fract_x
 _atom_site_fract_y
 _atom_site_fract_z
 _atom_site_occupancy
  H  H0  1  -0.00100302  0.03338208  0.67723237  1
  H  H1  1  -0.00128530  0.36598484  0.68071428  1
  H  H2  1  0.00262119  0.69771241  0.68282047  1
  H  H3  1  0.50598761  0.03178169  0.67837582  1
  H  H4  1  0.50272199  0.36710624  0.68199763  1
  H  H5  1  0.50000252  0.69878728  0.68189465  1
  H  H6  1  -0.00588706  0.30105230  0.17883503  1
  H  H7  1  -0.00125332  0.63438291  0.17930710  1
  H  H8  1  -0.00354589  0.96832434  0.17850689  1
  H  H9  1  0.51040112  0.30153915  0.18132650  1
  H  H10  1  0.49939744  0.63500017  0.18248303  1
  H  H11  1  0.50615479  0.96789364  0.17928066  1
  H  H12  1  0.00558758  0.03277110  0.81843642  1
  H  H13  1  -0.00005463  0.36462620  0.81832527  1
  H  H14  1  -0.00710028  0.69821184  0.82210354  1
  H  H15  1  0.50095669  0.03295612  0.82210771  1
  H  H16  1  0.50044271  0.36559633  0.82130371  1
  H  H17  1  0.50097176  0.69850311  0.81840957  1
  H  H18  1  -0.00884702  0.30086806  0.31914272  1
  H  H19  1  0.00240148  0.63381682  0.31697721  1
  H  H20  1  -0.00441599  0.96987287  0.31992275  1
  H  H21  1  0.50407091  0.30344017  0.31864677  1
  H  H22  1  0.49598865  0.63449076  0.31677037  1
  H  H23  1  0.49664273  0.96691049  0.31898000  1
  H  H24  1  0.25440407  0.19790510  0.68223643  1
  H  H25  1  0.25886407  0.53307303  0.68241562  1
  H  H26  1  0.25554307  0.86699207  0.68240550  1
  H  H27  1  0.74484771  0.19708161  0.68185236  1
  H  H28  1  0.75167518  0.53224197  0.68340997  1
  H  H29  1  0.74940589  0.86719988  0.68121045  1
  H  H30  1  0.24449239  0.13420941  0.17967718  1
  H  H31  1  0.24730057  0.46876370  0.17993665  1
  H  H32  1  0.24982910  0.80171017  0.17744658  1
  H  H33  1  0.75315281  0.13524743  0.17773885  1
  H  H34  1  0.74850046  0.46791890  0.18114442  1
  H  H35  1  0.75434594  0.80154776  0.18175806  1
  H  H36  1  0.25022415  0.19755473  0.82028039  1
  H  H37  1  0.24859147  0.53174450  0.81828873  1
  H  H38  1  0.24340990  0.86580384  0.82158414  1
  H  H39  1  0.74719165  0.19807274  0.82097309  1
  H  H40  1  0.75265756  0.53266454  0.82159613  1
  H  H41  1  0.75329752  0.86410344  0.82059097  1
  H  H42  1  0.24684239  0.13409815  0.32171697  1
  H  H43  1  0.25104693  0.46779831  0.31829398  1
  H  H44  1  0.23863559  0.79974697  0.31728977  1
  H  H45  1  0.74753046  0.13323623  0.32100751  1
  H  H46  1  0.75180355  0.46805561  0.31973255  1
  H  H47  1  0.75782624  0.80073149  0.32059181  1
  H  H48  1  0.12107134  0.05391268  0.60677601  1
  H  H49  1  0.12325154  0.38809991  0.60945122  1
  H  H50  1  0.12716523  0.72027895  0.61316892  1
  H  H51  1  0.61388978  0.05737172  0.59491202  1
  H  H52  1  0.62782196  0.38793306  0.60989276  1
  H  H53  1  0.62535875  0.72261774  0.61075864  1
  H  H54  1  0.37225223  0.28402550  0.12547804  1
  H  H55  1  0.37743644  0.61242136  0.10750780  1
  H  H56  1  0.37520534  0.94819028  0.11479308  1
  H  H57  1  0.87865621  0.27662451  0.09953563  1
  H  H58  1  0.87586786  0.61187189  0.10710611  1
  H  H59  1  0.88117962  0.94307562  0.09993234  1
  H  H60  1  0.37448788  0.05232028  0.88975766  1
  H  H61  1  0.37458991  0.38760489  0.89100651  1
  H  H62  1  0.37527359  0.72037642  0.88644640  1
  H  H63  1  0.87551403  0.05472302  0.88562839  1
  H  H64  1  0.87548999  0.38583527  0.88781109  1
  H  H65  1  0.87954606  0.72242884  0.90119344  1
  H  H66  1  0.12677748  0.28191347  0.37948073  1
  H  H67  1  0.12802497  0.61285040  0.38701452  1
  H  H68  1  0.13011175  0.94927745  0.37944813  1
  H  H69  1  0.62631559  0.27703522  0.39153405  1
  H  H70  1  0.62743742  0.61420971  0.37919857  1
  H  H71  1  0.62917643  0.94761736  0.38402130  1
  H  H72  1  0.36993321  0.22253457  0.60441395  1
  H  H73  1  0.36787680  0.55563719  0.60145479  1
  H  H74  1  0.36496369  0.88935228  0.60093505  1
  H  H75  1  0.87360782  0.21975645  0.61407265  1
  H  H76  1  0.87304909  0.55364622  0.60980143  1
  H  H77  1  0.86761165  0.88977411  0.60764409  1
  H  H78  1  0.13109339  0.10928255  0.09975733  1
  H  H79  1  0.12570926  0.44580214  0.10731909  1
  H  H80  1  0.12252937  0.77972331  0.10933933  1
  H  H81  1  0.62402636  0.11584226  0.11144903  1
  H  H82  1  0.62608109  0.44542466  0.11093500  1
  H  H83  1  0.62577660  0.78121538  0.11200844  1
  H  H84  1  0.12441063  0.22098074  0.88956862  1
  H  H85  1  0.12500316  0.55478170  0.89105276  1
  H  H86  1  0.12456348  0.88874313  0.89685773  1
  H  H87  1  0.62824930  0.22215119  0.89660664  1
  H  H88  1  0.62415273  0.55315410  0.88885948  1
  H  H89  1  0.62104980  0.88768919  0.88300216  1
  H  H90  1  0.37898418  0.11228964  0.38678672  1
  H  H91  1  0.37320310  0.44559000  0.39039921  1
  H  H92  1  0.37761322  0.78347572  0.37212757  1
  H  H93  1  0.88099362  0.11354315  0.38333909  1
  H  H94  1  0.87408452  0.44453452  0.39117521  1
  H  H95  1  0.86815081  0.77399317  0.40206883  1
  H  H96  1  0.37683519  0.28037636  0.38494111  1
  H  H97  1  0.37845317  0.61305726  0.39228917  1
  H  H98  1  0.38114298  0.94293442  0.39828896  1
  H  H99  1  0.88036288  0.27515902  0.40204219  1
  H  H100  1  0.87894378  0.61186972  0.38960897  1
  H  H101  1  0.88218162  0.94486897  0.39988830  1
  H  H102  1  0.12382156  0.05471562  0.89711249  1
  H  H103  1  0.12497203  0.38629974  0.88713859  1
  H  H104  1  0.12724163  0.72010188  0.88310228  1
  H  H105  1  0.62316843  0.05404189  0.89300456  1
  H  H106  1  0.62406292  0.38800313  0.89222318  1
  H  H107  1  0.62491868  0.71892758  0.88887691  1
  H  H108  1  0.12638070  0.28039773  0.11659194  1
  H  H109  1  0.12483111  0.61261154  0.10921383  1
  H  H110  1  0.12941814  0.94740996  0.11701508  1
  H  H111  1  0.61917229  0.27746088  0.10056679  1
  H  H112  1  0.62588812  0.61188966  0.11192928  1
  H  H113  1  0.62325824  0.94417770  0.10099492  1
  H  H114  1  0.36766833  0.05168470  0.62418920  1
  H  H115  1  0.37952113  0.38828466  0.60900758  1
  H  H116  1  0.37655930  0.72083838  0.61067055  1
  H  H117  1  0.87254748  0.05385687  0.61078501  1
  H  H118  1  0.87485882  0.38829148  0.60806336  1
  H  H119  1  0.87737849  0.72285134  0.61219476  1
  H  H120  1  0.13087974  0.11048813  0.40047945  1
  H  H121  1  0.12344298  0.44613053  0.38753897  1
  H  H122  1  0.13138952  0.77714032  0.39987360  1
  H  H123  1  0.63230158  0.10861394  0.39971326  1
  H  H124  1  0.62515664  0.44517617  0.38896705  1
  H  H125  1  0.62121200  0.78468106  0.38052730  1
  H  H126  1  0.37393486  0.22015474  0.89065355  1
  H  H127  1  0.37419801  0.55296935  0.88837156  1
  H  H128  1  0.37319629  0.88620584  0.88428605  1
  H  H129  1  0.87732049  0.22064146  0.88504744  1
  H  H130  1  0.87328784  0.55535720  0.89529362  1
  H  H131  1  0.86883706  0.88866074  0.90040241  1
  H  H132  1  0.37859778  0.11416522  0.11661243  1
  H  H133  1  0.37465917  0.44505109  0.11164909  1
  H  H134  1  0.37167559  0.77864858  0.10521008  1
  H  H135  1  0.87218265  0.10830838  0.10378452  1
  H  H136  1  0.87555811  0.44783460  0.11260238  1
  H  H137  1  0.87428758  0.77799708  0.10549016  1
  H  H138  1  0.12159395  0.21764609  0.61711458  1
  H  H139  1  0.12076902  0.55015059  0.62610733  1
  H  H140  1  0.11713125  0.88574107  0.62556494  1
  H  H141  1  0.62359007  0.22115892  0.60951266  1
  H  H142  1  0.62380397  0.55330151  0.61363511  1
  H  H143  1  0.61851583  0.88665565  0.61641279  1
  H  H144  1  0.81463315  0.09332224  -0.00021220  1
  H  H145  1  0.91688728  0.41526797  0.99791629  1
  H  H146  1  0.92682358  0.41706540  0.50438734  1
  H  H147  1  0.82820926  0.24079877  0.50614720  1
  H  H148  1  0.57753467  0.41740523  0.50613100  1
  H  H149  1  0.32458415  0.41884673  0.50043921  1
  H  H150  1  0.34074700  0.91728230  0.99755104  1
  H  H151  1  0.66722394  0.58202101  0.99510744  1
  H  H152  1  0.41972698  0.25571873  0.49869704  1
  H  H153  1  0.69711737  0.07995810  0.50246491  1
  H  H154  1  0.16832618  0.24822016  0.99522626  1
  H  H155  1  0.64996849  0.74963612  0.48583952  1
  H  H156  1  0.33161515  0.25055534  1.00014755  1
  H  H157  1  0.20076826  0.75221693  0.50709795  1
  H  H158  1  0.08012567  0.74501523  0.50096802  1
  H  H159  1  0.58065738  0.74851608  0.99875957  1
  H  H160  1  0.66127950  0.07844528  0.01097620  1
  H  H161  1  0.92787278  0.73806032  0.50393218  1
  H  H162  1  0.16704023  0.41916120  0.49279126  1
  H  H163  1  0.34303993  0.08572080  0.49404491  1
  H  H164  1  0.16578123  0.75115080  0.00372420  1
  H  H165  1  0.42136112  0.74980355  0.50161530  1
  H  H166  1  0.56973158  0.26397895  0.49951502  1
  H  H167  1  0.54103950  0.08109520  0.49381334  1
  H  H168  1  0.95356155  0.24825587  0.50224491  1
  H  H169  1  0.80122995  0.91179225  1.00292185  1
  H  H170  1  0.34548032  0.08460646  0.01108879  1
  H  H171  1  0.32646656  0.58168156  0.99771221  1
  H  H172  1  0.81271158  0.91750873  0.49619692  1
  H  H173  1  0.42103824  0.41605274  0.99621808  1
  H  H174  1  0.08503674  0.58382292  0.49688032  1
  H  H175  1  0.30056673  0.58374327  0.49402176  1
  H  H176  1  0.94838985  0.92820554  0.50391571  1
  H  H177  1  0.44733752  0.91542248  0.50040178  1
  H  H178  1  0.67157092  0.41725042  -0.00032527  1
  H  H179  1  0.55138333  0.24872975  -0.00658894  1
  H  H180  1  0.08342640  0.41617959  0.99764462  1
  H  H181  1  0.79555913  0.76217774  0.50565114  1
  H  H182  1  0.30620204  0.24652486  0.49604590  1
  H  H183  1  0.68863043  0.25022599  1.00087273  1
  H  H184  1  0.41498254  0.74842082  0.99736203  1
  H  H185  1  0.94647680  0.91603412  -0.00318000  1
  H  H186  1  0.82035934  0.58029374  0.50107999  1
  H  H187  1  0.67843581  0.24252295  0.49675408  1
  H  H188  1  0.10535625  0.91914059  0.49214459  1
  H  H189  1  0.43365287  0.58721349  0.50226036  1
  H  H190  1  0.29802376  0.91500764  0.49323242  1
  H  H191  1  0.59531785  0.58586726  0.49192369  1
  Pb  Pb192  1  0.24705540  0.04468029  0.75254865  1
  Pb  Pb193  1  0.24503057  0.38170287  0.74550754  1
  Pb  Pb194  1  0.24761492  0.71256715  0.75148764  1
  Pb  Pb195  1  0.74309688  0.04878391  0.74805265  1
  Pb  Pb196  1  0.74879185  0.37841379  0.75024755  1
  Pb  Pb197  1  0.74614995  0.71363293  0.74647111  1
  Pb  Pb198  1  0.24942245  0.28652998  0.24881817  1
  Pb  Pb199  1  0.25441618  0.61984728  0.24938625  1
  Pb  Pb200  1  0.24969744  0.95288878  0.25117828  1
  Pb  Pb201  1  0.75309272  0.28519457  0.24753965  1
  Pb  Pb202  1  0.74772337  0.61864079  0.24686731  1
  Pb  Pb203  1  0.75701141  0.95256512  0.24691290  1
  Pb  Pb204  1  -0.00071064  0.21150847  0.74551978  1
  Pb  Pb205  1  -0.00574811  0.54775287  0.75225277  1
  Pb  Pb206  1  -0.00762546  0.88124685  0.75263556  1
  Pb  Pb207  1  0.49370260  0.21481889  0.74783462  1
  Pb  Pb208  1  0.49871883  0.54529134  0.74777410  1
  Pb  Pb209  1  0.49512583  0.88024595  0.74478919  1
  Pb  Pb210  1  0.00321389  0.12196336  0.24722965  1
  Pb  Pb211  1  0.00069320  0.45477299  0.25030971  1
  Pb  Pb212  1  0.00049619  0.78187577  0.25478281  1
  Pb  Pb213  1  0.50293584  0.11779700  0.25447432  1
  Pb  Pb214  1  0.49917478  0.45156076  0.25005168  1
  Pb  Pb215  1  0.50161820  0.78922758  0.24550120  1
  C  C216  1  -0.00259010  0.04738890  0.62929153  1
  C  C217  1  -0.00137764  0.38095398  0.63299770  1
  C  C218  1  0.00166843  0.71292011  0.63497932  1
  C  C219  1  0.49595384  0.04638436  0.63111730  1
  C  C220  1  0.50369932  0.38116603  0.63391629  1
  C  C221  1  0.50092569  0.71369851  0.63408194  1
  C  C222  1  -0.00055155  0.28631030  0.13134708  1
  C  C223  1  0.00005483  0.61972875  0.13169273  1
  C  C224  1  0.00207215  0.95356734  0.13105044  1
  C  C225  1  0.50065141  0.28777076  0.13383134  1
  C  C226  1  0.50089944  0.62010055  0.13473568  1
  C  C227  1  0.50179820  0.95388489  0.13150483  1
  C  C228  1  0.00156674  0.04683415  0.86639860  1
  C  C229  1  0.00019927  0.37952260  0.86616447  1
  C  C230  1  0.00025356  0.71349157  0.86922004  1
  C  C231  1  0.49961160  0.04649510  0.87021527  1
  C  C232  1  0.49924822  0.38060342  0.86899912  1
  C  C233  1  0.50042643  0.71284680  0.86641799  1
  C  C234  1  -0.00087061  0.28658015  0.36672585  1
  C  C235  1  0.00309325  0.61942781  0.36490818  1
  C  C236  1  0.00239014  0.95504595  0.36760874  1
  C  C237  1  0.50311249  0.28750913  0.36616884  1
  C  C238  1  0.50092944  0.62009003  0.36463230  1
  C  C239  1  0.50220898  0.95234518  0.36670147  1
  C  C240  1  0.24839473  0.21279069  0.63471311  1
  C  C241  1  0.24925461  0.54659296  0.63482301  1
  C  C242  1  0.24616272  0.88027326  0.63467965  1
  C  C243  1  0.74791815  0.21254132  0.63415852  1
  C  C244  1  0.74926469  0.54670642  0.63549551  1
  C  C245  1  0.74542861  0.88090346  0.63323187  1
  C  C246  1  0.25175866  0.11930857  0.13222884  1
  C  C247  1  0.24949611  0.45348390  0.13256696  1
  C  C248  1  0.24758371  0.78639702  0.12990076  1
  C  C249  1  0.74985285  0.11963931  0.13012926  1
  C  C250  1  0.74960437  0.45360541  0.13328233  1
  C  C251  1  0.75141921  0.78703995  0.13390656  1
  C  C252  1  0.24916830  0.21283591  0.86805240  1
  C  C253  1  0.24914227  0.54656797  0.86600285  1
  C  C254  1  0.24764380  0.88023302  0.86931368  1
  C  C255  1  0.75059942  0.21310890  0.86849522  1
  C  C256  1  0.74966149  0.54723323  0.86933617  1
  C  C257  1  0.74824097  0.87927967  0.86805752  1
  C  C258  1  0.25281629  0.11922282  0.36930788  1
  C  C259  1  0.24873570  0.45315307  0.36624320  1
  C  C260  1  0.24908539  0.78658835  0.36491902  1
  C  C261  1  0.75331962  0.11887762  0.36866384  1
  C  C262  1  0.75006611  0.45287564  0.36712725  1
  C  C263  1  0.74894664  0.78680970  0.36844123  1
  C  C264  1  0.80065225  0.24144121  0.95927850  1
  C  C265  1  0.43418408  0.07287792  0.54447014  1
  C  C266  1  0.69572542  0.90550097  0.54205912  1
  C  C267  1  0.03472654  0.07288536  0.53618275  1
  C  C268  1  0.18624863  0.90291098  0.54672121  1
  C  C269  1  0.78682828  0.57414736  0.96422239  1
  C  C270  1  0.77705944  0.90680826  0.53700489  1
  C  C271  1  0.26941367  0.57247115  0.53687272  1
  C  C272  1  0.04861808  0.25979099  0.04127249  1
  C  C273  1  0.78597650  0.42492790  0.46038855  1
  C  C274  1  0.04146983  0.40553600  0.96000438  1
  C  C275  1  0.80745375  0.09217614  0.45877421  1
  C  C276  1  0.45604375  0.07045004  0.96295964  1
  C  C277  1  0.05786985  0.92938160  0.45635644  1
  C  C278  1  0.29556786  0.90674799  0.96149993  1
  C  C279  1  0.55114357  0.59582701  0.45612808  1
  C  C280  1  0.28689730  0.42821893  0.46048352  1
  C  C281  1  0.78284002  0.57121888  0.54126075  1
  C  C282  1  0.97567115  0.74271813  0.96407718  1
  C  C283  1  0.05628058  0.92546515  0.04156643  1
  C  C284  1  0.71108198  0.23900078  0.54019675  1
  C  C285  1  0.96456673  0.59301759  0.03853764  1
  C  C286  1  0.21453863  0.42535041  0.03915888  1
  C  C287  1  0.54001875  0.73806422  0.96082236  1
  C  C288  1  0.28719788  0.57185652  0.95881316  1
  C  C289  1  0.54024913  0.40841562  0.96275964  1
  C  C290  1  0.46922410  0.59591429  0.46098051  1
  C  C291  1  0.79386612  0.42839888  0.04050117  1
  C  C292  1  0.45483270  0.92920557  0.04026085  1
  C  C293  1  0.26662600  0.90474345  0.53616987  1
  C  C294  1  0.46368255  0.73906178  0.54054162  1
  C  C295  1  0.21385712  0.90731413  0.96415417  1
  C  C296  1  0.04217745  0.59432132  0.45802656  1
  C  C297  1  0.95915877  0.40519661  0.96009664  1
  C  C298  1  0.31129691  0.76451862  0.45230294  1
  C  C299  1  0.95379879  0.07278619  0.53760565  1
  C  C300  1  0.53794584  0.07057413  0.96436533  1
  C  C301  1  0.23102992  0.76219563  0.46366113  1
  C  C302  1  0.52050746  0.26062098  0.03617724  1
  C  C303  1  0.04303130  0.73828216  0.54182753  1
  C  C304  1  0.27428593  0.23814893  0.53916411  1
  C  C305  1  0.28946893  0.23999143  0.96131608  1
  C  C306  1  0.28635348  0.75851982  0.03555030  1
  C  C307  1  0.45772160  0.73818334  0.96000423  1
  C  C308  1  0.43965597  0.26321863  0.04650240  1
  C  C309  1  0.45771088  0.26115844  0.45795826  1
  C  C310  1  0.71216693  0.42730779  0.03836232  1
  C  C311  1  0.18848087  0.57009481  0.54697877  1
  N  N312  1  0.03227507  0.07303088  0.96184250  1
  N  N313  1  0.77220071  0.90650855  0.96147214  1
  N  N314  1  0.20712995  0.75938259  0.03813731  1
  N  N315  1  0.96358443  0.40500381  0.54052037  1
  N  N316  1  0.04188814  0.59249990  0.03804320  1
  N  N317  1  0.55484079  0.92956290  0.45735577  1
  N  N318  1  0.97758259  0.92470737  0.03684387  1
  N  N319  1  0.22151138  0.09292296  0.46464564  1
  N  N320  1  0.70787095  0.57293778  0.96089990  1
  N  N321  1  0.98015557  0.26031682  0.46120791  1
  N  N322  1  0.70353166  0.57158054  0.54226217  1
  N  N323  1  0.70782749  0.76115034  0.04134260  1
  N  N324  1  0.78431639  0.76007987  0.03913569  1
  N  N325  1  0.05758690  0.26248019  0.45501848  1
  N  N326  1  0.97133555  0.25880358  0.03439401  1
  N  N327  1  0.22299160  0.09234906  0.03638513  1
  N  N328  1  0.46557725  0.59443454  0.03994306  1
  N  N329  1  0.54036560  0.40335821  0.54124875  1
  N  N330  1  0.72862572  0.09131574  0.46331276  1
  N  N331  1  0.05299584  0.74208780  0.95937542  1
  N  N332  1  0.04204403  0.40576748  0.53969423  1
  N  N333  1  0.79060489  0.24082552  0.54362704  1
  N  N334  1  0.96263499  0.59424109  0.45957552  1
  N  N335  1  0.70385579  0.09957597  0.03856812  1
  N  N336  1  0.53754564  0.25928883  0.45932318  1
  N  N337  1  0.70792181  0.42509873  0.46069206  1
  N  N338  1  0.19536090  0.23745051  0.54372850  1
  N  N339  1  0.51249223  0.07445714  0.53554995  1
  N  N340  1  0.54245162  0.59438666  0.04143805  1
  N  N341  1  0.20723970  0.42819208  0.45812094  1
  N  N342  1  0.69451914  0.90667344  0.95698551  1
  N  N343  1  0.96330836  0.73987828  0.54265830  1
  N  N344  1  0.72189656  0.24115276  0.96216667  1
  N  N345  1  0.95585038  0.07297412  0.95825540  1
  N  N346  1  0.97846288  0.92748590  0.46245319  1
  N  N347  1  0.30072017  0.09477336  0.04372455  1
  N  N348  1  0.53213755  0.92757742  0.03463288  1
  N  N349  1  0.20792950  0.57264098  0.96014467  1
  N  N350  1  0.29940972  0.09406683  0.45871716  1
  N  N351  1  0.78221253  0.08534692  0.03941333  1
  N  N352  1  0.54321582  0.73902440  0.53977299  1
  N  N353  1  0.46187843  0.40444244  0.53982437  1
  N  N354  1  0.69335243  0.76727065  0.45682864  1
  N  N355  1  0.20949770  0.24016329  0.95987456  1
  N  N356  1  0.46101966  0.40781432  0.96118804  1
  N  N357  1  0.29257446  0.42496121  0.03951848  1
  N  N358  1  0.77123794  0.75627800  0.46216787  1
  N  N359  1  0.47710602  0.92784513  0.46090672  1
  N  N360  1  0.06137931  0.05751831  0.59211076  1
  N  N361  1  0.06295726  0.39019490  0.59754661  1
  N  N362  1  0.06707266  0.72358496  0.59948670  1
  N  N363  1  0.55135560  0.05612878  0.58855392  1
  N  N364  1  0.56709658  0.39114326  0.59853251  1
  N  N365  1  0.56476699  0.72344598  0.59899410  1
  N  N366  1  0.42864526  0.27933716  0.10560647  1
  N  N367  1  0.43884320  0.60999619  0.09765565  1
  N  N368  1  0.43392376  0.94479022  0.09892990  1
  N  N369  1  0.94047631  0.27589904  0.09181605  1
  N  N370  1  0.93598913  0.60927424  0.09493585  1
  N  N371  1  0.94294535  0.94335983  0.09148854  1
  N  N372  1  0.43363240  0.05578272  0.90505115  1
  N  N373  1  0.43508075  0.39026927  0.90352158  1
  N  N374  1  0.43485770  0.72257013  0.90092097  1
  N  N375  1  0.93558687  0.05657980  0.89912674  1
  N  N376  1  0.93518885  0.38918823  0.90141222  1
  N  N377  1  0.94085424  0.72562878  0.91010114  1
  N  N378  1  0.06887604  0.27830037  0.39580556  1
  N  N379  1  0.06805482  0.60989597  0.40019552  1
  N  N380  1  0.07249084  0.94476691  0.39704571  1
  N  N381  1  0.56554144  0.27947292  0.40318241  1
  N  N382  1  0.56926241  0.61080181  0.39613825  1
  N  N383  1  0.57008387  0.94458579  0.39853522  1
  N  N384  1  0.30867137  0.22378402  0.59485720  1
  N  N385  1  0.30622414  0.55750273  0.59283452  1
  N  N386  1  0.30306848  0.89019371  0.59249382  1
  N  N387  1  0.81313835  0.22134260  0.60064160  1
  N  N388  1  0.81226474  0.55654625  0.59819373  1
  N  N389  1  0.80703177  0.89134147  0.59512368  1
  N  N390  1  0.19279041  0.10796577  0.09192606  1
  N  N391  1  0.18613739  0.44243994  0.09534191  1
  N  N392  1  0.18271288  0.77665795  0.09627698  1
  N  N393  1  0.68356916  0.10923012  0.09804280  1
  N  N394  1  0.68593240  0.44300223  0.09740137  1
  N  N395  1  0.68611611  0.77782157  0.10003636  1
  N  N396  1  0.18499966  0.22257810  0.90263908  1
  N  N397  1  0.18597639  0.55683293  0.90196344  1
  N  N398  1  0.18509507  0.89131880  0.90852650  1
  N  N399  1  0.68969805  0.22262600  0.90662340  1
  N  N400  1  0.68413525  0.55633762  0.90244665  1
  N  N401  1  0.68012363  0.89092254  0.89823151  1
  N  N402  1  0.31969481  0.11031716  0.40099633  1
  N  N403  1  0.31292366  0.44347845  0.40330814  1
  N  N404  1  0.32146274  0.77902194  0.39263541  1
  N  N405  1  0.82291233  0.10914270  0.40018332  1
  N  N406  1  0.81392064  0.44152191  0.40377970  1
  N  N407  1  0.80618771  0.77797418  0.41024400  1
  N  N408  1  0.43623341  0.27633300  0.39990159  1
  N  N409  1  0.43932623  0.61087190  0.40359243  1
  N  N410  1  0.44315708  0.94107852  0.40608148  1
  N  N411  1  0.94255481  0.27563840  0.40820744  1
  N  N412  1  0.94012663  0.60944603  0.40098397  1
  N  N413  1  0.94430158  0.94618998  0.40841022  1
  N  N414  1  0.06196710  0.05669147  0.90522027  1
  N  N415  1  0.06534410  0.38958269  0.90115196  1
  N  N416  1  0.06825418  0.72367188  0.89872264  1
  N  N417  1  0.56349167  0.05632744  0.90719867  1
  N  N418  1  0.56400766  0.39164819  0.90570944  1
  N  N419  1  0.56499970  0.72232228  0.90227526  1
  N  N420  1  0.06806316  0.27643093  0.10003255  1
  N  N421  1  0.06430359  0.60942377  0.09732239  1
  N  N422  1  0.07156668  0.94283279  0.09994942  1
  N  N423  1  0.55750591  0.27631168  0.09184905  1
  N  N424  1  0.56528475  0.61038995  0.10005785  1
  N  N425  1  0.56163600  0.94380691  0.09272201  1
  N  N426  1  0.42389819  0.05658261  0.60402129  1
  N  N427  1  0.44002474  0.38957520  0.59749833  1
  N  N428  1  0.43678399  0.72360099  0.59800611  1
  N  N429  1  0.93091530  0.05743972  0.59458793  1
  N  N430  1  0.93575354  0.39127333  0.59714981  1
  N  N431  1  0.93792501  0.72078308  0.59938507  1
  N  N432  1  0.19280861  0.10829300  0.40875709  1
  N  N433  1  0.18389616  0.44383540  0.40023839  1
  N  N434  1  0.19288883  0.77624846  0.40772604  1
  N  N435  1  0.69409608  0.10835865  0.40808083  1
  N  N436  1  0.68572663  0.44272939  0.40135849  1
  N  N437  1  0.67955257  0.77787560  0.39679832  1
  N  N438  1  0.31399990  0.22333444  0.90397619  1
  N  N439  1  0.31417502  0.55627789  0.90132190  1
  N  N440  1  0.31496154  0.88978440  0.90128878  1
  N  N441  1  0.81881950  0.22433085  0.90133187  1
  N  N442  1  0.81292421  0.55813288  0.90760527  1
  N  N443  1  0.80686091  0.88809713  0.90833517  1
  N  N444  1  0.31940540  0.11061682  0.10159531  1
  N  N445  1  0.31414777  0.44279723  0.09892696  1
  N  N446  1  0.31148794  0.77519337  0.09237829  1
  N  N447  1  0.81128003  0.10976062  0.09253937  1
  N  N448  1  0.81606035  0.44409161  0.09788495  1
  N  N449  1  0.81274084  0.77585118  0.09634212  1
  N  N450  1  0.18099906  0.22135136  0.60308321  1
  N  N451  1  0.17734668  0.55472854  0.60632435  1
  N  N452  1  0.17415077  0.88825989  0.60625483  1
  N  N453  1  0.68402786  0.22338959  0.59687654  1
  N  N454  1  0.68427475  0.55614534  0.60138370  1
  N  N455  1  0.67699116  0.89005314  0.60007700  1
  Cl  Cl456  1  0.24458272  0.05159515  0.62068244  1
  Cl  Cl457  1  0.25078946  0.39034775  0.60856214  1
  Cl  Cl458  1  0.25012409  0.71967234  0.61866276  1
  Cl  Cl459  1  0.73586902  0.05720888  0.60644455  1
  Cl  Cl460  1  0.75148327  0.38462422  0.61573715  1
  Cl  Cl461  1  0.75360881  0.72872597  0.60482840  1
  Cl  Cl462  1  0.24722673  0.27875492  0.11366740  1
  Cl  Cl463  1  0.25375444  0.61567409  0.11590391  1
  Cl  Cl464  1  0.25302537  0.94761595  0.11958045  1
  Cl  Cl465  1  0.74692260  0.27405073  0.11001101  1
  Cl  Cl466  1  0.74905294  0.60836132  0.11097790  1
  Cl  Cl467  1  0.75686207  0.94328079  0.10680029  1
  Cl  Cl468  1  0.24748029  0.05374858  0.88512974  1
  Cl  Cl469  1  0.25167593  0.38298290  0.87713003  1
  Cl  Cl470  1  0.25084549  0.72327216  0.88507615  1
  Cl  Cl471  1  0.75101411  0.05785419  0.88691832  1
  Cl  Cl472  1  0.74728371  0.38332259  0.88254545  1
  Cl  Cl473  1  0.75325243  0.71484507  0.87668292  1
  Cl  Cl474  1  0.25402265  0.28183734  0.38178440  1
  Cl  Cl475  1  0.25379086  0.61331555  0.38259461  1
  Cl  Cl476  1  0.25974943  0.94604264  0.38673327  1
  Cl  Cl477  1  0.75583305  0.27285077  0.39545013  1
  Cl  Cl478  1  0.75584738  0.61605523  0.37945817  1
  Cl  Cl479  1  0.75894602  0.94756254  0.38299609  1
  Cl  Cl480  1  -0.00659206  0.22279858  0.60722240  1
  Cl  Cl481  1  -0.00411788  0.55154318  0.61845214  1
  Cl  Cl482  1  -0.00962633  0.89055484  0.61588321  1
  Cl  Cl483  1  0.49817238  0.22367073  0.60639022  1
  Cl  Cl484  1  0.49564118  0.55321697  0.61292583  1
  Cl  Cl485  1  0.48846329  0.89153896  0.60779081  1
  Cl  Cl486  1  0.00056853  0.11231427  0.11590601  1
  Cl  Cl487  1  0.00136230  0.44709751  0.11796459  1
  Cl  Cl488  1  -0.00181162  0.78368701  0.12118517  1
  Cl  Cl489  1  0.50177758  0.11606790  0.12257528  1
  Cl  Cl490  1  0.49855132  0.44348848  0.11525480  1
  Cl  Cl491  1  0.49773808  0.78111870  0.11286700  1
  Cl  Cl492  1  0.00224376  0.22018034  0.87576258  1
  Cl  Cl493  1  -0.00230704  0.55355320  0.88042236  1
  Cl  Cl494  1  -0.00888147  0.88999940  0.89338270  1
  Cl  Cl495  1  0.50437548  0.22102453  0.88148121  1
  Cl  Cl496  1  0.50089061  0.54919373  0.87946232  1
  Cl  Cl497  1  0.49810841  0.88578218  0.87242739  1
  Cl  Cl498  1  0.00789046  0.11443425  0.38130600  1
  Cl  Cl499  1  -0.00131324  0.44473977  0.38613952  1
  Cl  Cl500  1  -0.00739653  0.77334884  0.39717493  1
  Cl  Cl501  1  0.50791136  0.10867370  0.39684140  1
  Cl  Cl502  1  0.50042429  0.44349982  0.38404922  1
  Cl  Cl503  1  0.50164780  0.78303449  0.37909752  1
  Cl  Cl504  1  0.36109359  0.14497547  0.75002981  1
  Cl  Cl505  1  0.36253896  0.47761130  0.74860699  1
  Cl  Cl506  1  0.36241108  0.81178177  0.75184390  1
  Cl  Cl507  1  0.86192093  0.14503634  0.74983658  1
  Cl  Cl508  1  0.86251948  0.47766233  0.75132529  1
  Cl  Cl509  1  0.86304039  0.81109161  0.74695257  1
  Cl  Cl510  1  0.14252683  0.18759008  0.24984753  1
  Cl  Cl511  1  0.13727786  0.52267636  0.25220240  1
  Cl  Cl512  1  0.14136385  0.85672274  0.25098831  1
  Cl  Cl513  1  0.63851906  0.18874934  0.25179484  1
  Cl  Cl514  1  0.63834070  0.52363144  0.25168370  1
  Cl  Cl515  1  0.63699340  0.85650980  0.25353625  1
  Cl  Cl516  1  0.13734996  0.14577142  0.74857434  1
  Cl  Cl517  1  0.13763165  0.47566572  0.74687318  1
  Cl  Cl518  1  0.13635283  0.81048416  0.74887452  1
  Cl  Cl519  1  0.64178063  0.14380307  0.74864122  1
  Cl  Cl520  1  0.63663309  0.47792936  0.74866330  1
  Cl  Cl521  1  0.63803252  0.81041720  0.74698376  1
  Cl  Cl522  1  0.36394299  0.18967230  0.25124704  1
  Cl  Cl523  1  0.36157502  0.52193412  0.25013752  1
  Cl  Cl524  1  0.36349608  0.85414896  0.25114344  1
  Cl  Cl525  1  0.85963867  0.18917467  0.25203499  1
  Cl  Cl526  1  0.86410799  0.52185086  0.25007807  1
  Cl  Cl527  1  0.85808838  0.85642344  0.25252498  1
  Cl  Cl528  1  0.11234946  0.31104673  0.74659582  1
  Cl  Cl529  1  0.11346159  0.64352144  0.75032690  1
  Cl  Cl530  1  0.11305091  0.97669814  0.74747241  1
  Cl  Cl531  1  0.61329078  0.31139268  0.74706142  1
  Cl  Cl532  1  0.61348918  0.64447710  0.74645141  1
  Cl  Cl533  1  0.61298476  0.97771048  0.75017770  1
  Cl  Cl534  1  0.38951642  0.02403805  0.25073672  1
  Cl  Cl535  1  0.38862479  0.35594588  0.24828683  1
  Cl  Cl536  1  0.38840146  0.68925928  0.25140380  1
  Cl  Cl537  1  0.88874537  0.02241700  0.24955866  1
  Cl  Cl538  1  0.88706131  0.35498725  0.24941851  1
  Cl  Cl539  1  0.88953538  0.69092160  0.25153299  1
  Cl  Cl540  1  0.39174347  0.31010820  0.74752802  1
  Cl  Cl541  1  0.38710229  0.64490044  0.75111126  1
  Cl  Cl542  1  0.38798181  0.97912398  0.74784729  1
  Cl  Cl543  1  0.88634494  0.31120413  0.74746893  1
  Cl  Cl544  1  0.88909448  0.64382938  0.74666887  1
  Cl  Cl545  1  0.89011084  0.97688276  0.74972753  1
  Cl  Cl546  1  0.11430478  0.02070884  0.25006333  1
  Cl  Cl547  1  0.11353215  0.35440541  0.25340996  1
  Cl  Cl548  1  0.11060317  0.69120952  0.24819507  1
  Cl  Cl549  1  0.60939124  0.02363321  0.25247388  1
  Cl  Cl550  1  0.61217736  0.35470335  0.25231760  1
  Cl  Cl551  1  0.61437171  0.68845435  0.25250157  1
