# generated using pymatgen
data_H8PbC4(N3Cl2)2
_symmetry_space_group_name_H-M   'P 1'
_cell_length_a   16.63182288
_cell_length_b   22.53414191
_cell_length_c   21.60565010
_cell_angle_alpha   89.99933803
_cell_angle_beta   90.01687408
_cell_angle_gamma   89.99010746
_symmetry_Int_Tables_number   1
_chemical_formula_structural   H8PbC4(N3Cl2)2
_chemical_formula_sum   'H192 Pb24 C96 N144 Cl96'
_cell_volume   8097.44840550
_cell_formula_units_Z   24
loop_
 _symmetry_equiv_pos_site_id
 _symmetry_equiv_pos_as_xyz
  1  'x, y, z'
loop_
 _atom_site_type_symbol
 _atom_site_label
 _atom_site_symmetry_multiplicity
 _atom_site_fract_x
 _atom_site_fract_y
 _atom_site_fract_z
 _atom_site_occupancy
  H  H0  1  -0.01683682  0.03227886  0.67991889  1
  H  H1  1  -0.00677054  0.35887305  0.67584468  1
  H  H2  1  0.00460847  0.69747833  0.67516599  1
  H  H3  1  0.51890005  0.02679584  0.68108281  1
  H  H4  1  0.50377070  0.35807181  0.68222842  1
  H  H5  1  0.50292754  0.69793927  0.67898182  1
  H  H6  1  0.00907336  0.30657430  0.17708898  1
  H  H7  1  0.00334230  0.63814441  0.18185605  1
  H  H8  1  -0.02285871  0.97257972  0.17373691  1
  H  H9  1  0.50323786  0.30253027  0.17253397  1
  H  H10  1  0.49761129  0.64282504  0.17081311  1
  H  H11  1  0.52230459  0.97453588  0.16972102  1
  H  H12  1  0.01629227  0.02744062  0.81836066  1
  H  H13  1  -0.01397163  0.36180537  0.83132697  1
  H  H14  1  -0.01923640  0.69852639  0.82709846  1
  H  H15  1  0.49098599  0.03168835  0.82339080  1
  H  H16  1  0.50959850  0.35729050  0.81726324  1
  H  H17  1  0.50769292  0.69461705  0.82438165  1
  H  H18  1  0.01203161  0.30438287  0.31958356  1
  H  H19  1  -0.00148466  0.64040406  0.32683229  1
  H  H20  1  0.01186897  0.96882017  0.32030939  1
  H  H21  1  0.48941811  0.30673996  0.32302651  1
  H  H22  1  0.51245360  0.63777048  0.32047666  1
  H  H23  1  0.49098209  0.97128902  0.31762693  1
  H  H24  1  0.25659424  0.18761911  0.67285790  1
  H  H25  1  0.27339367  0.53600336  0.67323666  1
  H  H26  1  0.24406285  0.86340599  0.68508300  1
  H  H27  1  0.76137057  0.20077355  0.68023218  1
  H  H28  1  0.74030003  0.52391269  0.67993066  1
  H  H29  1  0.74795242  0.86117302  0.67920141  1
  H  H30  1  0.23449397  0.13858039  0.18167011  1
  H  H31  1  0.27457304  0.47297990  0.16896488  1
  H  H32  1  0.24691779  0.80971303  0.17772665  1
  H  H33  1  0.77134249  0.13646379  0.17593009  1
  H  H34  1  0.73055025  0.47882184  0.17350209  1
  H  H35  1  0.75095847  0.81004677  0.17275893  1
  H  H36  1  0.24582308  0.19764355  0.82001152  1
  H  H37  1  0.26843036  0.52529539  0.82423487  1
  H  H38  1  0.24613806  0.86286281  0.82643904  1
  H  H39  1  0.75667693  0.18820192  0.82884222  1
  H  H40  1  0.73530693  0.53182418  0.82646153  1
  H  H41  1  0.75880459  0.85323995  0.82386804  1
  H  H42  1  0.25197217  0.14462860  0.32575144  1
  H  H43  1  0.24049449  0.47497389  0.32136371  1
  H  H44  1  0.24691149  0.80478340  0.32424568  1
  H  H45  1  0.75222347  0.14500351  0.31958833  1
  H  H46  1  0.75159464  0.47164515  0.32301528  1
  H  H47  1  0.74535667  0.80803933  0.32700314  1
  H  H48  1  0.12510099  0.05043942  0.62689117  1
  H  H49  1  0.10336388  0.38982508  0.59716642  1
  H  H50  1  0.11507055  0.72190834  0.59376362  1
  H  H51  1  0.62126202  0.05743886  0.59557997  1
  H  H52  1  0.61417815  0.38774534  0.60494022  1
  H  H53  1  0.61137473  0.72673870  0.59808250  1
  H  H54  1  0.36581801  0.28158359  0.11657777  1
  H  H55  1  0.39141396  0.60675798  0.08894706  1
  H  H56  1  0.37536567  0.95699276  0.12579472  1
  H  H57  1  0.87024642  0.28522448  0.12132131  1
  H  H58  1  0.88005148  0.61811510  0.11030108  1
  H  H59  1  0.87599854  0.93618813  0.09022677  1
  H  H60  1  0.37028493  0.05351461  0.89751397  1
  H  H61  1  0.37694794  0.38680169  0.87444413  1
  H  H62  1  0.37780641  0.72205044  0.88889290  1
  H  H63  1  0.87455720  0.04942658  0.86961657  1
  H  H64  1  0.87838459  0.39597792  0.91088340  1
  H  H65  1  0.88373100  0.72368551  0.91467767  1
  H  H66  1  0.13190597  0.27816240  0.39343482  1
  H  H67  1  0.12735086  0.61473318  0.39105180  1
  H  H68  1  0.11139209  0.94044485  0.40619788  1
  H  H69  1  0.62653499  0.28580129  0.37534922  1
  H  H70  1  0.62304058  0.61016054  0.40093365  1
  H  H71  1  0.61698574  0.94585307  0.38774113  1
  H  H72  1  0.36815989  0.22352983  0.59716193  1
  H  H73  1  0.36682973  0.55881061  0.58036673  1
  H  H74  1  0.37975538  0.88243781  0.62771362  1
  H  H75  1  0.86775683  0.22688656  0.59870248  1
  H  H76  1  0.87741532  0.54998249  0.62246684  1
  H  H77  1  0.88045771  0.88238254  0.61747743  1
  H  H78  1  0.13511865  0.10747520  0.09627891  1
  H  H79  1  0.12782232  0.45376454  0.12812456  1
  H  H80  1  0.11949723  0.78341159  0.11142144  1
  H  H81  1  0.63260967  0.11745903  0.11966391  1
  H  H82  1  0.63039839  0.44146638  0.08784352  1
  H  H83  1  0.62498427  0.77923023  0.10528604  1
  H  H84  1  0.13679985  0.22665633  0.90199166  1
  H  H85  1  0.12398724  0.54820133  0.86950088  1
  H  H86  1  0.12934734  0.88426033  0.90176163  1
  H  H87  1  0.63447527  0.22136946  0.89592143  1
  H  H88  1  0.61959849  0.56091762  0.90181723  1
  H  H89  1  0.62990682  0.88691104  0.88662138  1
  H  H90  1  0.37398255  0.11651184  0.39881737  1
  H  H91  1  0.37984363  0.44629056  0.37219729  1
  H  H92  1  0.38177270  0.78062524  0.38330422  1
  H  H93  1  0.87520366  0.11162233  0.38823454  1
  H  H94  1  0.88585358  0.45274584  0.38244914  1
  H  H95  1  0.88521583  0.78558729  0.38017197  1
  H  H96  1  0.38109506  0.27679977  0.40329113  1
  H  H97  1  0.37593862  0.61532681  0.37865092  1
  H  H98  1  0.36828432  0.94472520  0.39134743  1
  H  H99  1  0.88284075  0.27929355  0.38593190  1
  H  H100  1  0.87813016  0.61408473  0.39719708  1
  H  H101  1  0.86789182  0.95345304  0.36780133  1
  H  H102  1  0.11890099  0.05456233  0.90458616  1
  H  H103  1  0.12385162  0.38494622  0.88653664  1
  H  H104  1  0.12485139  0.71391380  0.87216529  1
  H  H105  1  0.61921180  0.05464006  0.88701243  1
  H  H106  1  0.62469587  0.38902197  0.89407358  1
  H  H107  1  0.62642080  0.72212118  0.89903466  1
  H  H108  1  0.11602973  0.27502547  0.09614011  1
  H  H109  1  0.12842536  0.61606816  0.11507260  1
  H  H110  1  0.11969142  0.95095421  0.12448156  1
  H  H111  1  0.61281272  0.27260695  0.09186185  1
  H  H112  1  0.63592867  0.61660579  0.11806460  1
  H  H113  1  0.61472799  0.93448288  0.08232131  1
  H  H114  1  0.37721220  0.04922665  0.63036655  1
  H  H115  1  0.36777128  0.37789843  0.62627536  1
  H  H116  1  0.36453746  0.71806568  0.62233358  1
  H  H117  1  0.88034731  0.05874712  0.59348059  1
  H  H118  1  0.85595771  0.38199668  0.62203330  1
  H  H119  1  0.86869482  0.71884660  0.61660675  1
  H  H120  1  0.12583600  0.11134599  0.39192704  1
  H  H121  1  0.13617463  0.44420741  0.40568340  1
  H  H122  1  0.13483071  0.77330593  0.40178192  1
  H  H123  1  0.62587527  0.11818940  0.38596581  1
  H  H124  1  0.63767992  0.44259312  0.39806454  1
  H  H125  1  0.64050590  0.77333252  0.40859045  1
  H  H126  1  0.38227546  0.21651675  0.88014395  1
  H  H127  1  0.36409536  0.56177155  0.91173805  1
  H  H128  1  0.37803222  0.88571200  0.88849640  1
  H  H129  1  0.88306279  0.22056681  0.89381471  1
  H  H130  1  0.86753105  0.55064478  0.88713966  1
  H  H131  1  0.87777401  0.88387730  0.89887784  1
  H  H132  1  0.37726336  0.12174940  0.13593625  1
  H  H133  1  0.36660208  0.43244504  0.08183126  1
  H  H134  1  0.36828415  0.77822770  0.10667376  1
  H  H135  1  0.87869895  0.10499065  0.09456084  1
  H  H136  1  0.87303113  0.45527071  0.12458038  1
  H  H137  1  0.87334177  0.77942928  0.10132958  1
  H  H138  1  0.12115446  0.21675355  0.61741868  1
  H  H139  1  0.12780740  0.55425978  0.62858391  1
  H  H140  1  0.13211524  0.88444169  0.60529311  1
  H  H141  1  0.62147816  0.21558761  0.62551590  1
  H  H142  1  0.63137204  0.55813318  0.59909042  1
  H  H143  1  0.63265963  0.89037053  0.60182934  1
  H  H144  1  0.54318224  0.75698812  0.49367378  1
  H  H145  1  0.58314369  0.08245716  -0.00006528  1
  H  H146  1  0.40939124  0.42895191  0.98263108  1
  H  H147  1  0.03672662  0.42162667  0.49212083  1
  H  H148  1  0.54176211  0.08976952  0.49611049  1
  H  H149  1  0.37901867  0.91774103  0.01886350  1
  H  H150  1  0.55356767  0.57534728  0.50345561  1
  H  H151  1  0.46934936  0.58186552  -0.01066816  1
  H  H152  1  0.13162579  0.57832610  0.51753515  1
  H  H153  1  0.04144302  0.08425076  1.00489973  1
  H  H154  1  0.60927983  0.25243004  0.49055274  1
  H  H155  1  0.55987162  0.41205855  0.99709618  1
  H  H156  1  0.21532969  0.41503265  0.50356549  1
  H  H157  1  0.18262638  0.91289250  0.01036573  1
  H  H158  1  0.86767860  0.41708961  0.50225698  1
  H  H159  1  0.71790028  0.75439285  0.50941859  1
  H  H160  1  0.92584730  0.57924816  0.50494492  1
  H  H161  1  0.79794268  0.25604386  0.49272064  1
  H  H162  1  0.38843765  0.74654726  0.51378107  1
  H  H163  1  0.69932761  0.41222120  0.50658440  1
  H  H164  1  0.07702187  0.24815937  0.49995799  1
  H  H165  1  0.19520782  0.91553916  0.49859138  1
  H  H166  1  0.04424171  0.24312710  -0.00613803  1
  H  H167  1  0.52576197  0.91610047  -0.01255928  1
  H  H168  1  0.42265720  0.74943612  0.99509480  1
  H  H169  1  0.66925998  0.08033924  0.49370855  1
  H  H170  1  0.35518008  0.24470882  0.98873374  1
  H  H171  1  0.03266772  0.91250394  0.50913908  1
  H  H172  1  0.39061571  0.40507146  0.51177558  1
  H  H173  1  0.37287016  0.08761606  0.02249364  1
  H  H174  1  0.54992854  0.41318186  0.49631219  1
  H  H175  1  0.95867692  0.08344500  0.49130309  1
  H  H176  1  0.27997724  0.59763231  0.49358305  1
  H  H177  1  0.71511796  0.41572132  -0.00794323  1
  H  H178  1  0.35533404  0.91372461  0.51498679  1
  H  H179  1  0.83830632  0.25385596  0.99781685  1
  H  H180  1  0.27675469  0.58588503  1.00728698  1
  H  H181  1  0.54299865  0.24401283  -0.00845381  1
  H  H182  1  0.15735071  0.74746182  0.00257033  1
  H  H183  1  0.21233634  0.07660437  -0.00436788  1
  H  H184  1  0.27660592  0.41067326  -0.01409040  1
  H  H185  1  0.84931396  0.91750382  0.50661484  1
  H  H186  1  0.08816545  0.59056188  1.00166671  1
  H  H187  1  0.86423111  0.74856689  0.48633690  1
  H  H188  1  0.83801338  0.58918854  0.99796354  1
  H  H189  1  0.80769980  0.07333866  -0.00692009  1
  H  H190  1  0.82239548  0.08862995  0.49465077  1
  H  H191  1  0.09996856  0.41519785  0.99674765  1
  Pb  Pb192  1  0.24533900  0.04710877  0.76025466  1
  Pb  Pb193  1  0.23743495  0.38534668  0.74111069  1
  Pb  Pb194  1  0.24635908  0.71710085  0.74565876  1
  Pb  Pb195  1  0.74764187  0.05042797  0.73649311  1
  Pb  Pb196  1  0.74626881  0.38267929  0.75980438  1
  Pb  Pb197  1  0.74230480  0.71638288  0.74847940  1
  Pb  Pb198  1  0.24999210  0.28540216  0.24980820  1
  Pb  Pb199  1  0.25749310  0.61639227  0.24624866  1
  Pb  Pb200  1  0.25559302  0.95092023  0.25860370  1
  Pb  Pb201  1  0.75612848  0.28346127  0.24194020  1
  Pb  Pb202  1  0.75492838  0.61929860  0.25495411  1
  Pb  Pb203  1  0.74897845  0.94960170  0.23923315  1
  Pb  Pb204  1  -0.00108014  0.21586363  0.75242500  1
  Pb  Pb205  1  -0.00810316  0.55186189  0.75227832  1
  Pb  Pb206  1  -0.00300466  0.88101474  0.75301291  1
  Pb  Pb207  1  0.49492684  0.21489923  0.75177535  1
  Pb  Pb208  1  0.49571267  0.54904457  0.74388933  1
  Pb  Pb209  1  0.50076966  0.88364939  0.75315607  1
  Pb  Pb210  1  0.00598583  0.11372170  0.24415893  1
  Pb  Pb211  1  0.00338234  0.45373793  0.25281418  1
  Pb  Pb212  1  0.00472552  0.78486138  0.25190078  1
  Pb  Pb213  1  0.50335318  0.11977209  0.25533908  1
  Pb  Pb214  1  0.50957184  0.44764514  0.24084674  1
  Pb  Pb215  1  0.50692923  0.78252453  0.25114093  1
  C  C216  1  -0.00351358  0.04647577  0.63301684  1
  C  C217  1  -0.01581702  0.37564577  0.62927901  1
  C  C218  1  -0.00448746  0.71166380  0.62794204  1
  C  C219  1  0.50562166  0.04345721  0.63509041  1
  C  C220  1  0.49466988  0.37382845  0.63521280  1
  C  C221  1  0.49216219  0.71308138  0.63187015  1
  C  C222  1  -0.00199399  0.28948825  0.13090736  1
  C  C223  1  0.00470278  0.62481316  0.13370875  1
  C  C224  1  -0.00863564  0.95426667  0.12881502  1
  C  C225  1  0.49430144  0.28624893  0.12572473  1
  C  C226  1  0.50784937  0.62383522  0.12539010  1
  C  C227  1  0.50393282  0.95640189  0.12514025  1
  C  C228  1  0.00282471  0.04293201  0.86477178  1
  C  C229  1  -0.00337916  0.37901198  0.87738142  1
  C  C230  1  -0.00296184  0.71198054  0.87364152  1
  C  C231  1  0.49437155  0.04633858  0.87106524  1
  C  C232  1  0.50426624  0.37593827  0.86340502  1
  C  C233  1  0.50357923  0.71212787  0.87097212  1
  C  C234  1  0.00872968  0.28781327  0.36665559  1
  C  C235  1  0.00073376  0.62261998  0.37341511  1
  C  C236  1  -0.00297375  0.95468629  0.36695320  1
  C  C237  1  0.49990223  0.29020920  0.36946578  1
  C  C238  1  0.50351156  0.62131027  0.36714036  1
  C  C239  1  0.49196640  0.95488886  0.36485514  1
  C  C240  1  0.24830740  0.20837930  0.62826302  1
  C  C241  1  0.25591741  0.55007768  0.62695659  1
  C  C242  1  0.25252644  0.87680114  0.63720647  1
  C  C243  1  0.75038202  0.21422382  0.63275032  1
  C  C244  1  0.74975241  0.54288548  0.63431585  1
  C  C245  1  0.75378573  0.87831220  0.63257191  1
  C  C246  1  0.24978687  0.12305637  0.13550160  1
  C  C247  1  0.25667568  0.45457278  0.12456659  1
  C  C248  1  0.24502281  0.79077880  0.13165532  1
  C  C249  1  0.76071360  0.11997768  0.12947735  1
  C  C250  1  0.74425962  0.45978443  0.12864882  1
  C  C251  1  0.74971148  0.79074870  0.12679636  1
  C  C252  1  0.25544623  0.21293176  0.86705097  1
  C  C253  1  0.25228210  0.54369244  0.86897984  1
  C  C254  1  0.25084242  0.87736682  0.87411469  1
  C  C255  1  0.75859619  0.20897643  0.87398787  1
  C  C256  1  0.74142010  0.54804304  0.87333386  1
  C  C257  1  0.75544706  0.87311279  0.86950038  1
  C  C258  1  0.25059195  0.12535212  0.37170267  1
  C  C259  1  0.25220879  0.45678509  0.36699551  1
  C  C260  1  0.25504817  0.78743800  0.37044473  1
  C  C261  1  0.75179650  0.12629925  0.36598293  1
  C  C262  1  0.75840907  0.45601929  0.37026941  1
  C  C263  1  0.75728510  0.79041082  0.37300614  1
  C  C264  1  0.70815308  0.09292724  0.45546804  1
  C  C265  1  0.77753861  0.08734379  0.03531140  1
  C  C266  1  0.22091426  0.90276528  0.97077084  1
  C  C267  1  0.92748910  0.93196887  0.45061739  1
  C  C268  1  0.00547878  0.40752570  0.53400429  1
  C  C269  1  0.51843022  0.40133944  0.53864734  1
  C  C270  1  0.00643481  0.92619979  0.46520929  1
  C  C271  1  0.47873923  0.25913075  0.46460824  1
  C  C272  1  0.18149831  0.42499151  0.04587351  1
  C  C273  1  0.23932194  0.09143889  0.03888260  1
  C  C274  1  0.98505208  0.07270162  0.53606584  1
  C  C275  1  0.43711369  0.39749923  0.54638317  1
  C  C276  1  0.04657389  0.60019026  0.03935287  1
  C  C277  1  0.73207348  0.42561627  0.46532535  1
  C  C278  1  0.23110691  0.75392965  0.46389735  1
  C  C279  1  0.96628141  0.59120467  0.46734540  1
  C  C280  1  0.53920145  0.07276535  0.96404356  1
  C  C281  1  0.45202755  0.41257511  0.94844175  1
  C  C282  1  0.04786159  0.59214223  0.46365318  1
  C  C283  1  0.51355430  0.74408436  0.53662091  1
  C  C284  1  0.45748642  0.07234309  0.96580763  1
  C  C285  1  0.55936723  0.26198829  0.45690034  1
  C  C286  1  0.01774339  0.73800518  0.53169150  1
  C  C287  1  0.27073372  0.24782212  0.53737769  1
  C  C288  1  0.79220030  0.57755783  0.96327440  1
  C  C289  1  0.98873533  0.73847579  0.97057198  1
  C  C290  1  0.96519409  0.60188941  0.03926977  1
  C  C291  1  0.76774674  0.24252264  0.53508586  1
  C  C292  1  0.01443601  0.07207683  0.96062039  1
  C  C293  1  0.06671233  0.73501707  0.95647541  1
  C  C294  1  0.81343279  0.42933514  0.45895365  1
  C  C295  1  0.92449388  0.40389308  0.54296458  1
  C  C296  1  0.52348762  0.58873963  0.46091518  1
  C  C297  1  0.43471656  0.25761790  0.03902732  1
  C  C298  1  0.30221688  0.90208813  0.96486394  1
  C  C299  1  0.71074768  0.58022479  0.96713124  1
  C  C300  1  0.31934682  0.09641068  0.05250211  1
  C  C301  1  0.97459764  0.41533066  0.97160826  1
  C  C302  1  0.01500238  0.25711519  0.03660552  1
  C  C303  1  0.20360010  0.75920836  0.04135303  1
  C  C304  1  0.22723448  0.90410421  0.54080040  1
  C  C305  1  0.98036621  0.91629994  0.03595703  1
  C  C306  1  0.71918530  0.24718950  0.96396370  1
  C  C307  1  0.80219368  0.90726499  0.54356672  1
  C  C308  1  0.51628559  0.07568657  0.54013873  1
  C  C309  1  0.30884518  0.90343002  0.54880542  1
  C  C310  1  0.68766333  0.23759528  0.54612458  1
  C  C311  1  0.04012469  0.25867080  0.45982608  1
  N  N312  1  0.72941197  0.57700953  0.53990494  1
  N  N313  1  0.43251817  0.93207508  0.04530616  1
  N  N314  1  0.05218306  0.40892700  0.96352965  1
  N  N315  1  0.05647929  0.92131635  0.04547283  1
  N  N316  1  0.26014208  0.57018069  0.52852427  1
  N  N317  1  0.73601775  0.42396177  0.03656184  1
  N  N318  1  0.96081552  0.25814537  0.45763023  1
  N  N319  1  0.69911986  0.09136810  0.04326490  1
  N  N320  1  0.71057681  0.91190544  0.95641543  1
  N  N321  1  0.19347741  0.24553260  0.54252246  1
  N  N322  1  0.30828662  0.23753798  0.95457401  1
  N  N323  1  0.78507697  0.75411245  0.03633991  1
  N  N324  1  0.43506644  0.74147849  0.54618721  1
  N  N325  1  0.28568813  0.09119289  0.46339764  1
  N  N326  1  0.70891787  0.75398552  0.03762798  1
  N  N327  1  0.57041029  0.59134638  0.04196813  1
  N  N328  1  0.28288827  0.75670045  0.03937692  1
  N  N329  1  0.31489301  0.42205008  0.44890280  1
  N  N330  1  0.78665071  0.91100682  0.96027986  1
  N  N331  1  0.18123815  0.57551106  0.94814261  1
  N  N332  1  0.74060037  0.75297752  0.46456361  1
  N  N333  1  0.93655629  0.26115303  0.04452869  1
  N  N334  1  0.43878256  0.07335387  0.55154459  1
  N  N335  1  0.72335525  0.90975212  0.53782010  1
  N  N336  1  0.79813124  0.24561917  0.96219081  1
  N  N337  1  0.20964719  0.08958084  0.46128461  1
  N  N338  1  0.53927337  0.74250789  0.96414944  1
  N  N339  1  0.06266717  0.06994310  0.54703262  1
  N  N340  1  0.80505118  0.57403794  0.54737909  1
  N  N341  1  0.18493192  0.57731333  0.54765195  1
  N  N342  1  0.94057597  0.73607544  0.53779832  1
  N  N343  1  0.81231645  0.42848413  0.04758559  1
  N  N344  1  0.49326651  0.58856121  0.03349741  1
  N  N345  1  0.93654684  0.07013958  0.94944734  1
  N  N346  1  0.23111765  0.24164958  0.96286335  1
  N  N347  1  0.50752552  0.91626286  0.03363388  1
  N  N348  1  0.53131930  0.41156219  0.95482169  1
  N  N349  1  0.53218841  0.92469388  0.45677893  1
  N  N350  1  0.23813975  0.42141667  0.45901493  1
  N  N351  1  0.51321321  0.25444792  0.03184368  1
  N  N352  1  0.78774645  0.09125695  0.45560113  1
  N  N353  1  0.30833449  0.75683799  0.45925196  1
  N  N354  1  0.44475812  0.59037221  0.45375675  1
  N  N355  1  0.81760295  0.76549997  0.45769285  1
  N  N356  1  0.25760057  0.41782332  0.03115147  1
  N  N357  1  0.45601340  0.92500447  0.45790227  1
  N  N358  1  0.25700243  0.57919360  0.96154680  1
  N  N359  1  0.46140252  0.74309792  0.95897654  1
  N  N360  1  0.06802637  0.05375404  0.60728789  1
  N  N361  1  0.04151143  0.38966921  0.58865982  1
  N  N362  1  0.05330564  0.72316587  0.58577243  1
  N  N363  1  0.55913582  0.05760105  0.59097453  1
  N  N364  1  0.55290884  0.38647833  0.59430237  1
  N  N365  1  0.54933701  0.72671837  0.58982537  1
  N  N366  1  0.42276014  0.27647609  0.09766972  1
  N  N367  1  0.45365062  0.61053188  0.08283841  1
  N  N368  1  0.42987908  0.94878338  0.10443967  1
  N  N369  1  0.92771550  0.28134741  0.10366521  1
  N  N370  1  0.94022728  0.61655639  0.09619068  1
  N  N371  1  0.93801677  0.93627242  0.08541264  1
  N  N372  1  0.43085104  0.05644365  0.90937460  1
  N  N373  1  0.43508838  0.39174805  0.89143696  1
  N  N374  1  0.43785213  0.72306172  0.90325368  1
  N  N375  1  0.93124265  0.05187944  0.88982373  1
  N  N376  1  0.93974772  0.39634238  0.91879546  1
  N  N377  1  0.94561275  0.72452033  0.92020613  1
  N  N378  1  0.07095873  0.27635983  0.40427746  1
  N  N379  1  0.06808682  0.61072291  0.40643791  1
  N  N380  1  0.04912624  0.94079201  0.41157559  1
  N  N381  1  0.57101798  0.28116797  0.39625170  1
  N  N382  1  0.56110979  0.60741830  0.40824145  1
  N  N383  1  0.55603276  0.94304412  0.39924012  1
  N  N384  1  0.30669215  0.22581464  0.58874639  1
  N  N385  1  0.30511030  0.56335004  0.58070282  1
  N  N386  1  0.32291326  0.88642478  0.60875475  1
  N  N387  1  0.80599986  0.22738477  0.59053090  1
  N  N388  1  0.81890353  0.55289107  0.60589008  1
  N  N389  1  0.82215917  0.88855406  0.60171919  1
  N  N390  1  0.19730325  0.10845460  0.09078436  1
  N  N391  1  0.18067934  0.44561673  0.10447545  1
  N  N392  1  0.17927159  0.77942222  0.09788795  1
  N  N393  1  0.69055343  0.11151835  0.10205255  1
  N  N394  1  0.69275403  0.44499156  0.08446639  1
  N  N395  1  0.68535899  0.77673092  0.09367108  1
  N  N396  1  0.19882088  0.22677365  0.90824140  1
  N  N397  1  0.17888407  0.55526724  0.89001638  1
  N  N398  1  0.19006961  0.88702564  0.91288098  1
  N  N399  1  0.69448782  0.22507575  0.90911550  1
  N  N400  1  0.68019089  0.56237321  0.91281046  1
  N  N401  1  0.68981116  0.88884223  0.90000897  1
  N  N402  1  0.31268468  0.11372193  0.40812175  1
  N  N403  1  0.32307616  0.44228852  0.39099990  1
  N  N404  1  0.32359270  0.77805682  0.39973635  1
  N  N405  1  0.81469688  0.11476928  0.40144146  1
  N  N406  1  0.82844736  0.44793236  0.40021879  1
  N  N407  1  0.82823239  0.77967243  0.39827743  1
  N  N408  1  0.44285427  0.27600970  0.41207898  1
  N  N409  1  0.43430151  0.61061462  0.39522595  1
  N  N410  1  0.42947531  0.94398490  0.40111663  1
  N  N411  1  0.94317746  0.27655022  0.39941483  1
  N  N412  1  0.93826276  0.61018651  0.40956915  1
  N  N413  1  0.92203728  0.94873675  0.39115944  1
  N  N414  1  0.05652341  0.05567276  0.90915162  1
  N  N415  1  0.06661732  0.38524653  0.90542094  1
  N  N416  1  0.07180676  0.71910171  0.89640828  1
  N  N417  1  0.56068772  0.05658156  0.90384286  1
  N  N418  1  0.56322862  0.38549578  0.90334354  1
  N  N419  1  0.56512566  0.72466940  0.90836844  1
  N  N420  1  0.05395525  0.27409568  0.08918196  1
  N  N421  1  0.07002563  0.61458453  0.09943872  1
  N  N422  1  0.06325360  0.94528334  0.10472896  1
  N  N423  1  0.55058832  0.27370693  0.08479053  1
  N  N424  1  0.57882551  0.61168363  0.09995035  1
  N  N425  1  0.55270098  0.94024207  0.07943116  1
  N  N426  1  0.43388636  0.05337245  0.61054696  1
  N  N427  1  0.42379367  0.38094014  0.60651534  1
  N  N428  1  0.42221907  0.72085139  0.60424091  1
  N  N429  1  0.94262142  0.05862070  0.58850680  1
  N  N430  1  0.91255240  0.38432330  0.60179207  1
  N  N431  1  0.92638359  0.71949671  0.59907989  1
  N  N432  1  0.18620352  0.11052728  0.40436601  1
  N  N433  1  0.19868375  0.44548454  0.41075889  1
  N  N434  1  0.19641000  0.77226498  0.41063841  1
  N  N435  1  0.68554838  0.11318712  0.39940122  1
  N  N436  1  0.69879418  0.44259260  0.40915585  1
  N  N437  1  0.70249478  0.77818861  0.41582734  1
  N  N438  1  0.32425682  0.21957159  0.89672738  1
  N  N439  1  0.30169676  0.55748633  0.91474506  1
  N  N440  1  0.31987349  0.88704316  0.90594873  1
  N  N441  1  0.82316535  0.22135728  0.90705400  1
  N  N442  1  0.80974691  0.55730158  0.90400456  1
  N  N443  1  0.81596719  0.88635015  0.90689539  1
  N  N444  1  0.32377287  0.11574467  0.11262208  1
  N  N445  1  0.30524444  0.43984117  0.07859158  1
  N  N446  1  0.30695327  0.77658819  0.09617338  1
  N  N447  1  0.81679013  0.10474686  0.08780706  1
  N  N448  1  0.81681692  0.44904315  0.10545627  1
  N  N449  1  0.81196520  0.77695028  0.09137911  1
  N  N450  1  0.17947952  0.22054679  0.60063394  1
  N  N451  1  0.18207866  0.55662744  0.60542767  1
  N  N452  1  0.19363207  0.88735109  0.59605236  1
  N  N453  1  0.67740875  0.22088430  0.60516717  1
  N  N454  1  0.69373914  0.55807363  0.59361355  1
  N  N455  1  0.69479970  0.89170096  0.59379457  1
  Cl  Cl456  1  0.25007404  0.05431897  0.63393559  1
  Cl  Cl457  1  0.22726435  0.39651259  0.60162234  1
  Cl  Cl458  1  0.23784706  0.72022409  0.61056496  1
  Cl  Cl459  1  0.75367431  0.06163273  0.59801922  1
  Cl  Cl460  1  0.73171999  0.39360506  0.62820733  1
  Cl  Cl461  1  0.73380635  0.73122536  0.60644846  1
  Cl  Cl462  1  0.24020273  0.28021354  0.11706433  1
  Cl  Cl463  1  0.27288238  0.59964200  0.10105478  1
  Cl  Cl464  1  0.24861965  0.94739116  0.12743118  1
  Cl  Cl465  1  0.73684894  0.27634459  0.10653914  1
  Cl  Cl466  1  0.76024731  0.60941951  0.12017601  1
  Cl  Cl467  1  0.74302407  0.93675691  0.10781253  1
  Cl  Cl468  1  0.24389300  0.05423861  0.89574822  1
  Cl  Cl469  1  0.25246578  0.39452292  0.88839378  1
  Cl  Cl470  1  0.25906639  0.72069678  0.87642332  1
  Cl  Cl471  1  0.74666653  0.06106272  0.86850610  1
  Cl  Cl472  1  0.74769138  0.39433028  0.89903332  1
  Cl  Cl473  1  0.75226104  0.71969041  0.87970736  1
  Cl  Cl474  1  0.25686470  0.27749151  0.38373789  1
  Cl  Cl475  1  0.25033697  0.61274288  0.38435771  1
  Cl  Cl476  1  0.23962132  0.93988912  0.39321379  1
  Cl  Cl477  1  0.75942359  0.27781934  0.37387930  1
  Cl  Cl478  1  0.74701994  0.61749796  0.38489091  1
  Cl  Cl479  1  0.73851614  0.95017305  0.37189008  1
  Cl  Cl480  1  -0.00663349  0.22484497  0.62091313  1
  Cl  Cl481  1  0.00348668  0.55528095  0.62053085  1
  Cl  Cl482  1  0.00868523  0.88138042  0.61774750  1
  Cl  Cl483  1  0.49069395  0.22063579  0.62145349  1
  Cl  Cl484  1  0.50583542  0.55723352  0.60917742  1
  Cl  Cl485  1  0.51106139  0.88604565  0.62334895  1
  Cl  Cl486  1  0.00748675  0.10621125  0.10787089  1
  Cl  Cl487  1  -0.00041243  0.45049926  0.12143681  1
  Cl  Cl488  1  -0.00501966  0.78215712  0.11960035  1
  Cl  Cl489  1  0.50933250  0.12039882  0.12543613  1
  Cl  Cl490  1  0.50443867  0.43376586  0.09368922  1
  Cl  Cl491  1  0.49328487  0.77819656  0.11660767  1
  Cl  Cl492  1  0.01139227  0.22435158  0.88981407  1
  Cl  Cl493  1  -0.00647881  0.54562342  0.88234343  1
  Cl  Cl494  1  0.00106643  0.88422680  0.88590140  1
  Cl  Cl495  1  0.51032346  0.22392662  0.89046149  1
  Cl  Cl496  1  0.48381421  0.56344246  0.89409447  1
  Cl  Cl497  1  0.50593721  0.89482885  0.89192854  1
  Cl  Cl498  1  -0.00175098  0.10615665  0.38082048  1
  Cl  Cl499  1  0.01758767  0.44574487  0.38717514  1
  Cl  Cl500  1  0.01170750  0.77327511  0.38568978  1
  Cl  Cl501  1  0.49950452  0.11525154  0.39132086  1
  Cl  Cl502  1  0.51362719  0.44045896  0.37438948  1
  Cl  Cl503  1  0.51895357  0.77166454  0.38852389  1
  Cl  Cl504  1  0.36063625  0.14598011  0.75916696  1
  Cl  Cl505  1  0.36296164  0.47749632  0.74327804  1
  Cl  Cl506  1  0.36858496  0.81148754  0.74843803  1
  Cl  Cl507  1  0.85963998  0.15022504  0.75095260  1
  Cl  Cl508  1  0.85861006  0.48191258  0.74577125  1
  Cl  Cl509  1  0.86411291  0.81028608  0.73724608  1
  Cl  Cl510  1  0.14022714  0.18299558  0.25660046  1
  Cl  Cl511  1  0.14582010  0.51603613  0.23973141  1
  Cl  Cl512  1  0.14248843  0.85099271  0.25090303  1
  Cl  Cl513  1  0.64362142  0.18309103  0.25086724  1
  Cl  Cl514  1  0.64367125  0.51686711  0.25032008  1
  Cl  Cl515  1  0.64767567  0.84330566  0.24924952  1
  Cl  Cl516  1  0.13974938  0.15136066  0.74896109  1
  Cl  Cl517  1  0.14263879  0.48376920  0.75046712  1
  Cl  Cl518  1  0.14235720  0.81994931  0.75742027  1
  Cl  Cl519  1  0.63568556  0.15084235  0.74525481  1
  Cl  Cl520  1  0.63114564  0.48196592  0.76586434  1
  Cl  Cl521  1  0.64361142  0.81695735  0.75503124  1
  Cl  Cl522  1  0.36538727  0.18738064  0.24674965  1
  Cl  Cl523  1  0.36567967  0.52121619  0.25682260  1
  Cl  Cl524  1  0.36176156  0.85639434  0.25714594  1
  Cl  Cl525  1  0.86423061  0.19088446  0.24080563  1
  Cl  Cl526  1  0.86305495  0.51744932  0.25383231  1
  Cl  Cl527  1  0.87025308  0.85576413  0.26158724  1
  Cl  Cl528  1  0.10747505  0.31920808  0.76069854  1
  Cl  Cl529  1  0.11139892  0.64794368  0.75756384  1
  Cl  Cl530  1  0.10637529  0.98337193  0.74338595  1
  Cl  Cl531  1  0.61071106  0.31325621  0.74910739  1
  Cl  Cl532  1  0.60141238  0.65240857  0.75045123  1
  Cl  Cl533  1  0.61222259  0.98394688  0.75805808  1
  Cl  Cl534  1  0.38694152  0.02228811  0.24111802  1
  Cl  Cl535  1  0.38612499  0.35463435  0.24724877  1
  Cl  Cl536  1  0.38223468  0.68978826  0.26000458  1
  Cl  Cl537  1  0.87988883  0.02285559  0.25178272  1
  Cl  Cl538  1  0.88906479  0.35429924  0.24844196  1
  Cl  Cl539  1  0.89468083  0.68303614  0.25560442  1
  Cl  Cl540  1  0.38269548  0.31387916  0.75603653  1
  Cl  Cl541  1  0.37598395  0.64240478  0.73780850  1
  Cl  Cl542  1  0.38878284  0.98214622  0.75080444  1
  Cl  Cl543  1  0.88559322  0.31657371  0.75770346  1
  Cl  Cl544  1  0.89089161  0.64771671  0.73904039  1
  Cl  Cl545  1  0.88450908  0.98183612  0.75220941  1
  Cl  Cl546  1  0.10371446  0.01548174  0.24334247  1
  Cl  Cl547  1  0.11019790  0.35084320  0.24631474  1
  Cl  Cl548  1  0.11639712  0.68331636  0.24577423  1
  Cl  Cl549  1  0.60746987  0.01513243  0.24572171  1
  Cl  Cl550  1  0.60428477  0.34893665  0.24342374  1
  Cl  Cl551  1  0.60299026  0.68142050  0.24211144  1
