# generated using pymatgen
data_H8PbC4(N3Cl2)2
_symmetry_space_group_name_H-M   'P 1'
_cell_length_a   16.62367488
_cell_length_b   22.51119534
_cell_length_c   21.59238158
_cell_angle_alpha   89.99923879
_cell_angle_beta   90.01370113
_cell_angle_gamma   90.00753424
_symmetry_Int_Tables_number   1
_chemical_formula_structural   H8PbC4(N3Cl2)2
_chemical_formula_sum   'H192 Pb24 C96 N144 Cl96'
_cell_volume   8080.27465977
_cell_formula_units_Z   24
loop_
 _symmetry_equiv_pos_site_id
 _symmetry_equiv_pos_as_xyz
  1  'x, y, z'
loop_
 _atom_site_type_symbol
 _atom_site_label
 _atom_site_symmetry_multiplicity
 _atom_site_fract_x
 _atom_site_fract_y
 _atom_site_fract_z
 _atom_site_occupancy
  H  H0  1  -0.00436810  0.02824577  0.68104286  1
  H  H1  1  0.00613828  0.36525662  0.68268904  1
  H  H2  1  -0.01375860  0.69762833  0.68224620  1
  H  H3  1  0.49926969  0.02916691  0.67462124  1
  H  H4  1  0.50683818  0.36432840  0.67641323  1
  H  H5  1  0.51434044  0.69831549  0.67291019  1
  H  H6  1  0.01265661  0.30429919  0.17645156  1
  H  H7  1  0.00895739  0.63620720  0.17997974  1
  H  H8  1  0.00646854  0.96917683  0.17505468  1
  H  H9  1  0.49155813  0.30449743  0.18237859  1
  H  H10  1  0.48499813  0.63351337  0.17572475  1
  H  H11  1  0.50681538  0.96913119  0.18044751  1
  H  H12  1  0.00064858  0.02939904  0.82046669  1
  H  H13  1  -0.00520982  0.36063696  0.82261968  1
  H  H14  1  0.00797292  0.69667987  0.82331791  1
  H  H15  1  0.49639017  0.03250893  0.81940753  1
  H  H16  1  0.50127479  0.36620817  0.82016021  1
  H  H17  1  0.50129139  0.69861910  0.82021612  1
  H  H18  1  -0.00866686  0.30417434  0.31840564  1
  H  H19  1  -0.00282030  0.63589194  0.31896121  1
  H  H20  1  0.01105140  0.96826451  0.31712862  1
  H  H21  1  0.51185511  0.30415042  0.31988394  1
  H  H22  1  0.50417994  0.63550687  0.32189663  1
  H  H23  1  0.49350962  0.97016283  0.32302546  1
  H  H24  1  0.24703558  0.19716580  0.67541612  1
  H  H25  1  0.24568376  0.52969507  0.67832057  1
  H  H26  1  0.24449790  0.86428399  0.68129457  1
  H  H27  1  0.75908926  0.19800364  0.68253852  1
  H  H28  1  0.74830150  0.52808791  0.67960139  1
  H  H29  1  0.76032466  0.86391821  0.68048562  1
  H  H30  1  0.24973954  0.13863377  0.17727646  1
  H  H31  1  0.25625751  0.47014235  0.17700571  1
  H  H32  1  0.26382665  0.80292585  0.17840723  1
  H  H33  1  0.75718015  0.13778525  0.17906759  1
  H  H34  1  0.74632068  0.47217145  0.17754686  1
  H  H35  1  0.73198156  0.79973564  0.17457716  1
  H  H36  1  0.25977183  0.19953959  0.82045348  1
  H  H37  1  0.24724247  0.52659636  0.82299733  1
  H  H38  1  0.24896169  0.86403064  0.82471033  1
  H  H39  1  0.73243463  0.19638489  0.82145482  1
  H  H40  1  0.74901295  0.52988010  0.82045859  1
  H  H41  1  0.74790669  0.86026909  0.82251950  1
  H  H42  1  0.24400067  0.13710862  0.31984781  1
  H  H43  1  0.24206070  0.46998404  0.32363319  1
  H  H44  1  0.23942957  0.79993849  0.32186414  1
  H  H45  1  0.76025499  0.13349297  0.32111427  1
  H  H46  1  0.75278518  0.46975975  0.31947435  1
  H  H47  1  0.75906591  0.80308403  0.32128324  1
  H  H48  1  0.12924239  0.05181141  0.62190548  1
  H  H49  1  0.12200062  0.38897939  0.60340992  1
  H  H50  1  0.12541045  0.71679926  0.62604174  1
  H  H51  1  0.63111520  0.05334453  0.61277980  1
  H  H52  1  0.61654267  0.39319229  0.59478862  1
  H  H53  1  0.61732532  0.72684776  0.58788731  1
  H  H54  1  0.36841977  0.28246065  0.11063233  1
  H  H55  1  0.37525534  0.60827928  0.09577481  1
  H  H56  1  0.37204974  0.94866359  0.11854275  1
  H  H57  1  0.87712948  0.28508626  0.12169154  1
  H  H58  1  0.86964241  0.62049337  0.12682005  1
  H  H59  1  0.86898729  0.94703795  0.11889928  1
  H  H60  1  0.38861965  0.05726429  0.90206001  1
  H  H61  1  0.36742140  0.38302716  0.88218150  1
  H  H62  1  0.38563281  0.71988682  0.89705032  1
  H  H63  1  0.89061973  0.05793400  0.90076913  1
  H  H64  1  0.87177596  0.38943949  0.89472646  1
  H  H65  1  0.87646056  0.71901736  0.88476426  1
  H  H66  1  0.12952253  0.28344405  0.37507828  1
  H  H67  1  0.12104503  0.61219425  0.38792313  1
  H  H68  1  0.12142838  0.94249495  0.39826798  1
  H  H69  1  0.62800268  0.27762012  0.39664563  1
  H  H70  1  0.61468781  0.61193844  0.40199789  1
  H  H71  1  0.62456284  0.94564606  0.38780552  1
  H  H72  1  0.37173617  0.21777836  0.60553223  1
  H  H73  1  0.38182965  0.55206264  0.61929022  1
  H  H74  1  0.37794869  0.88561506  0.61770515  1
  H  H75  1  0.86789850  0.22342509  0.60003761  1
  H  H76  1  0.87805580  0.55265602  0.61352737  1
  H  H77  1  0.87471695  0.89026604  0.60264813  1
  H  H78  1  0.11516304  0.11722729  0.11644413  1
  H  H79  1  0.12955338  0.44414353  0.10927541  1
  H  H80  1  0.12274083  0.78568086  0.12575939  1
  H  H81  1  0.62092641  0.11621012  0.12166248  1
  H  H82  1  0.63317767  0.44670669  0.09672806  1
  H  H83  1  0.62925033  0.77434467  0.08962923  1
  H  H84  1  0.12240956  0.21616829  0.87737077  1
  H  H85  1  0.13345309  0.55444493  0.90247260  1
  H  H86  1  0.13234324  0.89162522  0.89952711  1
  H  H87  1  0.63138041  0.22657899  0.90930237  1
  H  H88  1  0.63083438  0.55534944  0.89362207  1
  H  H89  1  0.63598331  0.88762294  0.90295926  1
  H  H90  1  0.37034166  0.11151245  0.38912174  1
  H  H91  1  0.38137366  0.44969974  0.37714000  1
  H  H92  1  0.37830989  0.78241045  0.37634730  1
  H  H93  1  0.86025577  0.10801956  0.40773792  1
  H  H94  1  0.87813954  0.44705818  0.39041880  1
  H  H95  1  0.87211833  0.77555999  0.40107955  1
  H  H96  1  0.37983984  0.28086575  0.38309246  1
  H  H97  1  0.36683919  0.61528416  0.37803296  1
  H  H98  1  0.37665743  0.94282448  0.39934847  1
  H  H99  1  0.88327928  0.27711420  0.40082635  1
  H  H100  1  0.87126976  0.61488905  0.38778552  1
  H  H101  1  0.87423734  0.94930593  0.37690829  1
  H  H102  1  0.13750791  0.05101028  0.87889664  1
  H  H103  1  0.12040081  0.38407647  0.89393400  1
  H  H104  1  0.12494035  0.72532152  0.89973206  1
  H  H105  1  0.63473663  0.04863376  0.87391210  1
  H  H106  1  0.61609701  0.39210596  0.89590720  1
  H  H107  1  0.63436162  0.71675027  0.88260098  1
  H  H108  1  0.12291210  0.27877348  0.09588052  1
  H  H109  1  0.11550232  0.60721719  0.09827737  1
  H  H110  1  0.11545414  0.94024428  0.09480102  1
  H  H111  1  0.61822888  0.27723015  0.11406388  1
  H  H112  1  0.62145288  0.61995700  0.11886965  1
  H  H113  1  0.62015454  0.94213175  0.10189174  1
  H  H114  1  0.38323690  0.05736873  0.59979900  1
  H  H115  1  0.37008754  0.38503532  0.61690762  1
  H  H116  1  0.37328980  0.71719455  0.62127922  1
  H  H117  1  0.88115731  0.05643553  0.60293323  1
  H  H118  1  0.87390212  0.38714811  0.61634665  1
  H  H119  1  0.87926348  0.72256247  0.59780023  1
  H  H120  1  0.12224128  0.11127172  0.39249868  1
  H  H121  1  0.13579467  0.44138770  0.40774046  1
  H  H122  1  0.13171341  0.77491502  0.40336889  1
  H  H123  1  0.61666092  0.11738009  0.36856077  1
  H  H124  1  0.62866618  0.44662121  0.39084489  1
  H  H125  1  0.62433381  0.78029087  0.37973803  1
  H  H126  1  0.36928944  0.22439243  0.90046211  1
  H  H127  1  0.38104177  0.55127487  0.88463352  1
  H  H128  1  0.38074596  0.88657759  0.88823509  1
  H  H129  1  0.87417527  0.21613304  0.87222588  1
  H  H130  1  0.87998683  0.55129831  0.88448248  1
  H  H131  1  0.88307923  0.88281875  0.88083680  1
  H  H132  1  0.36251077  0.10949199  0.09873037  1
  H  H133  1  0.37859542  0.44707770  0.10453042  1
  H  H134  1  0.36596759  0.77205407  0.09170744  1
  H  H135  1  0.86636465  0.10794335  0.09681664  1
  H  H136  1  0.88027086  0.44610733  0.11773130  1
  H  H137  1  0.87290849  0.78547910  0.12413333  1
  H  H138  1  0.12375613  0.22538332  0.60595986  1
  H  H139  1  0.13588218  0.55657475  0.59636237  1
  H  H140  1  0.12951236  0.88874992  0.60287942  1
  H  H141  1  0.62109277  0.21670440  0.62396657  1
  H  H142  1  0.62946904  0.55610314  0.60660325  1
  H  H143  1  0.62677054  0.88394752  0.61778410  1
  H  H144  1  0.60119201  0.08494546  0.50266537  1
  H  H145  1  0.39751078  0.41470209  0.50871339  1
  H  H146  1  0.09962233  0.08225584  0.50978910  1
  H  H147  1  0.55625651  0.91142788  -0.00286970  1
  H  H148  1  0.30265242  0.25231846  1.00831521  1
  H  H149  1  0.55615800  0.42341064  1.00463884  1
  H  H150  1  0.57140846  0.26055389  0.00552793  1
  H  H151  1  0.06779349  0.75314004  1.00102548  1
  H  H152  1  0.88368514  0.58721988  0.01357059  1
  H  H153  1  0.91283985  0.58305390  0.49723705  1
  H  H154  1  0.79240808  0.08610095  -0.00483007  1
  H  H155  1  0.55076880  0.58061448  0.50771618  1
  H  H156  1  0.19324118  0.91499791  0.49589151  1
  H  H157  1  0.81265139  0.91960696  0.49724490  1
  H  H158  1  0.78187366  0.08193434  0.51103444  1
  H  H159  1  0.14652090  0.08180387  0.01089191  1
  H  H160  1  0.41888790  0.26187292  -0.00169100  1
  H  H161  1  0.82924122  0.41848975  0.49901194  1
  H  H162  1  0.95887427  0.08609691  1.00558789  1
  H  H163  1  0.32316488  0.26007143  0.50729997  1
  H  H164  1  0.44384858  0.74460746  1.00744158  1
  H  H165  1  0.34370366  0.91754871  0.99474439  1
  H  H166  1  0.61644283  0.07466766  -0.01176144  1
  H  H167  1  0.35663834  0.58147282  0.51090498  1
  H  H168  1  0.90449471  0.75117845  0.99679771  1
  H  H169  1  0.89284836  0.91602172  0.00973409  1
  H  H170  1  0.71534060  0.24734421  1.00744872  1
  H  H171  1  0.38881353  0.74953164  0.51048561  1
  H  H172  1  0.58415656  0.91605070  0.49317617  1
  H  H173  1  0.04569326  0.57765955  -0.00620412  1
  H  H174  1  0.28500401  0.74706969  -0.00573465  1
  H  H175  1  0.79755933  0.25124623  0.49593466  1
  H  H176  1  0.89912037  0.25499917  1.00609674  1
  H  H177  1  0.80370304  0.74672584  0.50251695  1
  H  H178  1  0.20332766  0.57837659  1.00537045  1
  H  H179  1  0.32176394  0.08488211  0.49447349  1
  H  H180  1  0.29362166  0.09025149  -0.00458727  1
  H  H181  1  0.70427571  0.42041756  -0.00513176  1
  H  H182  1  0.95471777  0.25045103  0.50493366  1
  H  H183  1  0.94492001  0.07833425  0.49913861  1
  H  H184  1  0.95262285  0.74968457  0.49479495  1
  H  H185  1  0.07628492  0.58195687  0.49834194  1
  H  H186  1  0.45701443  0.08201501  1.00829433  1
  H  H187  1  0.05190653  0.91384734  0.50326872  1
  H  H188  1  0.68227722  0.58887520  1.00152659  1
  H  H189  1  0.56796432  0.24828358  0.50252218  1
  H  H190  1  0.19810693  0.74667362  0.50898482  1
  H  H191  1  0.17040966  0.24624738  0.50101679  1
  Pb  Pb192  1  0.26072749  0.04951758  0.75148819  1
  Pb  Pb193  1  0.24922110  0.37898971  0.74886671  1
  Pb  Pb194  1  0.25775310  0.71527490  0.76000175  1
  Pb  Pb195  1  0.75557796  0.04635976  0.75448736  1
  Pb  Pb196  1  0.75522762  0.38281917  0.75100887  1
  Pb  Pb197  1  0.75348962  0.71260931  0.73600978  1
  Pb  Pb198  1  0.24774063  0.28777669  0.24994799  1
  Pb  Pb199  1  0.24652750  0.61775581  0.24096229  1
  Pb  Pb200  1  0.24434733  0.94810562  0.24976996  1
  Pb  Pb201  1  0.74714977  0.28454080  0.25253071  1
  Pb  Pb202  1  0.74471385  0.61867177  0.25648652  1
  Pb  Pb203  1  0.74306822  0.95111729  0.24922845  1
  Pb  Pb204  1  0.00140190  0.21156883  0.74125183  1
  Pb  Pb205  1  0.00836700  0.54927562  0.74784203  1
  Pb  Pb206  1  0.00596130  0.88160766  0.74847782  1
  Pb  Pb207  1  0.50583537  0.21690431  0.75952486  1
  Pb  Pb208  1  0.50222051  0.54690299  0.75023459  1
  Pb  Pb209  1  0.50764005  0.88041000  0.75372656  1
  Pb  Pb210  1  -0.00642037  0.11580803  0.25492506  1
  Pb  Pb211  1  -0.00155274  0.45214461  0.25509002  1
  Pb  Pb212  1  -0.00651887  0.78427793  0.25663044  1
  Pb  Pb213  1  0.49083120  0.11741362  0.24851624  1
  Pb  Pb214  1  0.49992769  0.45385965  0.24565799  1
  Pb  Pb215  1  0.49704608  0.78452688  0.24135683  1
  C  C216  1  0.00180299  0.04431057  0.63373470  1
  C  C217  1  0.00048679  0.38013979  0.63505424  1
  C  C218  1  -0.00279708  0.71231673  0.63513687  1
  C  C219  1  0.50515461  0.04564576  0.62774324  1
  C  C220  1  0.49747498  0.38024003  0.62953590  1
  C  C221  1  0.50105609  0.71405079  0.62659055  1
  C  C222  1  0.00328482  0.28962538  0.12926902  1
  C  C223  1  -0.00239559  0.62140624  0.13289970  1
  C  C224  1  -0.00356893  0.95284529  0.12847760  1
  C  C225  1  0.49340926  0.28947186  0.13453128  1
  C  C226  1  0.49409840  0.62037960  0.12802476  1
  C  C227  1  0.49937484  0.95342659  0.13319688  1
  C  C228  1  0.01012281  0.04482709  0.86755483  1
  C  C229  1  -0.00456678  0.37733484  0.86972138  1
  C  C230  1  0.00352526  0.71342622  0.87046976  1
  C  C231  1  0.50709199  0.04580001  0.86712027  1
  C  C232  1  0.49515145  0.38040002  0.86786595  1
  C  C233  1  0.50678325  0.71175454  0.86827091  1
  C  C234  1  0.00171860  0.28855647  0.36527286  1
  C  C235  1  -0.00354446  0.62067944  0.36672173  1
  C  C236  1  0.00186970  0.95377845  0.36456937  1
  C  C237  1  0.50641462  0.28813053  0.36706523  1
  C  C238  1  0.49551681  0.62068379  0.36917680  1
  C  C239  1  0.49861514  0.95346669  0.37001197  1
  C  C240  1  0.24742036  0.21328144  0.62797412  1
  C  C241  1  0.25494412  0.54540934  0.63139773  1
  C  C242  1  0.25085823  0.87941414  0.63385635  1
  C  C243  1  0.74903522  0.21257116  0.63522648  1
  C  C244  1  0.75230480  0.54517380  0.63298497  1
  C  C245  1  0.75369650  0.87931505  0.63314929  1
  C  C246  1  0.24226070  0.12209270  0.13021837  1
  C  C247  1  0.25465147  0.45384555  0.12999186  1
  C  C248  1  0.25125065  0.78773118  0.13171355  1
  C  C249  1  0.74842882  0.12123546  0.13245457  1
  C  C250  1  0.75286089  0.45577030  0.13058028  1
  C  C251  1  0.74510796  0.78655861  0.12747368  1
  C  C252  1  0.25064458  0.21307022  0.86808208  1
  C  C253  1  0.25354930  0.54308078  0.86996780  1
  C  C254  1  0.25450982  0.88047565  0.87165768  1
  C  C255  1  0.74552705  0.21224973  0.86786401  1
  C  C256  1  0.75285209  0.54545160  0.86783534  1
  C  C257  1  0.75551537  0.87677865  0.86925712  1
  C  C258  1  0.24573003  0.12057501  0.36702235  1
  C  C259  1  0.25299670  0.45397373  0.37013020  1
  C  C260  1  0.24957117  0.78599270  0.36928883  1
  C  C261  1  0.74542411  0.12015236  0.36819355  1
  C  C262  1  0.75331689  0.45455484  0.36711527  1
  C  C263  1  0.75216528  0.78752870  0.36836005  1
  C  C264  1  0.02729250  0.26177045  0.03294374  1
  C  C265  1  0.80782481  0.90384715  0.95776266  1
  C  C266  1  0.51729527  0.74606982  0.52983190  1
  C  C267  1  0.72065889  0.57711589  0.54028882  1
  C  C268  1  0.52249286  0.40949354  0.96388755  1
  C  C269  1  0.95422554  0.59369062  0.45978231  1
  C  C270  1  0.56806267  0.06689831  0.95526257  1
  C  C271  1  0.47426255  0.07765006  0.53332504  1
  C  C272  1  0.47132443  0.59404715  0.03192890  1
  C  C273  1  0.22586142  0.90557938  0.53852786  1
  C  C274  1  0.67491999  0.09767457  0.45249829  1
  C  C275  1  0.95204130  0.74109404  0.96037531  1
  C  C276  1  0.43671693  0.59517328  0.45678510  1
  C  C277  1  0.73090930  0.75987967  0.03039834  1
  C  C278  1  0.01938833  0.92036094  0.03279762  1
  C  C279  1  0.69561336  0.75712201  0.45603919  1
  C  C280  1  0.55937787  0.73404912  0.95913272  1
  C  C281  1  0.72115990  0.57547594  0.96293507  1
  C  C282  1  0.98132821  0.73915335  0.53884564  1
  C  C283  1  0.98414850  0.26036658  0.46101507  1
  C  C284  1  0.19133641  0.23738064  0.95586106  1
  C  C285  1  0.47826907  0.73551227  0.96565346  1
  C  C286  1  0.79017305  0.42835601  0.45995095  1
  C  C287  1  0.22211637  0.91241084  0.96590747  1
  C  C288  1  0.52321840  0.92450134  0.03849184  1
  C  C289  1  0.81001251  0.76367146  0.04213946  1
  C  C290  1  0.51749658  0.59280292  0.46618653  1
  C  C291  1  0.93487846  0.59601701  0.04633037  1
  C  C292  1  0.31103939  0.76246131  0.45651971  1
  C  C293  1  0.23063632  0.75886091  0.46708450  1
  C  C294  1  0.55164981  0.59800289  0.03970617  1
  C  C295  1  0.48734612  0.07055696  0.96516329  1
  C  C296  1  0.01575321  0.59124646  0.03635688  1
  C  C297  1  0.02188818  0.92599613  0.46019906  1
  C  C298  1  0.27181833  0.24030157  0.96561710  1
  C  C299  1  0.53328393  0.26018579  0.46161684  1
  C  C300  1  0.03643059  0.59320382  0.46022519  1
  C  C301  1  0.94624813  0.26382362  0.04013978  1
  C  C302  1  0.77871030  0.90781536  0.53853285  1
  C  C303  1  0.45446103  0.26570991  0.04038516  1
  C  C304  1  0.28958881  0.42358307  0.03787483  1
  C  C305  1  0.80236554  0.57272077  0.95829008  1
  C  C306  1  0.98950092  0.07297237  0.96302236  1
  C  C307  1  0.76761862  0.23993500  0.53930051  1
  C  C308  1  0.44133345  0.40545397  0.95758896  1
  C  C309  1  0.31103770  0.42714021  0.45654356  1
  C  C310  1  0.75474249  0.09389164  0.46679021  1
  C  C311  1  0.05537919  0.07275456  0.54550465  1
  N  N312  1  0.55316633  0.07548335  0.53848922  1
  N  N313  1  0.23461820  0.42366434  0.46747261  1
  N  N314  1  0.73645068  0.24241677  0.96231251  1
  N  N315  1  0.03173343  0.74311349  0.96382000  1
  N  N316  1  0.44444719  0.40681695  0.54267647  1
  N  N317  1  0.21217939  0.42249220  0.03803353  1
  N  N318  1  0.81280203  0.23902507  0.95089325  1
  N  N319  1  0.44011756  0.74176012  0.54183091  1
  N  N320  1  0.30815545  0.57289762  0.95749743  1
  N  N321  1  0.94133658  0.92392984  0.04189964  1
  N  N322  1  0.94309038  0.92872770  0.45330266  1
  N  N323  1  0.80828339  0.42512577  0.04364646  1
  N  N324  1  0.30471406  0.90569423  0.54374586  1
  N  N325  1  0.76673679  0.09148469  0.03863054  1
  N  N326  1  0.23051625  0.57457138  0.53570293  1
  N  N327  1  0.20594627  0.09334620  0.46038298  1
  N  N328  1  0.06265788  0.26086027  0.45232402  1
  N  N329  1  0.30097057  0.90972790  0.96089873  1
  N  N330  1  0.68901622  0.23817494  0.54720452  1
  N  N331  1  0.54315814  0.92454352  0.45850359  1
  N  N332  1  0.71084798  0.42759211  0.46062363  1
  N  N333  1  0.95306293  0.40564187  0.54342996  1
  N  N334  1  0.18961987  0.09916874  0.04181403  1
  N  N335  1  0.26724383  0.08749205  0.03855914  1
  N  N336  1  0.03513804  0.40658538  0.96223476  1
  N  N337  1  0.68961474  0.09449713  0.04608113  1
  N  N338  1  0.95904524  0.40848658  0.96236500  1
  N  N339  1  0.44417207  0.92753822  0.04336790  1
  N  N340  1  0.26143216  0.75703230  0.03762258  1
  N  N341  1  0.23050018  0.57376094  0.96258087  1
  N  N342  1  0.97604825  0.07467262  0.54013879  1
  N  N343  1  0.30785351  0.57284091  0.54480814  1
  N  N344  1  0.46524356  0.92387643  0.46405271  1
  N  N345  1  0.73080009  0.90652468  0.96590012  1
  N  N346  1  0.45400026  0.26148202  0.45784096  1
  N  N347  1  0.28702720  0.23387363  0.53463700  1
  N  N348  1  0.52177223  0.40985111  0.53393623  1
  N  N349  1  0.05970166  0.73775122  0.54810983  1
  N  N350  1  0.79817399  0.57577221  0.54137397  1
  N  N351  1  0.18468699  0.76274458  0.04732879  1
  N  N352  1  0.73069662  0.42533025  0.03777729  1
  N  N353  1  0.53383513  0.26260536  0.04299095  1
  N  N354  1  0.02942983  0.40675188  0.53936610  1
  N  N355  1  0.28419111  0.09202815  0.45746426  1
  N  N356  1  0.77406928  0.75687928  0.46217849  1
  N  N357  1  0.20884740  0.24735127  0.53871578  1
  N  N358  1  0.69947696  0.90583360  0.54309297  1
  N  N359  1  0.06809455  0.06961334  0.95628564  1
  N  N360  1  0.07158679  0.05542720  0.60407316  1
  N  N361  1  0.06011451  0.39124570  0.59585600  1
  N  N362  1  0.06755507  0.72128736  0.60803529  1
  N  N363  1  0.57238645  0.05532120  0.59689835  1
  N  N364  1  0.55458348  0.39356038  0.58837803  1
  N  N365  1  0.55555146  0.72857276  0.58212240  1
  N  N366  1  0.42891546  0.28040536  0.09767674  1
  N  N367  1  0.43634282  0.60763935  0.08598586  1
  N  N368  1  0.43103946  0.94521010  0.10302252  1
  N  N369  1  0.93278626  0.28075442  0.10124607  1
  N  N370  1  0.92552778  0.61464707  0.10631786  1
  N  N371  1  0.92670568  0.94417647  0.10082823  1
  N  N372  1  0.45060305  0.05724944  0.90973778  1
  N  N373  1  0.42544133  0.38823047  0.89954751  1
  N  N374  1  0.44638760  0.72158844  0.90776684  1
  N  N375  1  0.95266123  0.05735822  0.90917398  1
  N  N376  1  0.93280220  0.39059846  0.90501076  1
  N  N377  1  0.93492721  0.72327546  0.90199267  1
  N  N378  1  0.07168109  0.27890523  0.39252437  1
  N  N379  1  0.06114293  0.60998434  0.40209193  1
  N  N380  1  0.05948520  0.94131407  0.40620216  1
  N  N381  1  0.56683557  0.27614622  0.40631936  1
  N  N382  1  0.55306694  0.60913279  0.41034557  1
  N  N383  1  0.56489558  0.94322951  0.40196494  1
  N  N384  1  0.31152188  0.22410588  0.59363962  1
  N  N385  1  0.32365381  0.55509876  0.60266824  1
  N  N386  1  0.31844437  0.88938934  0.60307520  1
  N  N387  1  0.80594576  0.22433148  0.59290313  1
  N  N388  1  0.81807344  0.55572507  0.60052882  1
  N  N389  1  0.81331188  0.89180177  0.59340582  1
  N  N390  1  0.17364089  0.11116729  0.10120523  1
  N  N391  1  0.19018290  0.44153709  0.09665104  1
  N  N392  1  0.17912753  0.78025136  0.10626000  1
  N  N393  1  0.67850662  0.11064264  0.10492328  1
  N  N394  1  0.69525973  0.44617780  0.08946570  1
  N  N395  1  0.69091751  0.77398624  0.08274383  1
  N  N396  1  0.17914132  0.22111027  0.89709902  1
  N  N397  1  0.19550353  0.55333488  0.91052990  1
  N  N398  1  0.19317551  0.89450514  0.91068154  1
  N  N399  1  0.69382537  0.22339837  0.91294589  1
  N  N400  1  0.69149020  0.55795003  0.90513782  1
  N  N401  1  0.69822029  0.88888511  0.90957085  1
  N  N402  1  0.30968157  0.11047781  0.40168895  1
  N  N403  1  0.32493684  0.44491543  0.39695907  1
  N  N404  1  0.32191376  0.77833327  0.39695917  1
  N  N405  1  0.79783930  0.10836265  0.41320537  1
  N  N406  1  0.81783596  0.44440431  0.40274989  1
  N  N407  1  0.81017337  0.77698184  0.40885069  1
  N  N408  1  0.43927055  0.27855100  0.39833326  1
  N  N409  1  0.42392994  0.61158427  0.39771206  1
  N  N410  1  0.43789182  0.94111531  0.40836417  1
  N  N411  1  0.94537355  0.27636159  0.40786249  1
  N  N412  1  0.93088456  0.61063551  0.40139888  1
  N  N413  1  0.93269550  0.94554412  0.39357501  1
  N  N414  1  0.07949612  0.05250146  0.89626140  1
  N  N415  1  0.05938146  0.38704685  0.90498694  1
  N  N416  1  0.06339354  0.72550665  0.90872348  1
  N  N417  1  0.57896987  0.05186803  0.89446125  1
  N  N418  1  0.55509727  0.39337447  0.90680414  1
  N  N419  1  0.57613066  0.71992903  0.90031488  1
  N  N420  1  0.06145566  0.27715409  0.08672098  1
  N  N421  1  0.05362433  0.60742428  0.09065553  1
  N  N422  1  0.05391000  0.93840355  0.08627686  1
  N  N423  1  0.55793859  0.28059508  0.10009180  1
  N  N424  1  0.56504057  0.61385444  0.09858993  1
  N  N425  1  0.55835896  0.94021433  0.09313418  1
  N  N426  1  0.44428396  0.05924415  0.58836493  1
  N  N427  1  0.42851743  0.38872649  0.60056235  1
  N  N428  1  0.42967863  0.72202372  0.60130840  1
  N  N429  1  0.94304338  0.05437760  0.59374089  1
  N  N430  1  0.93391767  0.38920124  0.60281507  1
  N  N431  1  0.94141445  0.72397220  0.59188513  1
  N  N432  1  0.18274934  0.10931265  0.40315480  1
  N  N433  1  0.19837220  0.44103167  0.41234995  1
  N  N434  1  0.19320999  0.77408225  0.41131127  1
  N  N435  1  0.67052594  0.11338924  0.39217417  1
  N  N436  1  0.68972437  0.44415153  0.40253131  1
  N  N437  1  0.68182291  0.77593762  0.39794313  1
  N  N438  1  0.30823610  0.22475241  0.90961952  1
  N  N439  1  0.32187244  0.55543738  0.89935179  1
  N  N440  1  0.32157591  0.88959018  0.90296356  1
  N  N441  1  0.81794333  0.22254665  0.89166052  1
  N  N442  1  0.82138635  0.55500586  0.90060223  1
  N  N443  1  0.82546115  0.88671963  0.89858635  1
  N  N444  1  0.30061765  0.11158155  0.08978664  1
  N  N445  1  0.31854543  0.44248983  0.09322647  1
  N  N446  1  0.30351065  0.77407458  0.08790988  1
  N  N447  1  0.80421726  0.11045603  0.09017070  1
  N  N448  1  0.82143355  0.44265685  0.10194627  1
  N  N449  1  0.81829046  0.77976893  0.10175449  1
  N  N450  1  0.18368418  0.22385094  0.59285262  1
  N  N451  1  0.19794149  0.55743280  0.58984347  1
  N  N452  1  0.19099259  0.88997016  0.59359994  1
  N  N453  1  0.67934166  0.22131714  0.60704719  1
  N  N454  1  0.69019539  0.55883228  0.59533475  1
  N  N455  1  0.68597891  0.88811364  0.60243589  1
  Cl  Cl456  1  0.25993397  0.05778643  0.61720375  1
  Cl  Cl457  1  0.24596545  0.38345653  0.61625804  1
  Cl  Cl458  1  0.24943558  0.71665455  0.62794939  1
  Cl  Cl459  1  0.75915846  0.05591425  0.61958440  1
  Cl  Cl460  1  0.74626325  0.38964997  0.61798207  1
  Cl  Cl461  1  0.75220027  0.72464783  0.59880151  1
  Cl  Cl462  1  0.24674945  0.27810086  0.11649352  1
  Cl  Cl463  1  0.24157617  0.60631472  0.10351566  1
  Cl  Cl464  1  0.24323985  0.94538015  0.11372980  1
  Cl  Cl465  1  0.73764237  0.26818128  0.10549082  1
  Cl  Cl466  1  0.74466194  0.61849031  0.12478944  1
  Cl  Cl467  1  0.74349032  0.94782527  0.11838738  1
  Cl  Cl468  1  0.26699331  0.05976773  0.89494057  1
  Cl  Cl469  1  0.24263565  0.38265176  0.88034592  1
  Cl  Cl470  1  0.25480739  0.72598096  0.89902728  1
  Cl  Cl471  1  0.76950821  0.06271230  0.89418466  1
  Cl  Cl472  1  0.74282812  0.39226189  0.89132653  1
  Cl  Cl473  1  0.75549710  0.71732565  0.86648624  1
  Cl  Cl474  1  0.25531673  0.27601572  0.38528438  1
  Cl  Cl475  1  0.24321458  0.61282918  0.37065047  1
  Cl  Cl476  1  0.24704224  0.94413747  0.38577061  1
  Cl  Cl477  1  0.75792045  0.27594549  0.38713708  1
  Cl  Cl478  1  0.74222603  0.61795733  0.38783138  1
  Cl  Cl479  1  0.74777518  0.94441412  0.38339770  1
  Cl  Cl480  1  -0.00480939  0.22216983  0.60529628  1
  Cl  Cl481  1  0.00881301  0.55658215  0.61326136  1
  Cl  Cl482  1  0.00373824  0.89047743  0.61292662  1
  Cl  Cl483  1  0.49336775  0.21413727  0.62531892  1
  Cl  Cl484  1  0.50609256  0.55489014  0.61485810  1
  Cl  Cl485  1  0.50309268  0.88450037  0.62080737  1
  Cl  Cl486  1  -0.01279709  0.10770359  0.11491100  1
  Cl  Cl487  1  0.00541194  0.44592444  0.12344866  1
  Cl  Cl488  1  0.00008010  0.78294156  0.12164554  1
  Cl  Cl489  1  0.48534208  0.11423624  0.11329439  1
  Cl  Cl490  1  0.50995303  0.44763589  0.11013542  1
  Cl  Cl491  1  0.48992721  0.77466984  0.10677624  1
  Cl  Cl492  1  -0.00171812  0.21217415  0.87045472  1
  Cl  Cl493  1  0.01226187  0.55749113  0.88353383  1
  Cl  Cl494  1  0.00848743  0.88693206  0.88294464  1
  Cl  Cl495  1  0.50825972  0.23033088  0.89962866  1
  Cl  Cl496  1  0.50496926  0.55256176  0.88065883  1
  Cl  Cl497  1  0.50977028  0.88712599  0.88941952  1
  Cl  Cl498  1  -0.01126126  0.10581838  0.39720671  1
  Cl  Cl499  1  0.00712467  0.44483259  0.38574654  1
  Cl  Cl500  1  -0.00335494  0.77551038  0.39174584  1
  Cl  Cl501  1  0.48866038  0.11011705  0.38178966  1
  Cl  Cl502  1  0.50625096  0.44737495  0.37677918  1
  Cl  Cl503  1  0.50242236  0.77985869  0.37396941  1
  Cl  Cl504  1  0.35639188  0.14833284  0.75060157  1
  Cl  Cl505  1  0.36522881  0.47796153  0.74957955  1
  Cl  Cl506  1  0.35739352  0.81385782  0.74999121  1
  Cl  Cl507  1  0.85999644  0.14845754  0.75143600  1
  Cl  Cl508  1  0.85896174  0.47903385  0.75082821  1
  Cl  Cl509  1  0.86289452  0.81420788  0.74860362  1
  Cl  Cl510  1  0.13986208  0.18467829  0.25180793  1
  Cl  Cl511  1  0.13839809  0.51807466  0.24749218  1
  Cl  Cl512  1  0.14016500  0.85404830  0.24575902  1
  Cl  Cl513  1  0.63117839  0.18769817  0.24727604  1
  Cl  Cl514  1  0.64503060  0.51736410  0.25198472  1
  Cl  Cl515  1  0.64102070  0.85187867  0.25179901  1
  Cl  Cl516  1  0.13821169  0.14393840  0.75068876  1
  Cl  Cl517  1  0.14525512  0.48358243  0.74792109  1
  Cl  Cl518  1  0.13908706  0.81184495  0.75492611  1
  Cl  Cl519  1  0.63880792  0.14498357  0.75199108  1
  Cl  Cl520  1  0.63711718  0.47913168  0.75014044  1
  Cl  Cl521  1  0.64186435  0.81366569  0.74589133  1
  Cl  Cl522  1  0.35763599  0.18603376  0.25007134  1
  Cl  Cl523  1  0.36200571  0.52000551  0.25323588  1
  Cl  Cl524  1  0.35998046  0.85307380  0.25181981  1
  Cl  Cl525  1  0.85460551  0.18334535  0.24693970  1
  Cl  Cl526  1  0.86399493  0.52277145  0.24817590  1
  Cl  Cl527  1  0.86260853  0.85574205  0.24477337  1
  Cl  Cl528  1  0.10964620  0.31269703  0.74860637  1
  Cl  Cl529  1  0.10782673  0.64796357  0.74944287  1
  Cl  Cl530  1  0.11330072  0.97900771  0.74983283  1
  Cl  Cl531  1  0.60696631  0.31216041  0.74513934  1
  Cl  Cl532  1  0.61096654  0.64938660  0.74533317  1
  Cl  Cl533  1  0.61369397  0.98063730  0.75038014  1
  Cl  Cl534  1  0.39222908  0.01743641  0.24667538  1
  Cl  Cl535  1  0.39106102  0.35184413  0.25505791  1
  Cl  Cl536  1  0.38603952  0.68695066  0.25311779  1
  Cl  Cl537  1  0.88604723  0.02137875  0.25363680  1
  Cl  Cl538  1  0.88283379  0.35252132  0.23960414  1
  Cl  Cl539  1  0.88899563  0.68945145  0.24794969  1
  Cl  Cl540  1  0.38756323  0.31321280  0.75093655  1
  Cl  Cl541  1  0.38892417  0.64691152  0.74521480  1
  Cl  Cl542  1  0.39492687  0.98167305  0.75014748  1
  Cl  Cl543  1  0.88737088  0.31125972  0.74883354  1
  Cl  Cl544  1  0.88963137  0.64588973  0.75178529  1
  Cl  Cl545  1  0.89338104  0.98184884  0.75205755  1
  Cl  Cl546  1  0.10463236  0.02104827  0.24509727  1
  Cl  Cl547  1  0.10675190  0.34948523  0.25327929  1
  Cl  Cl548  1  0.11130424  0.68746550  0.24594343  1
  Cl  Cl549  1  0.61139043  0.02261647  0.25452366  1
  Cl  Cl550  1  0.61204166  0.35264655  0.24474046  1
  Cl  Cl551  1  0.60844871  0.68463175  0.24607103  1
